MODEL 2
REMARK VINA RESULT: -8.677858569      4.001      7.603
REMARK  11 active torsions:
REMARK  status: ('A' for Active; 'I' for Inactive)
REMARK    1  A    between atoms: C3_3  and  C4_4
REMARK    2  A    between atoms: C4_4  and  C5_5
REMARK    3  A    between atoms: C5_5  and  C6_6
REMARK    4  A    between atoms: C6_6  and  N1_7
REMARK    5  A    between atoms: C8_10  and  C9_11
REMARK    6  A    between atoms: C11_13  and  C12_14
REMARK    7  A    between atoms: C12_14  and  O2_15
REMARK    8  A    between atoms: C15_18  and  C16_19
REMARK       I    between atoms: C16_19  and  N2_21
REMARK    9  A    between atoms: N2_21  and  C17_23
REMARK   10  A    between atoms: C17_23  and  C18_24
REMARK   11  A    between atoms: C18_24  and  N3_25
ROOT
HETATM    1  C1  UNL     1       5.588   7.023  36.729  1.00  0.00     0.012 C
HETATM    2  C2  UNL     1       6.416   7.087  37.600  1.00  0.00    -0.117 C
HETATM    3  C3  UNL     1       7.454   7.163  38.663  1.00  0.00     0.093 C
ENDROOT
BRANCH   3   4
HETATM    4  C4  UNL     1       8.100   8.524  38.538  1.00  0.00     0.014 C
BRANCH   4   5
HETATM    5  C5  UNL     1       7.177   9.636  38.287  1.00  0.00     0.021 C
BRANCH   5   6
HETATM    6  C6  UNL     1       6.323  10.166  39.378  1.00  0.00     0.134 C
BRANCH   6   7
HETATM    7  N1  UNL     1       5.116   9.458  39.643  1.00  0.00    -0.298 N
HETATM    8  C7  UNL     1       4.054   9.466  38.853  1.00  0.00     0.260 A
HETATM    9  O1  UNL     1       4.024  10.065  37.739  1.00  0.00    -0.267 OA
HETATM   10  C8  UNL     1       2.874   8.814  39.172  1.00  0.00     0.049 A
HETATM   11  C25 UNL     1       2.773   8.124  40.347  1.00  0.00    -0.030 A
HETATM   12  C26 UNL     1       1.534   7.410  40.740  1.00  0.00     0.050 C
HETATM   13  C27 UNL     1       3.901   8.120  41.171  1.00  0.00     0.032 A
HETATM   14  C28 UNL     1       3.828   7.420  42.371  1.00  0.00     0.121 A
HETATM   15  C30 UNL     1       5.044   8.770  40.828  1.00  0.00     0.138 A
HETATM   16  N5  UNL     1       4.896   7.411  43.153  1.00  0.00    -0.201 N
HETATM   17  C29 UNL     1       6.026   8.055  42.811  1.00  0.00     0.677 A
ATOM     18  H5  UNL     1       4.861   6.903  44.037  1.00  0.00     0.183 HD
HETATM   19  N6  UNL     1       7.062   8.036  43.587  1.00  0.00    -0.234 N
HETATM   20  N7  UNL     1       6.124   8.744  41.648  1.00  0.00    -0.176 N
ATOM     21  H62 UNL     1       6.988   7.517  44.462  1.00  0.00     0.174 HD
ATOM     22  H61 UNL     1       7.919   8.525  43.327  1.00  0.00     0.174 HD
ATOM     23  H7  UNL     1       6.985   9.229  41.398  1.00  0.00     0.186 HD
BRANCH  10  24
HETATM   24  C9  UNL     1       1.761   8.853  38.237  1.00  0.00    -0.018 A
HETATM   25  C10 UNL     1       0.463   9.127  38.682  1.00  0.00     0.022 A
HETATM   26  C11 UNL     1      -0.633   9.153  37.862  1.00  0.00    -0.033 A
HETATM   27  C14 UNL     1      -0.454   8.896  36.523  1.00  0.00     0.026 A
HETATM   28  C15 UNL     1       0.825   8.616  36.026  1.00  0.00     0.033 A
HETATM   29  C24 UNL     1       1.899   8.599  36.878  1.00  0.00     0.029 A
BRANCH  26  30
HETATM   30  C12 UNL     1      -2.003   9.447  38.382  1.00  0.00     0.205 C
BRANCH  30  31
HETATM   31  O2  UNL     1      -2.963   8.662  37.797  1.00  0.00    -0.391 OA
HETATM   32  C13 UNL     1      -3.992   9.479  37.342  1.00  0.00     0.201 C
ENDBRANCH  30  31
ENDBRANCH  26  30
BRANCH  28  33
HETATM   33  C16 UNL     1       0.943   8.340  34.602  1.00  0.00     0.251 C
HETATM   34  O3  UNL     1       1.833   7.506  34.276  1.00  0.00    -0.268 OA
HETATM   35  N2  UNL     1       0.100   8.981  33.689  1.00  0.00    -0.355 N
ATOM     36  H2  UNL     1      -0.575   9.650  34.059  1.00  0.00     0.162 HD
BRANCH  35  37
HETATM   37  C17 UNL     1       0.114   8.764  32.241  1.00  0.00     0.153 C
BRANCH  37  38
HETATM   38  C18 UNL     1      -1.220   8.198  31.806  1.00  0.00     0.292 C
BRANCH  38  39
HETATM   39  N3  UNL     1      -2.028   9.135  31.049  1.00  0.00     0.093 N
HETATM   40  C19 UNL     1      -3.029   9.618  31.996  1.00  0.00     0.302 C
HETATM   41  C20 UNL     1      -4.147  10.350  31.338  1.00  0.00     0.302 C
HETATM   42  N4  UNL     1      -4.785   9.429  30.398  1.00  0.00     0.087 N
HETATM   43  C21 UNL     1      -5.997  10.021  29.850  1.00  0.00     0.310 C
HETATM   44  C22 UNL     1      -3.811   9.145  29.362  1.00  0.00     0.302 C
HETATM   45  C23 UNL     1      -2.666   8.381  29.980  1.00  0.00     0.302 C
ENDBRANCH  38  39
ENDBRANCH  37  38
ENDBRANCH  35  37
ENDBRANCH  28  33
ENDBRANCH  10  24
ENDBRANCH   6   7
ENDBRANCH   5   6
ENDBRANCH   4   5
ENDBRANCH   3   4
TORSDOF 11
ENDMDL