MODEL 3
REMARK VINA RESULT: -8.021921980      1.249      2.451
REMARK  13 active torsions:
REMARK  status: ('A' for Active; 'I' for Inactive)
REMARK    1  A    between atoms: O1_2  and  C2_3
REMARK    2  A    between atoms: C4_5  and  N1_6
REMARK    3  A    between atoms: C8_10  and  O2_11
REMARK    4  A    between atoms: C12_15  and  O3_16
REMARK    5  A    between atoms: C15_19  and  N2_20
REMARK    6  A    between atoms: N2_20  and  C16_21
REMARK    7  A    between atoms: C20_27  and  N4_28
REMARK    8  A    between atoms: N4_28  and  C21_30
REMARK    9  A    between atoms: C21_30  and  C22_31
REMARK       I    between atoms: C22_31  and  N5_33
REMARK   10  A    between atoms: N5_33  and  C23_35
REMARK   11  A    between atoms: C23_35  and  C24_36
REMARK   12  A    between atoms: C24_36  and  C25_37
REMARK   13  A    between atoms: C25_37  and  N6_38
ROOT
HETATM    1  C16 UNL     1       2.938   8.284  41.721  1.00  0.00     0.261 A
HETATM    2  N3  UNL     1       2.142   7.654  42.654  1.00  0.00    -0.326 N
ATOM      3  H3  UNL     1       1.246   7.273  42.349  1.00  0.00     0.169 HD
HETATM    4  C17 UNL     1       2.484   7.520  43.929  1.00  0.00     0.102 A
HETATM    5  C18 UNL     1       3.678   8.019  44.383  1.00  0.00    -0.003 A
HETATM    6  C19 UNL     1       4.102   7.894  45.792  1.00  0.00     0.054 C
HETATM    7  C20 UNL     1       4.499   8.662  43.455  1.00  0.00     0.112 A
HETATM    8  N7  UNL     1       4.124   8.775  42.190  1.00  0.00    -0.302 N
ATOM      9  H7  UNL     1       4.746   9.250  41.537  1.00  0.00     0.171 HD
ENDROOT
BRANCH   1  10
HETATM   10  N2  UNL     1       2.577   8.371  40.594  1.00  0.00    -0.368 NA
BRANCH  10  11
HETATM   11  C15 UNL     1       2.187   8.480  39.344  1.00  0.00     0.147 A
HETATM   12  C2  UNL     1       0.842   8.292  38.970  1.00  0.00     0.111 A
HETATM   13  C3  UNL     1       0.502   8.410  37.655  1.00  0.00     0.072 A
HETATM   14  C4  UNL     1       1.428   8.708  36.673  1.00  0.00     0.067 A
HETATM   15  C12 UNL     1       2.752   8.900  37.004  1.00  0.00     0.098 A
HETATM   16  C14 UNL     1       3.094   8.783  38.313  1.00  0.00     0.086 A
BRANCH  12  17
HETATM   17  O1  UNL     1      -0.108   7.990  39.956  1.00  0.00    -0.352 OA
HETATM   18  C1  UNL     1      -1.465   8.268  39.671  1.00  0.00     0.210 C
ENDBRANCH  12  17
BRANCH  14  19
HETATM   19  N1  UNL     1       1.015   8.814  35.321  1.00  0.00    -0.378 N
HETATM   20  C5  UNL     1       1.248   7.704  34.458  1.00  0.00     0.123 C
HETATM   21  C6  UNL     1       1.402   8.096  33.014  1.00  0.00     0.022 C
HETATM   22  C7  UNL     1       0.398   9.003  32.452  1.00  0.00     0.033 C
HETATM   23  C8  UNL     1      -0.948   9.054  33.113  1.00  0.00     0.122 C
HETATM   24  C10 UNL     1      -0.974   9.736  34.443  1.00  0.00     0.051 C
HETATM   25  C11 UNL     1       0.390  10.079  34.992  1.00  0.00     0.125 C
BRANCH  23  26
HETATM   26  O2  UNL     1      -1.557   7.803  33.134  1.00  0.00    -0.391 OA
HETATM   27  C9  UNL     1      -2.808   7.842  33.691  1.00  0.00     0.202 C
ENDBRANCH  23  26
ENDBRANCH  14  19
BRANCH  15  28
HETATM   28  O3  UNL     1       3.695   9.204  36.004  1.00  0.00    -0.354 OA
HETATM   29  C13 UNL     1       5.040   9.418  36.434  1.00  0.00     0.210 C
ENDBRANCH  15  28
ENDBRANCH  10  11
ENDBRANCH   1  10
BRANCH   7  30
HETATM   30  N4  UNL     1       5.610   9.121  43.910  1.00  0.00    -0.367 N
ATOM     31  H4  UNL     1       5.628  10.062  44.303  1.00  0.00     0.161 HD
BRANCH  30  32
HETATM   32  C21 UNL     1       6.818   8.364  43.888  1.00  0.00     0.224 C
BRANCH  32  33
HETATM   33  C22 UNL     1       7.888   9.207  43.305  1.00  0.00     0.235 C
HETATM   34  O4  UNL     1       9.086   8.884  43.458  1.00  0.00    -0.272 OA
HETATM   35  N5  UNL     1       7.562  10.365  42.580  1.00  0.00    -0.360 N
ATOM     36  H5  UNL     1       6.581  10.620  42.462  1.00  0.00     0.162 HD
BRANCH  35  37
HETATM   37  C23 UNL     1       8.583  11.203  41.997  1.00  0.00     0.124 C
BRANCH  37  38
HETATM   38  C24 UNL     1       8.473  11.226  40.481  1.00  0.00     0.050 C
BRANCH  38  39
HETATM   39  C25 UNL     1       8.895   9.942  39.853  1.00  0.00     0.274 C
BRANCH  39  40
HETATM   40  N6  UNL     1       7.922   9.425  38.925  1.00  0.00     0.088 N
HETATM   41  C26 UNL     1       6.664   9.192  39.610  1.00  0.00     0.272 C
HETATM   42  C27 UNL     1       6.777   7.721  40.031  1.00  0.00     0.032 C
HETATM   43  C28 UNL     1       7.302   7.134  38.714  1.00  0.00     0.032 C
HETATM   44  C29 UNL     1       8.293   8.198  38.295  1.00  0.00     0.272 C
ENDBRANCH  39  40
ENDBRANCH  38  39
ENDBRANCH  37  38
ENDBRANCH  35  37
ENDBRANCH  32  33
ENDBRANCH  30  32
ENDBRANCH   7  30
TORSDOF 13
ENDMDL