MODEL 4
REMARK VINA RESULT: -7.939695079      4.552      9.992
REMARK  12 active torsions:
REMARK  status: ('A' for Active; 'I' for Inactive)
REMARK    1  A    between atoms: O1_2  and  C2_3
REMARK    2  A    between atoms: C4_5  and  C5_6
REMARK    3  A    between atoms: C5_6  and  C6_7
REMARK       I    between atoms: C6_7  and  N1_9
REMARK    4  A    between atoms: N1_9  and  C7_11
REMARK    5  A    between atoms: C7_11  and  C8_12
REMARK    6  A    between atoms: C8_12  and  C9_13
REMARK    7  A    between atoms: C9_13  and  N2_14
REMARK    8  A    between atoms: C15_20  and  C16_21
REMARK    9  A    between atoms: C18_23  and  N3_24
REMARK   10  A    between atoms: N6_36  and  C24_37
REMARK   11  A    between atoms: C24_37  and  C25_38
REMARK   12  A    between atoms: C25_38  and  N7_39
ROOT
HETATM    1  C16 UNL     1       0.261   8.875  35.090  1.00  0.00     0.077 A
HETATM    2  C17 UNL     1       0.079   8.681  33.723  1.00  0.00     0.065 A
HETATM    3  C18 UNL     1       0.839   8.249  32.655  1.00  0.00     0.114 A
HETATM    4  N4  UNL     1       0.300   8.222  31.415  1.00  0.00    -0.345 N
ATOM      5  H4  UNL     1       0.870   7.897  30.634  1.00  0.00     0.167 HD
HETATM    6  C19 UNL     1      -0.963   8.611  31.181  1.00  0.00     0.015 A
HETATM    7  C20 UNL     1      -1.526   8.559  29.808  1.00  0.00     0.069 C
HETATM    8  C21 UNL     1      -1.756   9.055  32.209  1.00  0.00    -0.011 A
HETATM    9  C22 UNL     1      -3.166   9.506  32.039  1.00  0.00     0.052 C
HETATM   10  C23 UNL     1      -1.250   9.100  33.509  1.00  0.00     0.072 A
HETATM   11  N5  UNL     1      -1.748   9.502  34.670  1.00  0.00    -0.297 N
ATOM     12  H5  UNL     1      -2.695   9.860  34.795  1.00  0.00     0.187 HD
HETATM   13  N6  UNL     1      -0.862   9.382  35.651  1.00  0.00    -0.288 N
ENDROOT
BRANCH   1  14
HETATM   14  C15 UNL     1       1.423   8.386  35.831  1.00  0.00    -0.004 A
HETATM   15  C14 UNL     1       2.684   8.885  35.673  1.00  0.00     0.021 A
HETATM   16  C4  UNL     1       3.777   8.542  36.434  1.00  0.00    -0.046 A
HETATM   17  C3  UNL     1       3.581   7.605  37.446  1.00  0.00     0.044 A
HETATM   18  C2  UNL     1       2.339   7.052  37.668  1.00  0.00     0.069 A
HETATM   19  C30 UNL     1       1.295   7.462  36.853  1.00  0.00     0.050 A
BRANCH  16  20
HETATM   20  C5  UNL     1       5.114   9.168  36.247  1.00  0.00     0.141 C
BRANCH  20  21
HETATM   21  C6  UNL     1       5.612   9.814  37.465  1.00  0.00     0.221 C
HETATM   22  O2  UNL     1       5.971  11.039  37.372  1.00  0.00    -0.273 OA
HETATM   23  N1  UNL     1       5.709   9.155  38.689  1.00  0.00    -0.361 N
ATOM     24  H1  UNL     1       5.429   8.174  38.699  1.00  0.00     0.162 HD
BRANCH  23  25
HETATM   25  C7  UNL     1       6.164   9.705  39.947  1.00  0.00     0.124 C
BRANCH  25  26
HETATM   26  C8  UNL     1       6.136   8.645  41.063  1.00  0.00     0.050 C
BRANCH  26  27
HETATM   27  C9  UNL     1       4.709   8.274  41.284  1.00  0.00     0.274 C
BRANCH  27  28
HETATM   28  N2  UNL     1       4.432   7.473  42.434  1.00  0.00     0.088 N
HETATM   29  C10 UNL     1       3.170   7.891  43.057  1.00  0.00     0.272 C
HETATM   30  C11 UNL     1       3.254   7.473  44.502  1.00  0.00     0.032 C
HETATM   31  C12 UNL     1       4.715   7.743  44.797  1.00  0.00     0.032 C
HETATM   32  C13 UNL     1       5.411   7.473  43.471  1.00  0.00     0.272 C
ENDBRANCH  27  28
ENDBRANCH  26  27
ENDBRANCH  25  26
ENDBRANCH  23  25
ENDBRANCH  20  21
ENDBRANCH  16  20
BRANCH  18  33
HETATM   33  O1  UNL     1       2.222   6.138  38.677  1.00  0.00    -0.356 OA
HETATM   34  C1  UNL     1       1.847   6.348  39.999  1.00  0.00     0.210 C
ENDBRANCH  18  33
ENDBRANCH   1  14
BRANCH  13  35
HETATM   35  C24 UNL     1      -1.136   9.717  37.010  1.00  0.00     0.179 C
BRANCH  35  36
HETATM   36  C25 UNL     1      -1.426   8.509  37.882  1.00  0.00     0.294 C
BRANCH  36  37
HETATM   37  N7  UNL     1      -2.780   8.488  38.375  1.00  0.00     0.094 N
HETATM   38  C26 UNL     1      -3.573   7.381  37.954  1.00  0.00     0.298 C
HETATM   39  C27 UNL     1      -3.779   7.249  36.479  1.00  0.00     0.198 C
HETATM   40  O3  UNL     1      -4.359   8.416  36.016  1.00  0.00    -0.388 OA
HETATM   41  C28 UNL     1      -4.618   9.348  36.997  1.00  0.00     0.198 C
HETATM   42  C29 UNL     1      -3.420   9.701  37.848  1.00  0.00     0.298 C
ENDBRANCH  36  37
ENDBRANCH  35  36
ENDBRANCH  13  35
BRANCH   3  43
HETATM   43  N3  UNL     1       2.081   7.961  32.783  1.00  0.00    -0.385 N
ATOM     44  H32 UNL     1       2.639   8.509  33.438  1.00  0.00     0.157 HD
ATOM     45  H31 UNL     1       2.498   7.160  32.310  1.00  0.00     0.157 HD
ENDBRANCH   3  43
TORSDOF 12
ENDMDL