MODEL 3
REMARK VINA RESULT: -8.287757839      6.404     12.459
REMARK  13 active torsions:
REMARK  status: ('A' for Active; 'I' for Inactive)
REMARK    1  A    between atoms: C2_2  and  C3_3
REMARK    2  A    between atoms: C3_3  and  C4_4
REMARK    3  A    between atoms: C5_7  and  C6_8
REMARK       I    between atoms: C6_8  and  N2_10
REMARK    4  A    between atoms: N2_10  and  C7_12
REMARK    5  A    between atoms: C7_12  and  C9_14
REMARK    6  A    between atoms: C9_14  and  C10_15
REMARK       I    between atoms: C10_15  and  N3_17
REMARK    7  A    between atoms: N3_17  and  C11_19
REMARK    8  A    between atoms: C14_27  and  N6_28
REMARK    9  A    between atoms: N6_28  and  C15_30
REMARK   10  A    between atoms: C15_30  and  C16_31
REMARK   11  A    between atoms: C16_31  and  C17_32
REMARK   12  A    between atoms: C17_32  and  N7_33
REMARK   13  A    between atoms: C25_43  and  C26_44
ROOT
HETATM    1  C4  UNL     1       6.134   9.922  39.316  1.00  0.00     0.032 A
HETATM    2  N1  UNL     1       6.067   9.445  40.598  1.00  0.00    -0.350 N
ATOM      3  H1  UNL     1       6.721   9.817  41.287  1.00  0.00     0.166 HD
HETATM    4  C5  UNL     1       5.188   8.517  40.994  1.00  0.00     0.145 A
HETATM    5  C14 UNL     1       4.288   7.986  40.103  1.00  0.00     0.134 A
HETATM    6  N8  UNL     1       4.337   8.434  38.856  1.00  0.00    -0.342 N
ATOM      7  H8  UNL     1       3.676   8.049  38.182  1.00  0.00     0.167 HD
HETATM    8  C25 UNL     1       5.223   9.382  38.418  1.00  0.00     0.033 A
ENDROOT
BRANCH   4   9
HETATM    9  C6  UNL     1       5.169   8.048  42.374  1.00  0.00     0.272 C
HETATM   10  O1  UNL     1       5.424   6.862  42.663  1.00  0.00    -0.266 OA
HETATM   11  N2  UNL     1       4.852   8.968  43.400  1.00  0.00    -0.351 N
ATOM     12  H2  UNL     1       4.652   9.935  43.147  1.00  0.00     0.163 HD
BRANCH  11  13
HETATM   13  C7  UNL     1       4.800   8.585  44.808  1.00  0.00     0.089 C
HETATM   14  C8  UNL     1       3.689   7.554  44.946  1.00  0.00     0.032 C
BRANCH  13  15
HETATM   15  C9  UNL     1       6.135   8.051  45.205  1.00  0.00     0.128 C
BRANCH  15  16
HETATM   16  C10 UNL     1       7.200   9.078  45.181  1.00  0.00     0.225 C
HETATM   17  O2  UNL     1       6.950  10.214  44.726  1.00  0.00    -0.273 OA
HETATM   18  N3  UNL     1       8.482   8.789  45.663  1.00  0.00    -0.306 N
ATOM     19  H3  UNL     1       9.087   8.110  45.202  1.00  0.00     0.171 HD
BRANCH  18  20
HETATM   20  C11 UNL     1       8.866   9.436  46.743  1.00  0.00     0.167 A
HETATM   21  N4  UNL     1       8.313  10.509  47.314  1.00  0.00    -0.279 N
HETATM   22  N5  UNL     1       8.840  10.982  48.365  1.00  0.00    -0.296 N
ATOM     23  H4  UNL     1       7.481  10.940  46.912  1.00  0.00     0.189 HD
HETATM   24  C12 UNL     1       9.920  10.422  48.886  1.00  0.00     0.066 A
ATOM     25  H5  UNL     1       8.428  11.801  48.813  1.00  0.00     0.187 HD
HETATM   26  C13 UNL     1      10.686  10.831  50.119  1.00  0.00     0.078 C
HETATM   27  S1  UNL     1      10.189   9.135  47.790  1.00  0.00    -0.038 SA
ENDBRANCH  18  20
ENDBRANCH  15  16
ENDBRANCH  13  15
ENDBRANCH  11  13
ENDBRANCH   4   9
BRANCH   5  28
HETATM   28  N6  UNL     1       3.425   7.092  40.418  1.00  0.00    -0.374 N
ATOM     29  H6  UNL     1       3.639   6.509  41.228  1.00  0.00     0.161 HD
BRANCH  28  30
HETATM   30  C15 UNL     1       2.194   6.834  39.747  1.00  0.00     0.123 C
BRANCH  30  31
HETATM   31  C16 UNL     1       1.072   7.762  40.197  1.00  0.00     0.050 C
BRANCH  31  32
HETATM   32  C17 UNL     1       0.701   8.647  39.026  1.00  0.00     0.275 C
BRANCH  32  33
HETATM   33  N7  UNL     1      -0.082   7.984  38.047  1.00  0.00     0.098 N
HETATM   34  C18 UNL     1       0.413   8.145  36.708  1.00  0.00     0.273 C
HETATM   35  C19 UNL     1      -0.732   7.933  35.775  1.00  0.00     0.033 C
HETATM   36  C20 UNL     1      -1.965   8.105  36.623  1.00  0.00     0.043 C
HETATM   37  C21 UNL     1      -1.479   8.185  38.055  1.00  0.00     0.160 A
HETATM   38  C22 UNL     1      -2.307   7.486  39.060  1.00  0.00     0.042 A
HETATM   39  C24 UNL     1      -1.871   9.511  38.662  1.00  0.00     0.042 A
HETATM   40  C23 UNL     1      -2.610   8.768  39.747  1.00  0.00     0.005 A
ENDBRANCH  32  33
ENDBRANCH  31  32
ENDBRANCH  30  31
ENDBRANCH  28  30
ENDBRANCH   5  28
BRANCH   1  41
HETATM   41  C3  UNL     1       7.108  10.963  38.956  1.00  0.00     0.059 C
BRANCH  41  42
HETATM   42  C2  UNL     1       7.876  11.557  40.080  1.00  0.00     0.002 C
HETATM   43  C1  UNL     1       8.219  13.018  39.840  1.00  0.00     0.005 C
ENDBRANCH  41  42
ENDBRANCH   1  41
BRANCH   8  44
HETATM   44  C26 UNL     1       5.198   9.777  37.009  1.00  0.00     0.054 C
HETATM   45  C27 UNL     1       3.969   9.220  36.287  1.00  0.00     0.011 C
ENDBRANCH   8  44
TORSDOF 13
ENDMDL