MODEL 4
REMARK VINA RESULT: -8.256180363      2.023      3.932
REMARK  12 active torsions:
REMARK  status: ('A' for Active; 'I' for Inactive)
REMARK    1  A    between atoms: C2_2  and  C3_3
REMARK    2  A    between atoms: C3_3  and  N1_4
REMARK       I    between atoms: N1_4  and  C4_5
REMARK    3  A    between atoms: N1_4  and  C15_23
REMARK    4  A    between atoms: C4_5  and  C5_7
REMARK    5  A    between atoms: C7_9  and  N2_10
REMARK    6  A    between atoms: N2_10  and  C8_12
REMARK    7  A    between atoms: C11_17  and  O3_18
REMARK    8  A    between atoms: C13_20  and  O4_21
REMARK    9  A    between atoms: C15_23  and  C16_24
REMARK   10  A    between atoms: C15_23  and  C22_33
REMARK       I    between atoms: C16_24  and  N4_26
REMARK   11  A    between atoms: N4_26  and  C17_28
REMARK   12  A    between atoms: C24_36  and  N5_37
REMARK       I    between atoms: N5_37  and  C25_39
ROOT
HETATM    1  C5  UNL     1       0.081   9.221  36.702  1.00  0.00     0.070 A
HETATM    2  C6  UNL     1       0.338   8.998  35.331  1.00  0.00     0.051 A
HETATM    3  C7  UNL     1      -0.592   8.562  34.438  1.00  0.00     0.059 A
HETATM    4  C9  UNL     1      -1.890   8.314  34.892  1.00  0.00     0.107 A
HETATM    5  C10 UNL     1      -2.916   7.846  33.967  1.00  0.00     0.104 C
HETATM    6  N3  UNL     1      -3.741   7.472  33.249  1.00  0.00    -0.191 NA
HETATM    7  C11 UNL     1      -2.176   8.518  36.212  1.00  0.00     0.125 A
HETATM    8  C13 UNL     1      -1.208   8.967  37.121  1.00  0.00     0.118 A
ENDROOT
BRANCH   3   9
HETATM    9  N2  UNL     1      -0.356   8.334  33.073  1.00  0.00    -0.333 N
ATOM     10  H2  UNL     1      -1.121   7.935  32.528  1.00  0.00     0.168 HD
BRANCH   9  11
HETATM   11  C8  UNL     1       0.839   8.606  32.397  1.00  0.00     0.353 C
HETATM   12  O2  UNL     1       1.801   7.850  32.242  1.00  0.00    -0.283 OA
ENDBRANCH   9  11
ENDBRANCH   3   9
BRANCH   7  13
HETATM   13  O3  UNL     1      -3.492   8.249  36.608  1.00  0.00    -0.352 OA
HETATM   14  C12 UNL     1      -4.387   9.334  36.718  1.00  0.00     0.210 C
ENDBRANCH   7  13
BRANCH   8  15
HETATM   15  O4  UNL     1      -1.629   9.119  38.406  1.00  0.00    -0.352 OA
HETATM   16  C14 UNL     1      -1.432   8.191  39.414  1.00  0.00     0.210 C
ENDBRANCH   8  15
BRANCH   1  17
HETATM   17  C4  UNL     1       1.124   9.717  37.561  1.00  0.00     0.258 C
HETATM   18  N1  UNL     1       2.152   8.988  38.187  1.00  0.00    -0.326 N
HETATM   19  O1  UNL     1       1.093  10.976  37.780  1.00  0.00    -0.267 OA
BRANCH  18  20
HETATM   20  C3  UNL     1       2.284   7.559  38.042  1.00  0.00     0.154 C
BRANCH  20  21
HETATM   21  C2  UNL     1       3.033   7.048  36.905  1.00  0.00    -0.017 C
HETATM   22  C1  UNL     1       4.324   6.709  37.023  1.00  0.00     0.008 C
ENDBRANCH  20  21
ENDBRANCH  18  20
BRANCH  18  23
HETATM   23  C15 UNL     1       3.102   9.640  39.085  1.00  0.00     0.230 C
BRANCH  23  24
HETATM   24  C16 UNL     1       4.421   9.808  38.397  1.00  0.00     0.247 C
HETATM   25  O5  UNL     1       4.494  10.112  37.174  1.00  0.00    -0.271 OA
HETATM   26  N4  UNL     1       5.662   9.641  39.066  1.00  0.00    -0.354 N
ATOM     27  H4  UNL     1       5.642   9.396  40.056  1.00  0.00     0.162 HD
BRANCH  26  28
HETATM   28  C17 UNL     1       6.938   9.796  38.442  1.00  0.00     0.084 C
HETATM   29  C18 UNL     1       7.592  11.095  38.878  1.00  0.00     0.025 C
HETATM   30  C19 UNL     1       8.877  10.719  39.569  1.00  0.00     0.002 C
HETATM   31  C20 UNL     1       8.530   9.344  40.119  1.00  0.00     0.002 C
HETATM   32  C21 UNL     1       7.862   8.702  38.932  1.00  0.00     0.025 C
ENDBRANCH  26  28
ENDBRANCH  23  24
BRANCH  23  33
HETATM   33  C22 UNL     1       3.249   8.912  40.405  1.00  0.00     0.050 A
HETATM   34  C23 UNL     1       2.125   8.650  41.148  1.00  0.00     0.081 A
HETATM   35  S1  UNL     1       2.739   7.817  42.508  1.00  0.00    -0.064 SA
HETATM   36  C24 UNL     1       4.383   7.840  42.074  1.00  0.00     0.151 A
HETATM   37  N6  UNL     1       4.394   8.482  40.909  1.00  0.00    -0.337 N
ATOM     38  H6  UNL     1       5.271   8.639  40.412  1.00  0.00     0.168 HD
BRANCH  36  39
HETATM   39  N5  UNL     1       5.430   7.347  42.715  1.00  0.00    -0.307 N
HETATM   40  C25 UNL     1       5.479   7.598  44.093  1.00  0.00     0.219 C
HETATM   41  C26 UNL     1       6.029   8.848  44.686  1.00  0.00     0.117 C
HETATM   42  O6  UNL     1       5.039   6.726  44.886  1.00  0.00    -0.274 OA
ATOM     43  H5  UNL     1       6.157   6.816  42.236  1.00  0.00     0.171 HD
ENDBRANCH  36  39
ENDBRANCH  23  33
ENDBRANCH  18  23
ENDBRANCH   1  17
TORSDOF 12
ENDMDL