MODEL 5
REMARK VINA RESULT: -8.383583562      2.078      4.428
REMARK  13 active torsions:
REMARK  status: ('A' for Active; 'I' for Inactive)
REMARK    1  A    between atoms: C2_2  and  N1_3
REMARK    2  A    between atoms: N1_3  and  C3_5
REMARK    3  A    between atoms: C4_8  and  N3_9
REMARK    4  A    between atoms: N3_9  and  C5_11
REMARK    5  A    between atoms: C5_11  and  C6_12
REMARK    6  A    between atoms: C6_12  and  C7_13
REMARK    7  A    between atoms: C7_13  and  N4_14
REMARK    8  A    between atoms: C15_25  and  N7_26
REMARK       I    between atoms: N7_26  and  C16_28
REMARK    9  A    between atoms: C16_28  and  C17_30
REMARK   10  A    between atoms: N9_34  and  C19_35
REMARK   11  A    between atoms: C19_35  and  C20_36
REMARK   12  A    between atoms: C20_36  and  C21_37
REMARK   13  A    between atoms: C21_37  and  N10_38
ROOT
HETATM    1  C3  UNL     1      -2.124   8.744  33.352  1.00  0.00     0.129 A
HETATM    2  N2  UNL     1      -3.291   8.868  34.055  1.00  0.00    -0.176 N
ATOM      3  H2  UNL     1      -4.170   9.071  33.580  1.00  0.00     0.186 HD
HETATM    4  C4  UNL     1      -3.248   8.715  35.378  1.00  0.00     0.680 A
HETATM    5  N6  UNL     1      -2.102   8.446  36.024  1.00  0.00    -0.191 N
ATOM      6  H6  UNL     1      -2.121   8.339  37.038  1.00  0.00     0.184 HD
HETATM    7  C13 UNL     1      -0.923   8.313  35.377  1.00  0.00     0.065 A
HETATM    8  C14 UNL     1       0.249   8.044  36.043  1.00  0.00     0.060 A
HETATM    9  C15 UNL     1       1.485   7.910  35.399  1.00  0.00     0.037 A
HETATM   10  C27 UNL     1       1.456   8.064  34.040  1.00  0.00     0.030 A
HETATM   11  C28 UNL     1       0.261   8.339  33.357  1.00  0.00     0.020 A
HETATM   12  C29 UNL     1      -0.937   8.466  34.007  1.00  0.00     0.036 A
ENDROOT
BRANCH   9  13
HETATM   13  N7  UNL     1       2.634   7.621  36.171  1.00  0.00    -0.323 N
HETATM   14  C16 UNL     1       3.455   8.556  36.822  1.00  0.00     0.259 C
HETATM   15  O1  UNL     1       3.246   9.788  36.789  1.00  0.00    -0.267 OA
ATOM     16  H7  UNL     1       2.891   6.638  36.264  1.00  0.00     0.169 HD
BRANCH  14  17
HETATM   17  C17 UNL     1       4.633   8.065  37.588  1.00  0.00     0.066 A
HETATM   18  C18 UNL     1       5.626   7.233  37.119  1.00  0.00     0.125 A
HETATM   19  N8  UNL     1       6.483   7.037  38.121  1.00  0.00    -0.309 N
HETATM   20  N9  UNL     1       6.102   7.684  39.186  1.00  0.00    -0.303 N
ATOM     21  H8  UNL     1       7.321   6.459  38.063  1.00  0.00     0.186 HD
HETATM   22  C26 UNL     1       4.968   8.329  38.897  1.00  0.00     0.128 A
BRANCH  20  23
HETATM   23  C19 UNL     1       6.798   7.689  40.450  1.00  0.00     0.150 C
BRANCH  23  24
HETATM   24  C20 UNL     1       6.121   8.573  41.475  1.00  0.00     0.052 C
BRANCH  24  25
HETATM   25  C21 UNL     1       6.201   7.983  42.863  1.00  0.00     0.274 C
BRANCH  25  26
HETATM   26  N10 UNL     1       4.959   7.349  43.248  1.00  0.00     0.088 N
HETATM   27  C22 UNL     1       3.851   8.128  42.712  1.00  0.00     0.272 C
HETATM   28  C23 UNL     1       2.694   7.631  43.577  1.00  0.00     0.032 C
HETATM   29  C24 UNL     1       3.309   7.596  44.939  1.00  0.00     0.032 C
HETATM   30  C25 UNL     1       4.787   7.389  44.689  1.00  0.00     0.272 C
ENDBRANCH  25  26
ENDBRANCH  24  25
ENDBRANCH  23  24
ENDBRANCH  20  23
ENDBRANCH  14  17
ENDBRANCH   9  13
BRANCH   4  31
HETATM   31  N3  UNL     1      -4.355   8.854  36.027  1.00  0.00    -0.226 N
ATOM     32  H3  UNL     1      -4.879   8.000  36.217  1.00  0.00     0.177 HD
BRANCH  31  33
HETATM   33  C5  UNL     1      -4.922  10.059  36.506  1.00  0.00     0.143 C
BRANCH  33  34
HETATM   34  C6  UNL     1      -6.408  10.199  36.159  1.00  0.00     0.064 C
BRANCH  34  35
HETATM   35  C7  UNL     1      -6.628  11.458  35.373  1.00  0.00     0.060 C
BRANCH  35  36
HETATM   36  N4  UNL     1      -6.303  11.443  34.028  1.00  0.00    -0.390 N
HETATM   37  C8  UNL     1      -6.565  10.371  33.183  1.00  0.00     0.152 C
HETATM   38  C9  UNL     1      -7.489  10.715  32.013  1.00  0.00     0.291 C
HETATM   39  N5  UNL     1      -6.911  11.719  31.164  1.00  0.00     0.087 N
HETATM   40  C10 UNL     1      -6.332  11.197  29.965  1.00  0.00     0.310 C
HETATM   41  C11 UNL     1      -6.046  12.606  31.886  1.00  0.00     0.291 C
HETATM   42  C12 UNL     1      -6.382  12.702  33.357  1.00  0.00     0.152 C
ENDBRANCH  35  36
ENDBRANCH  34  35
ENDBRANCH  33  34
ENDBRANCH  31  33
ENDBRANCH   4  31
BRANCH   1  43
HETATM   43  N1  UNL     1      -2.172   8.904  31.952  1.00  0.00    -0.376 N
ATOM     44  H1  UNL     1      -1.308   8.975  31.415  1.00  0.00     0.161 HD
BRANCH  43  45
HETATM   45  C2  UNL     1      -3.443   8.966  31.283  1.00  0.00     0.116 C
HETATM   46  C1  UNL     1      -3.315   8.814  29.793  1.00  0.00     0.026 C
ENDBRANCH  43  45
ENDBRANCH   1  43
TORSDOF 13
ENDMDL