MODEL 2
REMARK VINA RESULT: -7.892721436      3.440      9.446
REMARK  12 active torsions:
REMARK  status: ('A' for Active; 'I' for Inactive)
REMARK    1  A    between atoms: C2_2  and  C3_3
REMARK    2  A    between atoms: C3_3  and  C4_4
REMARK    3  A    between atoms: C4_4  and  C5_5
REMARK    4  A    between atoms: C5_5  and  S1_6
REMARK    5  A    between atoms: S1_6  and  C6_7
REMARK    6  A    between atoms: C8_12  and  C9_13
REMARK    7  A    between atoms: C9_13  and  C10_14
REMARK    8  A    between atoms: C10_14  and  C11_15
REMARK    9  A    between atoms: C11_15  and  N2_16
REMARK   10  A    between atoms: C13_18  and  O2_19
REMARK   11  A    between atoms: C16_26  and  N4_27
REMARK   12  A    between atoms: C19_30  and  N5_31
ROOT
HETATM    1  C6  UNL     1       3.876   7.866  41.527  1.00  0.00     0.148 A
HETATM    2  N1  UNL     1       5.130   7.496  41.841  1.00  0.00    -0.303 N
ATOM      3  H1  UNL     1       5.338   7.234  42.805  1.00  0.00     0.171 HD
HETATM    4  C7  UNL     1       6.113   7.458  40.936  1.00  0.00     0.257 A
HETATM    5  O1  UNL     1       7.283   7.110  41.242  1.00  0.00    -0.267 OA
HETATM    6  C8  UNL     1       5.784   7.825  39.622  1.00  0.00     0.054 A
HETATM    7  C16 UNL     1       4.520   8.203  39.276  1.00  0.00     0.123 A
HETATM    8  N6  UNL     1       3.576   8.220  40.241  1.00  0.00    -0.322 N
ATOM      9  H6  UNL     1       2.623   8.500  40.006  1.00  0.00     0.169 HD
ENDROOT
BRANCH   7  10
HETATM   10  N4  UNL     1       4.098   8.545  37.976  1.00  0.00    -0.301 N
HETATM   11  C17 UNL     1       3.969   9.913  37.481  1.00  0.00     0.136 C
HETATM   12  C18 UNL     1       2.773   9.787  36.589  1.00  0.00     0.066 C
HETATM   13  C19 UNL     1       2.924   8.411  35.985  1.00  0.00     0.316 C
HETATM   14  C27 UNL     1       3.704   7.655  36.935  1.00  0.00     0.259 C
HETATM   15  O4  UNL     1       4.014   6.452  36.918  1.00  0.00    -0.271 OA
BRANCH  13  16
HETATM   16  N5  UNL     1       1.584   7.942  35.760  1.00  0.00     0.102 N
HETATM   17  C20 UNL     1       0.681   8.996  36.166  1.00  0.00     0.273 C
HETATM   18  C21 UNL     1      -0.757   8.714  35.978  1.00  0.00     0.030 C
HETATM   19  C22 UNL     1      -1.387   9.096  34.708  1.00  0.00     0.002 C
HETATM   20  C23 UNL     1      -0.538   9.636  33.625  1.00  0.00     0.000 C
HETATM   21  C24 UNL     1       0.071   8.529  32.774  1.00  0.00     0.002 C
HETATM   22  C25 UNL     1       1.428   8.114  33.296  1.00  0.00     0.030 C
HETATM   23  C26 UNL     1       1.304   7.301  34.544  1.00  0.00     0.273 C
ENDBRANCH  13  16
ENDBRANCH   7  10
BRANCH   6  24
HETATM   24  C9  UNL     1       6.869   7.757  38.644  1.00  0.00     0.050 C
BRANCH  24  25
HETATM   25  C10 UNL     1       7.565   9.031  38.334  1.00  0.00     0.025 C
BRANCH  25  26
HETATM   26  C11 UNL     1       8.975   9.163  38.762  1.00  0.00     0.128 C
BRANCH  26  27
HETATM   27  N2  UNL     1       9.152   9.957  39.943  1.00  0.00    -0.332 N
HETATM   28  C12 UNL     1       8.078  10.663  40.583  1.00  0.00     0.161 C
HETATM   29  C13 UNL     1       8.094  10.613  42.074  1.00  0.00     0.154 C
HETATM   30  C14 UNL     1       9.277   9.889  42.667  1.00  0.00     0.157 C
HETATM   31  N3  UNL     1      10.466  10.307  41.957  1.00  0.00    -0.340 N
HETATM   32  C15 UNL     1      10.450  10.071  40.536  1.00  0.00     0.318 C
ATOM     33  H3  UNL     1      11.261  10.738  42.430  1.00  0.00     0.164 HD
HETATM   34  O3  UNL     1      11.500   9.971  39.856  1.00  0.00    -0.247 OA
BRANCH  29  35
HETATM   35  O2  UNL     1       6.950   9.984  42.574  1.00  0.00    -0.392 OA
ATOM     36  H2  UNL     1       6.921  10.023  43.523  1.00  0.00     0.210 HD
ENDBRANCH  29  35
ENDBRANCH  26  27
ENDBRANCH  25  26
ENDBRANCH  24  25
ENDBRANCH   6  24
BRANCH   1  37
HETATM   37  S1  UNL     1       2.626   7.886  42.800  1.00  0.00    -0.094 SA
BRANCH  37  38
HETATM   38  C5  UNL     1       3.133   6.903  44.220  1.00  0.00     0.082 C
BRANCH  38  39
HETATM   39  C4  UNL     1       3.486   7.866  45.337  1.00  0.00     0.010 C
BRANCH  39  40
HETATM   40  C3  UNL     1       4.807   8.555  45.070  1.00  0.00     0.000 C
BRANCH  40  41
HETATM   41  C2  UNL     1       5.897   7.512  45.174  1.00  0.00    -0.005 C
HETATM   42  C1  UNL     1       7.172   8.222  45.575  1.00  0.00     0.005 C
ENDBRANCH  40  41
ENDBRANCH  39  40
ENDBRANCH  38  39
ENDBRANCH  37  38
ENDBRANCH   1  37
TORSDOF 12
ENDMDL