MODEL 2
REMARK VINA RESULT: -7.176293079      2.022      2.988
REMARK  7 active torsions:
REMARK  status: ('A' for Active; 'I' for Inactive)
REMARK    1  A    between atoms: C2_2  and  N1_3
REMARK    2  A    between atoms: N2_6  and  C5_7
REMARK    3  A    between atoms: C5_7  and  C6_8
REMARK    4  A    between atoms: C12_14  and  O1_15
REMARK    5  A    between atoms: C16_20  and  C17_21
REMARK    6  A    between atoms: C17_21  and  O2_22
REMARK    7  A    between atoms: C18_24  and  O3_25
ROOT
HETATM    1  C6  UNL     1       2.131  -5.109   5.721  1.00  0.00    -0.062 C
HETATM    2  C7  UNL     1       2.215  -3.805   5.481  1.00  0.00    -0.021 C
HETATM    3  C8  UNL     1       2.282  -3.547   3.985  1.00  0.00     0.033 C
HETATM    4  C9  UNL     1       1.459  -4.733   3.548  1.00  0.00     0.002 C
HETATM    5  C10 UNL     1       2.175  -5.774   4.389  1.00  0.00     0.023 C
HETATM    6  C11 UNL     1       1.398  -7.026   4.249  1.00  0.00     0.042 C
HETATM    7  C12 UNL     1       1.610  -7.464   2.812  1.00  0.00     0.127 C
HETATM    8  C13 UNL     1       1.196  -6.481   1.799  1.00  0.00    -0.013 C
HETATM    9  C14 UNL     1      -0.273  -6.744   1.464  1.00  0.00     0.018 C
HETATM   10  C15 UNL     1       1.959  -6.778   0.503  1.00  0.00     0.021 C
HETATM   11  C16 UNL     1       1.612  -5.748  -0.553  1.00  0.00     0.039 C
HETATM   12  C18 UNL     1       2.113  -4.404  -0.131  1.00  0.00     0.124 C
HETATM   13  C19 UNL     1       2.591  -4.479   1.311  1.00  0.00     0.038 C
HETATM   14  C20 UNL     1       1.417  -5.032   2.117  1.00  0.00     0.003 C
ENDROOT
BRANCH   1  15
HETATM   15  C5  UNL     1       2.047  -5.817   7.027  1.00  0.00     0.151 C
BRANCH  15  16
HETATM   16  N2  UNL     1       3.298  -6.283   7.483  1.00  0.00    -0.406 N
HETATM   17  C4  UNL     1       3.376  -6.867   8.766  1.00  0.00     0.137 C
HETATM   18  C3  UNL     1       4.789  -6.630   9.326  1.00  0.00     0.141 C
HETATM   19  N1  UNL     1       5.738  -7.109   8.403  1.00  0.00    -0.391 N
HETATM   20  C22 UNL     1       5.585  -6.778   7.040  1.00  0.00     0.141 C
HETATM   21  C21 UNL     1       4.471  -5.730   6.917  1.00  0.00     0.137 C
BRANCH  19  22
HETATM   22  C2  UNL     1       7.046  -7.339   8.868  1.00  0.00     0.054 C
HETATM   23  C1  UNL     1       7.046  -7.741  10.317  1.00  0.00     0.054 C
ENDBRANCH  19  22
ENDBRANCH  15  16
ENDBRANCH   1  15
BRANCH   7  24
HETATM   24  O1  UNL     1       0.882  -8.646   2.614  1.00  0.00    -0.395 OA
ATOM     25  H1  UNL     1       1.473  -9.377   2.751  1.00  0.00     0.210 HD
ENDBRANCH   7  24
BRANCH  12  26
HETATM   26  O3  UNL     1       3.165  -3.932  -0.895  1.00  0.00    -0.395 OA
ATOM     27  H3  UNL     1       3.765  -3.369  -0.420  1.00  0.00     0.210 HD
ENDBRANCH  12  26
BRANCH  11  28
HETATM   28  C17 UNL     1       2.073  -6.179  -1.906  1.00  0.00     0.171 C
BRANCH  28  29
HETATM   29  O2  UNL     1       3.366  -6.610  -2.001  1.00  0.00    -0.400 OA
ATOM     30  H2  UNL     1       3.791  -6.495  -2.843  1.00  0.00     0.209 HD
ENDBRANCH  28  29
ENDBRANCH  11  28
TORSDOF 7
ENDMDL