MODEL 5
REMARK VINA RESULT: -7.885456298      1.954      2.830
REMARK  6 active torsions:
REMARK  status: ('A' for Active; 'I' for Inactive)
REMARK    1  A    between atoms: C2_2  and  S1_3
REMARK    2  A    between atoms: S1_3  and  C3_4
REMARK    3  A    between atoms: C3_4  and  C4_5
REMARK       I    between atoms: C4_5  and  N1_7
REMARK    4  A    between atoms: N1_7  and  C5_9
REMARK    5  A    between atoms: N4_15  and  C7_17
REMARK    6  A    between atoms: C15_25  and  O2_26
ROOT
HETATM    1  C5  UNL     1       6.926  -6.788   8.289  1.00  0.00     0.169 A
HETATM    2  N2  UNL     1       6.863  -6.691   6.963  1.00  0.00    -0.277 N
ATOM      3  H2  UNL     1       7.691  -6.855   6.390  1.00  0.00     0.189 HD
HETATM    4  N3  UNL     1       5.736  -6.386   6.416  1.00  0.00    -0.278 N
ATOM      5  H3  UNL     1       5.664  -6.306   5.402  1.00  0.00     0.189 HD
HETATM    6  C6  UNL     1       4.674  -6.179   7.176  1.00  0.00     0.163 A
HETATM    7  N4  UNL     1       3.450  -5.872   6.951  1.00  0.00    -0.360 N
ATOM      8  H4  UNL     1       2.888  -5.790   7.798  1.00  0.00     0.162 HD
HETATM    9  S2  UNL     1       5.327  -6.433   8.753  1.00  0.00    -0.015 SA
ENDROOT
BRANCH   7  10
HETATM   10  C7  UNL     1       2.733  -5.627   5.781  1.00  0.00     0.039 C
HETATM   11  C8  UNL     1       3.595  -4.890   4.762  1.00  0.00     0.036 C
HETATM   12  C9  UNL     1       2.975  -4.754   3.425  1.00  0.00    -0.009 C
HETATM   13  C10 UNL     1       2.477  -3.306   3.301  1.00  0.00     0.005 C
HETATM   14  C16 UNL     1       1.886  -5.673   3.067  1.00  0.00     0.042 C
HETATM   15  C11 UNL     1       1.249  -3.107   4.152  1.00  0.00     0.001 C
HETATM   16  C12 UNL     1       1.448  -3.457   5.580  1.00  0.00     0.007 C
HETATM   17  C13 UNL     1       1.415  -4.915   5.916  1.00  0.00     0.016 C
HETATM   18  C14 UNL     1       0.441  -5.718   5.130  1.00  0.00     0.045 C
HETATM   19  C15 UNL     1       1.289  -6.473   4.171  1.00  0.00     0.061 C
HETATM   20  C17 UNL     1       2.426  -6.948   5.090  1.00  0.00     0.069 C
BRANCH  19  21
HETATM   21  O2  UNL     1       0.689  -7.596   3.635  1.00  0.00    -0.390 OA
ATOM     22  H2  UNL     1       1.021  -7.852   2.782  1.00  0.00     0.210 HD
ENDBRANCH  19  21
ENDBRANCH   7  10
BRANCH   1  23
HETATM   23  N1  UNL     1       7.972  -7.085   9.028  1.00  0.00    -0.305 N
HETATM   24  C4  UNL     1       9.019  -7.845   8.477  1.00  0.00     0.232 C
HETATM   25  O1  UNL     1       9.686  -7.470   7.470  1.00  0.00    -0.272 OA
ATOM     26  H1  UNL     1       8.024  -6.766   9.996  1.00  0.00     0.171 HD
BRANCH  24  27
HETATM   27  C3  UNL     1       9.342  -9.145   9.121  1.00  0.00     0.177 C
BRANCH  27  28
HETATM   28  S1  UNL     1      10.364  -8.868  10.587  1.00  0.00    -0.160 SA
BRANCH  28  29
HETATM   29  C2  UNL     1      11.973  -8.200  10.169  1.00  0.00     0.070 C
HETATM   30  C1  UNL     1      13.120  -8.966  10.779  1.00  0.00     0.016 C
ENDBRANCH  28  29
ENDBRANCH  27  28
ENDBRANCH  24  27
ENDBRANCH   1  23
TORSDOF 6
ENDMDL