MODEL 4
REMARK VINA RESULT: -8.074953841      1.543      2.038
REMARK  6 active torsions:
REMARK  status: ('A' for Active; 'I' for Inactive)
REMARK    1  A    between atoms: O1_2  and  C2_3
REMARK    2  A    between atoms: C4_5  and  N1_6
REMARK    3  A    between atoms: N1_6  and  C5_8
REMARK    4  A    between atoms: C11_18  and  N4_19
REMARK       I    between atoms: N4_19  and  C12_21
REMARK    5  A    between atoms: C16_27  and  O3_28
REMARK    6  A    between atoms: C18_30  and  O4_31
ROOT
HETATM    1  C5  UNL     1      10.766  -9.100   8.383  1.00  0.00     0.047 A
HETATM    2  C6  UNL     1      12.004  -9.174   8.986  1.00  0.00     0.055 A
HETATM    3  C7  UNL     1      12.156  -8.780  10.322  1.00  0.00     0.008 A
HETATM    4  C8  UNL     1      13.482  -8.849  10.996  1.00  0.00     0.068 C
HETATM    5  N2  UNL     1      11.100  -8.330  11.018  1.00  0.00    -0.358 N
ATOM      6  H2  UNL     1      11.231  -8.049  11.989  1.00  0.00     0.166 HD
HETATM    7  C9  UNL     1       9.875  -8.241  10.473  1.00  0.00     0.060 A
HETATM    8  C10 UNL     1       8.814  -7.776  11.217  1.00  0.00     0.120 A
HETATM    9  N3  UNL     1       7.610  -7.705  10.628  1.00  0.00    -0.350 N
ATOM     10  H3  UNL     1       6.812  -7.363  11.163  1.00  0.00     0.166 HD
HETATM   11  C11 UNL     1       7.431  -8.080   9.331  1.00  0.00     0.109 A
HETATM   12  C13 UNL     1       8.481  -8.549   8.571  1.00  0.00     0.064 A
HETATM   13  C14 UNL     1       9.714  -8.632   9.141  1.00  0.00     0.022 A
ENDROOT
BRANCH   1  14
HETATM   14  N1  UNL     1      10.571  -9.449   7.157  1.00  0.00    -0.355 N
ATOM     15  H1  UNL     1       9.971  -8.854   6.586  1.00  0.00     0.166 HD
BRANCH  14  16
HETATM   16  C4  UNL     1      11.124 -10.586   6.554  1.00  0.00     0.038 A
HETATM   17  C3  UNL     1      10.984 -10.884   5.214  1.00  0.00     0.069 A
HETATM   18  C2  UNL     1      11.536 -12.008   4.637  1.00  0.00     0.106 A
HETATM   19  C18 UNL     1      12.267 -12.897   5.402  1.00  0.00     0.135 A
HETATM   20  C16 UNL     1      12.418 -12.617   6.743  1.00  0.00     0.106 A
HETATM   21  C15 UNL     1      11.856 -11.485   7.300  1.00  0.00     0.069 A
BRANCH  18  22
HETATM   22  O1  UNL     1      11.361 -12.250   3.292  1.00  0.00    -0.353 OA
HETATM   23  C1  UNL     1      10.152 -12.815   2.849  1.00  0.00     0.210 C
ENDBRANCH  18  22
BRANCH  19  24
HETATM   24  O4  UNL     1      12.813 -14.023   4.795  1.00  0.00    -0.351 OA
HETATM   25  C19 UNL     1      14.130 -14.034   4.272  1.00  0.00     0.210 C
ENDBRANCH  19  24
BRANCH  20  26
HETATM   26  O3  UNL     1      13.156 -13.510   7.530  1.00  0.00    -0.353 OA
HETATM   27  C17 UNL     1      14.351 -13.032   8.117  1.00  0.00     0.210 C
ENDBRANCH  20  26
ENDBRANCH  14  16
ENDBRANCH   1  14
BRANCH  11  28
HETATM   28  N4  UNL     1       6.263  -8.002   8.794  1.00  0.00    -0.297 N
HETATM   29  C12 UNL     1       5.711  -6.730   8.520  1.00  0.00     0.334 C
HETATM   30  N5  UNL     1       4.912  -6.097   9.502  1.00  0.00    -0.040 NA
HETATM   31  O2  UNL     1       5.914  -6.154   7.428  1.00  0.00    -0.251 OA
ATOM     32  H4  UNL     1       5.741  -8.849   8.569  1.00  0.00     0.171 HD
ENDBRANCH  11  28
TORSDOF 6
ENDMDL