MODEL 1
REMARK VINA RESULT: -7.407246888      0.000      0.000
REMARK  7 active torsions:
REMARK  status: ('A' for Active; 'I' for Inactive)
REMARK    1  A    between atoms: C4_4  and  N1_5
REMARK    2  A    between atoms: N1_5  and  C5_7
REMARK    3  A    between atoms: N3_16  and  O1_17
REMARK    4  A    between atoms: C12_20  and  N4_21
REMARK    5  A    between atoms: N4_21  and  C14_23
REMARK    6  A    between atoms: C14_23  and  C15_24
REMARK    7  A    between atoms: C15_24  and  O2_25
ROOT
HETATM    1  C5  UNL     1       1.427  -3.039   4.550  1.00  0.00     0.144 A
HETATM    2  C6  UNL     1       0.834  -3.564   3.353  1.00  0.00     0.051 A
HETATM    3  C7  UNL     1       0.568  -4.867   3.048  1.00  0.00    -0.028 A
HETATM    4  C8  UNL     1      -0.017  -5.100   1.817  1.00  0.00    -0.006 A
HETATM    5  S1  UNL     1      -0.172  -3.557   1.146  1.00  0.00    -0.075 SA
HETATM    6  C9  UNL     1       0.498  -2.633   2.418  1.00  0.00     0.090 A
HETATM    7  N2  UNL     1       0.712  -1.296   2.607  1.00  0.00    -0.344 N
ATOM      8  H2  UNL     1       0.443  -0.637   1.876  1.00  0.00     0.167 HD
HETATM    9  C10 UNL     1       1.266  -0.837   3.730  1.00  0.00     0.216 A
HETATM   10  N3  UNL     1       1.612  -1.716   4.679  1.00  0.00    -0.203 N
HETATM   11  C11 UNL     1      -0.347  -6.519   1.414  1.00  0.00     0.082 C
HETATM   12  C12 UNL     1       0.878  -7.406   1.594  1.00  0.00     0.227 C
HETATM   13  C16 UNL     1       1.673  -6.988   2.801  1.00  0.00     0.041 C
HETATM   14  C17 UNL     1       0.775  -6.198   3.765  1.00  0.00     0.043 C
ENDROOT
BRANCH   1  15
HETATM   15  N1  UNL     1       1.756  -3.793   5.444  1.00  0.00    -0.367 N
ATOM     16  H1  UNL     1       0.875  -3.911   5.946  1.00  0.00     0.161 HD
BRANCH  15  17
HETATM   17  C4  UNL     1       2.592  -4.572   6.175  1.00  0.00     0.111 C
HETATM   18  C3  UNL     1       2.065  -5.671   7.046  1.00  0.00     0.059 C
HETATM   19  C2  UNL     1       3.288  -6.550   7.252  1.00  0.00     0.184 C
HETATM   20  C1  UNL     1       3.593  -6.794   8.711  1.00  0.00     0.040 C
HETATM   21  N5  UNL     1       4.422  -5.816   6.683  1.00  0.00    -0.069 N
HETATM   22  C18 UNL     1       3.761  -5.261   5.470  1.00  0.00     0.257 C
ATOM     23  H52 UNL     1       4.875  -5.139   7.298  1.00  0.00     0.277 HD
ATOM     24  H51 UNL     1       5.274  -6.354   6.525  1.00  0.00     0.277 HD
ENDBRANCH  15  17
ENDBRANCH   1  15
BRANCH  10  25
HETATM   25  O1  UNL     1       2.186  -1.170   5.833  1.00  0.00    -0.280 OA
ATOM     26  H1  UNL     1       2.445  -0.257   5.872  1.00  0.00     0.245 HD
ENDBRANCH  10  25
BRANCH  12  27
HETATM   27  N4  UNL     1       1.597  -7.383   0.358  1.00  0.00     0.091 N
HETATM   28  C13 UNL     1       1.400  -8.657  -0.286  1.00  0.00     0.310 C
BRANCH  27  29
HETATM   29  C14 UNL     1       2.975  -7.008   0.489  1.00  0.00     0.298 C
BRANCH  29  30
HETATM   30  C15 UNL     1       3.935  -8.003  -0.061  1.00  0.00     0.194 C
BRANCH  30  31
HETATM   31  O2  UNL     1       4.690  -8.534   0.992  1.00  0.00    -0.399 OA
ATOM     32  H2  UNL     1       5.610  -8.507   0.755  1.00  0.00     0.209 HD
ENDBRANCH  30  31
ENDBRANCH  29  30
ENDBRANCH  27  29
ENDBRANCH  12  27
TORSDOF 7
ENDMDL