MODEL 4
REMARK VINA RESULT: -7.502346062      3.701      6.747
REMARK  5 active torsions:
REMARK  status: ('A' for Active; 'I' for Inactive)
REMARK    1  A    between atoms: C6_8  and  N2_9
REMARK    2  A    between atoms: N2_9  and  S1_11
REMARK    3  A    between atoms: S1_11  and  C7_14
REMARK    4  A    between atoms: C8_15  and  N3_16
REMARK    5  A    between atoms: C12_25  and  C13_26
ROOT
HETATM    1  C7  UNL     1      12.520 -12.385   5.722  1.00  0.00     0.130 A
HETATM    2  C8  UNL     1      13.738 -12.984   5.746  1.00  0.00     0.128 A
HETATM    3  N4  UNL     1      14.214 -13.588   4.619  1.00  0.00    -0.327 N
ATOM      4  H4  UNL     1      15.130 -14.035   4.646  1.00  0.00     0.169 HD
HETATM    5  C11 UNL     1      13.520 -13.611   3.490  1.00  0.00     0.107 A
HETATM    6  N5  UNL     1      13.954 -14.171   2.432  1.00  0.00    -0.385 N
ATOM      7  H51 UNL     1      13.421 -14.189   1.563  1.00  0.00     0.157 HD
ATOM      8  H52 UNL     1      14.872 -14.613   2.480  1.00  0.00     0.157 HD
HETATM    9  C12 UNL     1      12.240 -12.994   3.424  1.00  0.00    -0.003 A
HETATM   10  C16 UNL     1      11.751 -12.380   4.544  1.00  0.00    -0.025 A
HETATM   11  C17 UNL     1      10.505 -11.585   4.626  1.00  0.00     0.050 C
ENDROOT
BRANCH   1  12
HETATM   12  S1  UNL     1      11.865 -11.670   7.150  1.00  0.00     0.280 S
HETATM   13  O1  UNL     1      11.861 -12.743   8.246  1.00  0.00    -0.200 OA
HETATM   14  O2  UNL     1      10.386 -11.341   7.013  1.00  0.00    -0.200 OA
BRANCH  12  15
HETATM   15  N2  UNL     1      12.754 -10.374   7.736  1.00  0.00    -0.112 N
ATOM     16  H2  UNL     1      13.567 -10.121   7.172  1.00  0.00     0.197 HD
BRANCH  15  17
HETATM   17  C6  UNL     1      12.575  -9.652   8.776  1.00  0.00     0.692 A
HETATM   18  N1  UNL     1      13.463  -8.751   9.218  1.00  0.00    -0.195 N
HETATM   19  C4  UNL     1      13.221  -7.995  10.309  1.00  0.00     0.024 A
ATOM     20  H1  UNL     1      14.344  -8.634   8.717  1.00  0.00     0.184 HD
HETATM   21  C3  UNL     1      12.050  -8.115  11.014  1.00  0.00     0.050 A
HETATM   22  C5  UNL     1      14.252  -7.023  10.759  1.00  0.00     0.068 C
HETATM   23  C2  UNL     1      11.143  -9.042  10.553  1.00  0.00     0.024 A
HETATM   24  C1  UNL     1       9.839  -9.202  11.275  1.00  0.00     0.068 C
HETATM   25  N6  UNL     1      11.398  -9.782   9.475  1.00  0.00    -0.195 N
ATOM     26  H6  UNL     1      10.704 -10.462   9.162  1.00  0.00     0.184 HD
ENDBRANCH  15  17
ENDBRANCH  12  15
ENDBRANCH   1  12
BRANCH   2  27
HETATM   27  N3  UNL     1      14.558 -13.019   6.883  1.00  0.00    -0.375 N
HETATM   28  C9  UNL     1      14.480 -14.139   7.784  1.00  0.00     0.150 C
HETATM   29  C10 UNL     1      15.491 -11.960   7.148  1.00  0.00     0.150 C
ENDBRANCH   2  27
BRANCH   9  30
HETATM   30  C13 UNL     1      11.523 -13.059   2.140  1.00  0.00     0.023 A
HETATM   31  C14 UNL     1      10.086 -12.893   1.982  1.00  0.00     0.010 A
HETATM   32  C15 UNL     1      10.732 -14.252   1.707  1.00  0.00     0.010 A
ENDBRANCH   9  30
TORSDOF 5
ENDMDL