MODEL 4
REMARK VINA RESULT: -6.178437869      3.165      6.915
REMARK  6 active torsions:
REMARK  status: ('A' for Active; 'I' for Inactive)
REMARK    1  A    between atoms: C2_2  and  N1_3
REMARK    2  A    between atoms: N1_3  and  C3_6
REMARK    3  A    between atoms: C3_6  and  C4_7
REMARK    4  A    between atoms: N2_9  and  C5_11
REMARK    5  A    between atoms: C6_14  and  N4_15
REMARK    6  A    between atoms: C11_24  and  N6_25
ROOT
HETATM    1  C5  UNL     1       1.531  -3.793   3.144  1.00  0.00     0.137 A
HETATM    2  N3  UNL     1       1.556  -2.603   3.762  1.00  0.00    -0.176 N
ATOM      3  H3  UNL     1       1.446  -1.781   3.169  1.00  0.00     0.186 HD
HETATM    4  C6  UNL     1       1.708  -2.376   5.069  1.00  0.00     0.680 A
HETATM    5  N5  UNL     1       1.851  -3.455   5.841  1.00  0.00    -0.184 N
ATOM      6  H5  UNL     1       1.971  -3.346   6.847  1.00  0.00     0.185 HD
HETATM    7  C8  UNL     1       1.837  -4.703   5.293  1.00  0.00     0.107 A
HETATM    8  S2  UNL     1       1.989  -6.256   5.989  1.00  0.00    -0.073 SA
HETATM    9  C9  UNL     1       1.855  -7.202   4.595  1.00  0.00     0.008 A
HETATM   10  C10 UNL     1       1.894  -8.705   4.440  1.00  0.00     0.059 C
HETATM   11  C11 UNL     1       1.690  -6.263   3.583  1.00  0.00     0.060 A
HETATM   12  C16 UNL     1       1.683  -4.968   3.962  1.00  0.00     0.070 A
ENDROOT
BRANCH   1  13
HETATM   13  N2  UNL     1       1.388  -3.937   1.917  1.00  0.00    -0.334 N
HETATM   14  C4  UNL     1       0.735  -3.436   0.847  1.00  0.00     0.104 C
HETATM   15  S1  UNL     1       0.713  -4.263  -0.624  1.00  0.00    -0.064 SA
ATOM     16  H2  UNL     1       1.976  -4.711   1.608  1.00  0.00     0.168 HD
BRANCH  14  17
HETATM   17  C3  UNL     1      -0.047  -2.183   0.821  1.00  0.00     0.301 C
BRANCH  17  18
HETATM   18  N1  UNL     1      -1.354  -2.296   1.437  1.00  0.00    -0.070 N
ATOM     19  H12 UNL     1      -1.519  -3.249   1.764  1.00  0.00     0.277 HD
ATOM     20  H11 UNL     1      -2.092  -2.228   0.736  1.00  0.00     0.277 HD
BRANCH  18  21
HETATM   21  C2  UNL     1      -1.571  -1.343   2.505  1.00  0.00     0.228 C
HETATM   22  C1  UNL     1      -2.872  -0.559   2.201  1.00  0.00     0.034 C
ENDBRANCH  18  21
ENDBRANCH  17  18
ENDBRANCH  14  17
ENDBRANCH   1  13
BRANCH   4  23
HETATM   23  N4  UNL     1       1.716  -1.175   5.544  1.00  0.00    -0.230 N
HETATM   24  C7  UNL     1       1.493  -0.079   4.625  1.00  0.00     0.165 C
ATOM     25  H4  UNL     1       1.875  -1.005   6.537  1.00  0.00     0.177 HD
ENDBRANCH   4  23
BRANCH  11  26
HETATM   26  N6  UNL     1       1.546  -6.756   2.199  1.00  0.00    -0.375 N
HETATM   27  C12 UNL     1       2.692  -6.882   1.360  1.00  0.00     0.149 C
HETATM   28  C13 UNL     1       2.512  -8.206   0.587  1.00  0.00     0.187 C
HETATM   29  O1  UNL     1       1.427  -8.013  -0.227  1.00  0.00    -0.388 OA
HETATM   30  C14 UNL     1       0.244  -7.803   0.414  1.00  0.00     0.187 C
HETATM   31  C15 UNL     1       0.248  -7.159   1.740  1.00  0.00     0.149 C
ENDBRANCH  11  26
TORSDOF 6
ENDMDL