MODEL 2
REMARK VINA RESULT: -9.164002804      1.063      1.211
REMARK  5 active torsions:
REMARK  status: ('A' for Active; 'I' for Inactive)
REMARK    1  A    between atoms: C2_2  and  C3_3
REMARK    2  A    between atoms: N2_8  and  C6_10
REMARK    3  A    between atoms: C9_13  and  N3_14
REMARK    4  A    between atoms: C13_18  and  N4_19
REMARK    5  A    between atoms: N4_19  and  C14_20
ROOT
HETATM    1  C3  UNL     1      12.027  -9.329   8.730  1.00  0.00    -0.002 A
HETATM    2  C4  UNL     1      13.152  -9.981   8.356  1.00  0.00     0.100 A
HETATM    3  N1  UNL     1      13.148 -10.968   7.457  1.00  0.00    -0.352 N
ATOM      4  H1  UNL     1      14.037 -11.414   7.227  1.00  0.00     0.166 HD
HETATM    5  C5  UNL     1      12.039 -11.406   6.839  1.00  0.00     0.104 A
HETATM    6  N2  UNL     1      12.005 -12.337   6.017  1.00  0.00    -0.370 N
ATOM      7  H2  UNL     1      11.037 -12.446   5.713  1.00  0.00     0.161 HD
HETATM    8  C12 UNL     1      10.879 -10.745   7.210  1.00  0.00     0.093 A
HETATM    9  C13 UNL     1      10.813  -9.701   8.147  1.00  0.00     0.122 A
ENDROOT
BRANCH   9  10
HETATM   10  N4  UNL     1       9.697  -9.084   8.471  1.00  0.00    -0.370 NA
BRANCH  10  11
HETATM   11  C14 UNL     1       8.678  -8.523   8.763  1.00  0.00     0.259 A
HETATM   12  N5  UNL     1       8.154  -8.513  10.028  1.00  0.00    -0.326 N
HETATM   13  C15 UNL     1       7.055  -7.921  10.422  1.00  0.00     0.103 A
ATOM     14  H5  UNL     1       8.677  -9.022  10.741  1.00  0.00     0.169 HD
HETATM   15  C16 UNL     1       6.332  -7.223   9.458  1.00  0.00     0.005 A
HETATM   16  C17 UNL     1       6.803  -7.193   8.168  1.00  0.00     0.022 A
HETATM   17  C21 UNL     1       5.119  -6.591  10.037  1.00  0.00     0.274 C
HETATM   18  N6  UNL     1       7.931  -7.819   7.835  1.00  0.00    -0.319 N
HETATM   19  C18 UNL     1       6.162  -6.487   7.008  1.00  0.00     0.059 C
ATOM     20  H6  UNL     1       8.253  -7.778   6.869  1.00  0.00     0.170 HD
HETATM   21  C19 UNL     1       4.683  -6.786   6.915  1.00  0.00     0.033 C
HETATM   22  C20 UNL     1       3.887  -6.201   8.062  1.00  0.00     0.233 C
HETATM   23  N7  UNL     1       3.979  -7.018   9.247  1.00  0.00    -0.071 N
ATOM     24  H72 UNL     1       3.113  -7.016   9.786  1.00  0.00     0.277 HD
ATOM     25  H71 UNL     1       4.011  -8.014   9.029  1.00  0.00     0.277 HD
ENDBRANCH  10  11
ENDBRANCH   9  10
BRANCH   1  26
HETATM   26  C2  UNL     1      12.129  -8.271   9.790  1.00  0.00     0.039 C
HETATM   27  C1  UNL     1      13.164  -8.703  10.805  1.00  0.00     0.010 C
ENDBRANCH   1  26
BRANCH   6  28
HETATM   28  C6  UNL     1      12.756 -13.276   5.359  1.00  0.00     0.105 C
HETATM   29  C7  UNL     1      13.464 -13.045   4.074  1.00  0.00     0.029 C
HETATM   30  C8  UNL     1      14.828 -13.048   4.750  1.00  0.00     0.029 C
HETATM   31  C9  UNL     1      14.142 -13.581   5.998  1.00  0.00     0.101 C
BRANCH  31  32
HETATM   32  N3  UNL     1      14.396 -14.911   6.329  1.00  0.00    -0.415 N
HETATM   33  C10 UNL     1      15.288 -15.705   5.615  1.00  0.00     0.143 C
HETATM   34  C11 UNL     1      14.221 -15.286   7.679  1.00  0.00     0.143 C
ENDBRANCH  31  32
ENDBRANCH   6  28
TORSDOF 5
ENDMDL