MODEL 4
REMARK VINA RESULT: -6.097864589      6.217     10.124
REMARK  7 active torsions:
REMARK  status: ('A' for Active; 'I' for Inactive)
REMARK    1  A    between atoms: C2_2  and  C3_3
REMARK       I    between atoms: C3_3  and  N1_5
REMARK    2  A    between atoms: N1_5  and  C4_7
REMARK    3  A    between atoms: C13_18  and  O2_19
REMARK    4  A    between atoms: N3_23  and  C16_24
REMARK    5  A    between atoms: C16_24  and  C17_25
REMARK    6  A    between atoms: C17_25  and  C18_26
REMARK    7  A    between atoms: C18_26  and  N4_27
ROOT
HETATM    1  C4  UNL     1       3.845  -5.531   6.112  1.00  0.00     0.098 A
HETATM    2  S1  UNL     1       5.452  -6.087   5.951  1.00  0.00    -0.075 SA
HETATM    3  C5  UNL     1       5.639  -6.810   7.477  1.00  0.00    -0.007 A
HETATM    4  C6  UNL     1       4.436  -6.598   8.077  1.00  0.00    -0.021 A
HETATM    5  C7  UNL     1       3.490  -5.928   7.368  1.00  0.00     0.085 A
HETATM    6  C8  UNL     1       2.133  -5.621   7.885  1.00  0.00     0.103 C
HETATM    7  N2  UNL     1       1.073  -5.399   8.301  1.00  0.00    -0.191 NA
HETATM    8  C9  UNL     1       4.358  -7.170   9.490  1.00  0.00     0.041 C
HETATM    9  C10 UNL     1       5.556  -6.589  10.208  1.00  0.00     0.005 C
HETATM   10  C11 UNL     1       6.856  -7.066   9.610  1.00  0.00     0.005 C
HETATM   11  C12 UNL     1       6.738  -7.549   8.209  1.00  0.00     0.047 C
ENDROOT
BRANCH   1  12
HETATM   12  N1  UNL     1       3.034  -4.808   5.155  1.00  0.00    -0.318 N
HETATM   13  C3  UNL     1       2.122  -5.508   4.321  1.00  0.00     0.262 C
HETATM   14  O1  UNL     1       2.080  -6.757   4.478  1.00  0.00    -0.270 OA
ATOM     15  H1  UNL     1       3.118  -3.794   5.080  1.00  0.00     0.169 HD
BRANCH  13  16
HETATM   16  C2  UNL     1       1.295  -4.766   3.343  1.00  0.00     0.236 C
HETATM   17  C1  UNL     1       0.021  -4.261   3.915  1.00  0.00     0.061 C
HETATM   18  C13 UNL     1       2.153  -3.652   2.752  1.00  0.00     0.103 C
HETATM   19  C14 UNL     1       1.210  -3.145   1.704  1.00  0.00     0.069 C
HETATM   20  C20 UNL     1       3.225  -4.473   2.123  1.00  0.00     0.069 C
HETATM   21  C15 UNL     1       0.496  -4.440   1.284  1.00  0.00     0.242 C
HETATM   22  N3  UNL     1       1.089  -5.500   2.103  1.00  0.00    -0.046 N
HETATM   23  C19 UNL     1       2.412  -5.663   1.590  1.00  0.00     0.242 C
BRANCH  18  24
HETATM   24  O2  UNL     1       2.562  -2.734   3.662  1.00  0.00    -0.387 OA
ATOM     25  H2  UNL     1       2.380  -1.836   3.410  1.00  0.00     0.210 HD
ENDBRANCH  18  24
BRANCH  22  26
HETATM   26  C16 UNL     1       0.269  -6.623   2.238  1.00  0.00     0.241 C
BRANCH  26  27
HETATM   27  C17 UNL     1       0.255  -7.623   1.152  1.00  0.00     0.055 C
BRANCH  27  28
HETATM   28  C18 UNL     1       0.681  -9.020   1.496  1.00  0.00     0.231 C
BRANCH  28  29
HETATM   29  N4  UNL     1       1.214  -9.132   2.847  1.00  0.00    -0.079 N
ATOM     30  H43 UNL     1       1.930  -8.425   3.017  1.00  0.00     0.274 HD
ATOM     31  H42 UNL     1       0.523  -8.837   3.537  1.00  0.00     0.274 HD
ATOM     32  H41 UNL     1       1.565 -10.065   3.057  1.00  0.00     0.274 HD
ENDBRANCH  28  29
ENDBRANCH  27  28
ENDBRANCH  26  27
ENDBRANCH  22  26
ENDBRANCH  13  16
ENDBRANCH   1  12
TORSDOF 7
ENDMDL