MODEL 4
REMARK VINA RESULT: -10.152909310      1.225      1.819
REMARK  6 active torsions:
REMARK  status: ('A' for Active; 'I' for Inactive)
REMARK    1  A    between atoms: C7_7  and  C8_8
REMARK    2  A    between atoms: C8_8  and  C9_9
REMARK    3  A    between atoms: C9_9  and  N1_10
REMARK    4  A    between atoms: N1_10  and  C11_13
REMARK    5  A    between atoms: C11_13  and  N3_15
REMARK    6  A    between atoms: N3_15  and  C12_17
ROOT
HETATM    1  N1  UNL     1      11.505  -9.625   8.824  1.00  0.00    -0.238 N
HETATM    2  C10 UNL     1      10.929  -9.579  10.110  1.00  0.00     0.190 C
HETATM    3  N2  UNL     1      10.428  -9.548  11.175  1.00  0.00    -0.171 NA
ENDROOT
BRANCH   1   4
HETATM    4  C9  UNL     1      12.672 -10.384   8.597  1.00  0.00     0.089 C
BRANCH   4   5
HETATM    5  C8  UNL     1      14.011  -9.890   8.909  1.00  0.00     0.089 C
BRANCH   5   6
HETATM    6  C7  UNL     1      14.626 -10.169  10.210  1.00  0.00    -0.001 A
HETATM    7  C5  UNL     1      14.579  -9.223  11.134  1.00  0.00    -0.070 A
HETATM    8  C4  UNL     1      15.161  -9.400  12.464  1.00  0.00     0.062 A
HETATM    9  C6  UNL     1      13.906  -7.907  10.827  1.00  0.00     0.044 C
HETATM   10  C3  UNL     1      15.726 -10.733  12.718  1.00  0.00    -0.012 A
HETATM   11  C2  UNL     1      15.787 -11.714  11.836  1.00  0.00    -0.015 A
HETATM   12  C1  UNL     1      16.389 -13.044  12.195  1.00  0.00     0.052 C
HETATM   13  C18 UNL     1      15.228 -11.457  10.520  1.00  0.00     0.184 A
HETATM   14  O2  UNL     1      15.279 -12.401   9.656  1.00  0.00    -0.287 OA
ENDBRANCH   5   6
ENDBRANCH   4   5
ENDBRANCH   1   4
BRANCH   1  15
HETATM   15  C11 UNL     1      10.841  -8.878   7.810  1.00  0.00     0.205 C
HETATM   16  S1  UNL     1      10.799  -9.516   6.316  1.00  0.00    -0.039 SA
BRANCH  15  17
HETATM   17  N3  UNL     1      10.223  -7.625   8.027  1.00  0.00    -0.165 N
ATOM     18  H3  UNL     1      10.827  -6.804   8.073  1.00  0.00     0.186 HD
BRANCH  17  19
HETATM   19  C12 UNL     1       8.972  -7.443   8.169  1.00  0.00     0.689 A
HETATM   20  N4  UNL     1       8.144  -6.956   7.239  1.00  0.00    -0.176 N
HETATM   21  C13 UNL     1       6.824  -6.776   7.413  1.00  0.00     0.128 A
ATOM     22  H4  UNL     1       8.542  -6.702   6.335  1.00  0.00     0.186 HD
HETATM   23  C14 UNL     1       6.277  -7.116   8.632  1.00  0.00     0.056 A
HETATM   24  N6  UNL     1       5.780  -6.271   6.554  1.00  0.00    -0.375 N
HETATM   25  C15 UNL     1       7.112  -7.623   9.611  1.00  0.00     0.269 A
HETATM   26  C16 UNL     1       4.817  -6.825   8.561  1.00  0.00     0.068 C
HETATM   27  O1  UNL     1       6.625  -7.942  10.742  1.00  0.00    -0.267 OA
HETATM   28  N5  UNL     1       8.417  -7.768   9.353  1.00  0.00    -0.155 N
ATOM     29  H5  UNL     1       9.019  -8.142  10.087  1.00  0.00     0.187 HD
HETATM   30  C17 UNL     1       4.563  -6.835   7.072  1.00  0.00     0.126 C
ATOM     31  H6  UNL     1       5.882  -5.649   5.753  1.00  0.00     0.161 HD
ENDBRANCH  17  19
ENDBRANCH  15  17
ENDBRANCH   1  15
TORSDOF 6
ENDMDL