MODEL 4
REMARK VINA RESULT: -8.038423155      1.816      3.438
REMARK  5 active torsions:
REMARK  status: ('A' for Active; 'I' for Inactive)
REMARK    1  A    between atoms: C4_6  and  C5_7
REMARK    2  A    between atoms: C7_9  and  O1_10
REMARK    3  A    between atoms: C9_12  and  O2_13
REMARK    4  A    between atoms: C10_15  and  O3_16
REMARK    5  A    between atoms: C15_24  and  C16_25
ROOT
HETATM    1  C1  UNL     1       9.592  -7.147   6.735  1.00  0.00     0.045 C
HETATM    2  C2  UNL     1       9.242  -7.679   7.883  1.00  0.00     0.050 A
HETATM    3  N1  UNL     1      10.258  -8.382   8.640  1.00  0.00    -0.351 N
ATOM      4  H1  UNL     1      11.201  -8.429   8.256  1.00  0.00     0.166 HD
HETATM    5  C3  UNL     1      10.015  -9.002   9.873  1.00  0.00     0.102 A
HETATM    6  C4  UNL     1      10.926  -9.610  10.560  1.00  0.00     0.046 C
HETATM    7  C13 UNL     1       8.648  -8.914  10.389  1.00  0.00     0.272 A
HETATM    8  O4  UNL     1       8.362  -9.453  11.496  1.00  0.00    -0.266 OA
HETATM    9  N2  UNL     1       7.623  -8.228   9.665  1.00  0.00    -0.320 N
ATOM     10  H2  UNL     1       6.681  -8.187  10.056  1.00  0.00     0.169 HD
HETATM   11  C14 UNL     1       7.884  -7.600   8.412  1.00  0.00     0.062 A
HETATM   12  C15 UNL     1       6.966  -6.933   7.747  1.00  0.00     0.045 C
ENDROOT
BRANCH   6  13
HETATM   13  C5  UNL     1      12.328  -9.794  10.260  1.00  0.00    -0.028 A
HETATM   14  C6  UNL     1      13.305  -9.369  11.172  1.00  0.00     0.051 A
HETATM   15  C7  UNL     1      14.647  -9.484  10.948  1.00  0.00     0.104 A
HETATM   16  C9  UNL     1      15.051 -10.053   9.749  1.00  0.00     0.133 A
HETATM   17  C10 UNL     1      14.104 -10.485   8.821  1.00  0.00     0.104 A
HETATM   18  C12 UNL     1      12.757 -10.354   9.080  1.00  0.00     0.051 A
BRANCH  15  19
HETATM   19  O1  UNL     1      15.635  -9.079  11.819  1.00  0.00    -0.353 OA
HETATM   20  C8  UNL     1      16.140  -9.802  12.900  1.00  0.00     0.210 C
ENDBRANCH  15  19
BRANCH  16  21
HETATM   21  O2  UNL     1      16.396 -10.208   9.440  1.00  0.00    -0.356 OA
ATOM     22  H2  UNL     1      16.681 -10.406   8.556  1.00  0.00     0.218 HD
ENDBRANCH  16  21
BRANCH  17  23
HETATM   23  O3  UNL     1      14.523 -11.051   7.627  1.00  0.00    -0.353 OA
HETATM   24  C11 UNL     1      14.415 -12.371   7.229  1.00  0.00     0.210 C
ENDBRANCH  17  23
ENDBRANCH   6  13
BRANCH  12  25
HETATM   25  C16 UNL     1       5.574  -6.778   8.155  1.00  0.00    -0.010 A
HETATM   26  C17 UNL     1       4.959  -7.111   9.341  1.00  0.00     0.030 A
HETATM   27  C18 UNL     1       3.628  -6.756   9.264  1.00  0.00     0.091 A
HETATM   28  N3  UNL     1       3.399  -6.202   8.039  1.00  0.00    -0.364 N
HETATM   29  C19 UNL     1       2.096  -5.700   7.593  1.00  0.00     0.155 C
HETATM   30  C20 UNL     1       4.546  -6.214   7.385  1.00  0.00     0.017 A
HETATM   31  C21 UNL     1       4.754  -5.697   6.005  1.00  0.00     0.069 C
ENDBRANCH  12  25
TORSDOF 5
ENDMDL