MODEL 5
REMARK VINA RESULT: -6.444782018      1.537      1.826
REMARK  11 active torsions:
REMARK  status: ('A' for Active; 'I' for Inactive)
REMARK    1  A    between atoms: N1_2  and  O3_4
REMARK    2  A    between atoms: O3_4  and  C1_5
REMARK    3  A    between atoms: C1_5  and  C2_6
REMARK    4  A    between atoms: C2_6  and  N2_7
REMARK    5  A    between atoms: C5_10  and  O4_11
REMARK    6  A    between atoms: C12_19  and  C13_20
REMARK    7  A    between atoms: C13_20  and  O5_21
REMARK    8  A    between atoms: C13_20  and  C14_23
REMARK    9  A    between atoms: C14_23  and  C15_24
REMARK   10  A    between atoms: C15_24  and  C16_25
REMARK   11  A    between atoms: C16_25  and  O6_26
ROOT
HETATM    1  C1  UNL     1       8.254   0.912  -0.717  1.00  0.00     0.127 C
HETATM    2  C10 UNL     1       9.640   0.262  -1.267  1.00  0.00     0.044 C
HETATM    3  C11 UNL     1       9.640   1.482  -2.152  1.00  0.00     0.013 C
HETATM    4  C12 UNL     1       8.095   1.345  -2.093  1.00  0.00     0.054 C
ENDROOT
BRANCH   1   5
HETATM    5  O3  UNL     1       8.802   1.984   0.084  1.00  0.00    -0.208 OA
BRANCH   5   6
HETATM    6  N1  UNL     1       8.952   1.970   1.427  1.00  0.00     0.005 N
HETATM    7  O1  UNL     1       9.997   1.406   1.904  1.00  0.00    -0.511 OA
HETATM    8  O2  UNL     1       8.109   2.492   2.364  1.00  0.00    -0.511 OA
ENDBRANCH   5   6
ENDBRANCH   1   5
BRANCH   1   9
HETATM    9  C2  UNL     1       7.562  -0.134   0.036  1.00  0.00     0.314 C
BRANCH   9  10
HETATM   10  N2  UNL     1       8.205  -1.345   0.336  1.00  0.00     0.099 N
HETATM   11  C3  UNL     1       8.470  -1.736   1.657  1.00  0.00     0.276 C
HETATM   12  C4  UNL     1       8.729  -3.254   1.605  1.00  0.00     0.070 C
HETATM   13  C5  UNL     1       7.714  -3.676   0.560  1.00  0.00     0.090 C
HETATM   14  C6  UNL     1       8.149  -4.848  -0.259  1.00  0.00     0.040 C
HETATM   15  C9  UNL     1       7.624  -2.479  -0.359  1.00  0.00     0.257 C
HETATM   16  C7  UNL     1       8.468  -4.340  -1.650  1.00  0.00     0.005 C
HETATM   17  C8  UNL     1       8.540  -2.834  -1.509  1.00  0.00     0.039 C
BRANCH  13  18
HETATM   18  O4  UNL     1       6.502  -3.981   1.167  1.00  0.00    -0.388 OA
ATOM     19  H4  UNL     1       5.885  -3.270   1.042  1.00  0.00     0.210 HD
ENDBRANCH  13  18
ENDBRANCH   9  10
ENDBRANCH   1   9
BRANCH   4  20
HETATM   20  C13 UNL     1       7.688   0.494  -3.230  1.00  0.00     0.125 C
BRANCH  20  21
HETATM   21  O5  UNL     1       7.854   1.378  -4.385  1.00  0.00    -0.395 OA
ATOM     22  H5  UNL     1       8.763   1.649  -4.321  1.00  0.00     0.210 HD
ENDBRANCH  20  21
BRANCH  20  23
HETATM   23  C14 UNL     1       6.258   0.040  -3.298  1.00  0.00     0.034 C
BRANCH  23  24
HETATM   24  C15 UNL     1       5.999  -1.346  -3.742  1.00  0.00     0.028 C
BRANCH  24  25
HETATM   25  C16 UNL     1       5.870  -1.609  -5.202  1.00  0.00     0.164 C
BRANCH  25  26
HETATM   26  O6  UNL     1       5.971  -0.429  -5.947  1.00  0.00    -0.401 OA
ATOM     27  H6  UNL     1       6.771   0.042  -5.745  1.00  0.00     0.209 HD
ENDBRANCH  25  26
ENDBRANCH  24  25
ENDBRANCH  23  24
ENDBRANCH  20  23
ENDBRANCH   4  20
TORSDOF 11
ENDMDL