MODEL 2
REMARK VINA RESULT: -6.019166909      2.585      3.807
REMARK  10 active torsions:
REMARK  status: ('A' for Active; 'I' for Inactive)
REMARK    1  A    between atoms: C2_9  and  S1_10
REMARK    2  A    between atoms: S1_10  and  C3_11
REMARK    3  A    between atoms: C3_11  and  C4_12
REMARK       I    between atoms: C4_12  and  N5_14
REMARK    4  A    between atoms: N5_14  and  N6_16
REMARK    5  A    between atoms: N6_16  and  C5_18
REMARK    6  A    between atoms: C5_18  and  N7_20
REMARK    7  A    between atoms: N7_20  and  C6_22
REMARK    8  A    between atoms: C6_22  and  C7_23
REMARK    9  A    between atoms: C7_23  and  C8_24
REMARK   10  A    between atoms: C8_24  and  C9_25
ROOT
HETATM    1  C4  UNL     1       6.773  -1.199   0.727  1.00  0.00     0.245 C
HETATM    2  O1  UNL     1       5.954  -0.570   0.014  1.00  0.00    -0.271 OA
HETATM    3  N5  UNL     1       7.921  -0.596   1.232  1.00  0.00    -0.267 N
ATOM      4  H5  UNL     1       8.555  -1.151   1.808  1.00  0.00     0.190 HD
ENDROOT
BRANCH   3   5
HETATM    5  N6  UNL     1       8.239   0.751   0.978  1.00  0.00    -0.274 N
ATOM      6  H6  UNL     1       7.831   1.492   1.547  1.00  0.00     0.189 HD
BRANCH   5   7
HETATM    7  C5  UNL     1       9.142   1.071  -0.089  1.00  0.00     0.186 C
HETATM    8  S2  UNL     1      10.729   0.750   0.170  1.00  0.00    -0.040 SA
BRANCH   7   9
HETATM    9  N7  UNL     1       8.741   1.633  -1.285  1.00  0.00    -0.366 N
ATOM     10  H7  UNL     1       8.710   2.647  -1.387  1.00  0.00     0.161 HD
BRANCH   9  11
HETATM   11  C6  UNL     1       8.355   0.768  -2.418  1.00  0.00     0.122 C
BRANCH  11  12
HETATM   12  C7  UNL     1       6.925   1.175  -2.811  1.00  0.00     0.020 C
BRANCH  12  13
HETATM   13  C8  UNL     1       6.754   1.055  -4.276  1.00  0.00     0.006 C
BRANCH  13  14
HETATM   14  C9  UNL     1       5.570   0.181  -4.655  1.00  0.00    -0.014 C
HETATM   15  C10 UNL     1       5.410  -0.946  -3.681  1.00  0.00     0.005 C
HETATM   16  C11 UNL     1       6.171  -1.831  -4.642  1.00  0.00     0.001 C
HETATM   17  C12 UNL     1       5.876  -0.834  -5.735  1.00  0.00     0.005 C
ENDBRANCH  13  14
ENDBRANCH  12  13
ENDBRANCH  11  12
ENDBRANCH   9  11
ENDBRANCH   7   9
ENDBRANCH   5   7
ENDBRANCH   3   5
BRANCH   1  18
HETATM   18  C3  UNL     1       6.513  -2.655   1.044  1.00  0.00     0.186 C
BRANCH  18  19
HETATM   19  S1  UNL     1       7.275  -3.750  -0.079  1.00  0.00    -0.082 SA
BRANCH  19  20
HETATM   20  C2  UNL     1       8.650  -3.215  -1.033  1.00  0.00     0.178 A
HETATM   21  N1  UNL     1       9.933  -2.976  -0.753  1.00  0.00    -0.259 N
HETATM   22  C1  UNL     1      10.557  -3.066   0.545  1.00  0.00     0.181 C
HETATM   23  N2  UNL     1      10.551  -2.599  -1.890  1.00  0.00    -0.224 N
HETATM   24  N3  UNL     1       9.685  -2.590  -2.868  1.00  0.00    -0.226 N
ATOM     25  H2  UNL     1      11.538  -2.357  -1.973  1.00  0.00     0.210 HD
HETATM   26  N4  UNL     1       8.534  -2.958  -2.375  1.00  0.00    -0.263 N
ATOM     27  H3  UNL     1       9.874  -2.342  -3.839  1.00  0.00     0.210 HD
ATOM     28  H4  UNL     1       7.671  -3.043  -2.912  1.00  0.00     0.190 HD
ENDBRANCH  19  20
ENDBRANCH  18  19
ENDBRANCH   1  18
TORSDOF 10
ENDMDL