MODEL 2
REMARK VINA RESULT: -6.252824901      1.079      1.541
REMARK  11 active torsions:
REMARK  status: ('A' for Active; 'I' for Inactive)
REMARK    1  A    between atoms: O1_1  and  C1_3
REMARK    2  A    between atoms: C3_6  and  O3_7
REMARK    3  A    between atoms: O3_7  and  C4_8
REMARK    4  A    between atoms: C4_8  and  C5_9
REMARK    5  A    between atoms: C5_9  and  C6_10
REMARK    6  A    between atoms: C6_10  and  C7_11
REMARK    7  A    between atoms: C7_11  and  C8_12
REMARK    8  A    between atoms: C8_12  and  C9_13
REMARK    9  A    between atoms: C9_13  and  C10_14
REMARK   10  A    between atoms: C16_23  and  O5_24
REMARK   11  A    between atoms: C17_26  and  O6_27
ROOT
HETATM    1  C4  UNL     1       8.463   1.560  -2.473  1.00  0.00     0.171 C
ENDROOT
BRANCH   1   2
HETATM    2  O3  UNL     1       8.642   1.996  -1.168  1.00  0.00    -0.359 OA
BRANCH   2   3
HETATM    3  C3  UNL     1       9.440   1.084  -0.498  1.00  0.00     0.290 C
HETATM    4  O2  UNL     1       8.881   0.826   0.751  1.00  0.00    -0.356 OA
HETATM    5  C2  UNL     1       9.629  -0.046   1.509  1.00  0.00     0.205 C
HETATM    6  C1  UNL     1      10.845  -0.583   0.792  1.00  0.00     0.173 C
HETATM    7  C17 UNL     1      11.701   0.550   0.317  1.00  0.00     0.182 C
HETATM    8  C16 UNL     1      10.842   1.617  -0.276  1.00  0.00     0.204 C
BRANCH   6   9
HETATM    9  O1  UNL     1      11.542  -1.369   1.724  1.00  0.00    -0.391 OA
ATOM     10  H1  UNL     1      11.981  -0.765   2.311  1.00  0.00     0.210 HD
ENDBRANCH   6   9
BRANCH   7  11
HETATM   11  O6  UNL     1      12.549   0.065  -0.700  1.00  0.00    -0.390 OA
ATOM     12  H6  UNL     1      12.515   0.673  -1.430  1.00  0.00     0.210 HD
ENDBRANCH   7  11
BRANCH   8  13
HETATM   13  O5  UNL     1      10.786   2.774   0.527  1.00  0.00    -0.388 OA
ATOM     14  H5  UNL     1      11.604   2.873   1.000  1.00  0.00     0.210 HD
ENDBRANCH   8  13
ENDBRANCH   2   3
ENDBRANCH   1   2
BRANCH   1  15
HETATM   15  C5  UNL     1       7.081   1.859  -2.992  1.00  0.00     0.026 C
BRANCH  15  16
HETATM   16  C6  UNL     1       6.939   1.478  -4.443  1.00  0.00     0.002 C
BRANCH  16  17
HETATM   17  C7  UNL     1       5.677   0.730  -4.732  1.00  0.00     0.000 C
BRANCH  17  18
HETATM   18  C8  UNL     1       5.843  -0.761  -4.696  1.00  0.00     0.006 C
BRANCH  18  19
HETATM   19  C9  UNL     1       5.471  -1.326  -3.360  1.00  0.00     0.052 C
BRANCH  19  20
HETATM   20  C10 UNL     1       6.750  -1.731  -2.671  1.00  0.00    -0.011 C
HETATM   21  N1  UNL     1       7.763  -2.271  -3.212  1.00  0.00    -0.395 N
HETATM   22  C11 UNL     1       8.815  -2.526  -2.260  1.00  0.00     0.126 C
ATOM     23  H1  UNL     1       7.826  -2.498  -4.205  1.00  0.00     0.159 HD
HETATM   24  C12 UNL     1       8.120  -2.454  -0.919  1.00  0.00     0.039 C
HETATM   25  C13 UNL     1       7.365  -3.746  -0.607  1.00  0.00     0.174 C
HETATM   26  C15 UNL     1       6.969  -1.528  -1.231  1.00  0.00     0.062 C
HETATM   27  O4  UNL     1       6.355  -3.235   0.239  1.00  0.00    -0.390 OA
HETATM   28  C14 UNL     1       5.864  -2.118  -0.384  1.00  0.00     0.178 C
ENDBRANCH  19  20
ENDBRANCH  18  19
ENDBRANCH  17  18
ENDBRANCH  16  17
ENDBRANCH  15  16
ENDBRANCH   1  15
TORSDOF 11
ENDMDL