MODEL 1
REMARK VINA RESULT: -6.740207455      0.000      0.000
REMARK  10 active torsions:
REMARK  status: ('A' for Active; 'I' for Inactive)
REMARK    1  A    between atoms: C3_3  and  O1_4
REMARK    2  A    between atoms: O1_4  and  C4_5
REMARK    3  A    between atoms: C5_6  and  O2_7
REMARK    4  A    between atoms: C7_10  and  N1_11
REMARK    5  A    between atoms: C9_13  and  C10_14
REMARK    6  A    between atoms: C10_14  and  C11_15
REMARK    7  A    between atoms: C11_15  and  C12_16
REMARK    8  A    between atoms: C12_16  and  C13_17
REMARK    9  A    between atoms: C13_17  and  C14_18
REMARK   10  A    between atoms: C18_26  and  O3_27
ROOT
HETATM    1  C1  UNL     1       6.678  -2.590   7.447  1.00  0.00     0.014 C
HETATM    2  C2  UNL     1       6.317  -3.358   6.594  1.00  0.00    -0.091 C
HETATM    3  C3  UNL     1       5.893  -4.305   5.576  1.00  0.00     0.261 C
ENDROOT
BRANCH   3   4
HETATM    4  O1  UNL     1       5.540  -3.726   4.369  1.00  0.00    -0.369 OA
BRANCH   4   5
HETATM    5  C4  UNL     1       6.110  -4.359   3.262  1.00  0.00     0.185 C
HETATM    6  C5  UNL     1       7.200  -3.691   2.658  1.00  0.00     0.152 C
HETATM    7  C6  UNL     1       8.202  -3.130   1.854  1.00  0.00     0.065 C
HETATM    8  C7  UNL     1       7.631  -2.952   0.418  1.00  0.00     0.132 C
HETATM    9  C16 UNL     1       6.241  -3.329   0.190  1.00  0.00     0.025 C
HETATM   10  C17 UNL     1       5.431  -4.366   0.773  1.00  0.00     0.053 C
HETATM   11  N4  UNL     1       5.730  -5.716   0.228  1.00  0.00    -0.104 NA
HETATM   12  C18 UNL     1       4.972  -4.434   2.194  1.00  0.00     0.196 C
BRANCH   6  13
HETATM   13  O2  UNL     1       6.372  -2.537   2.491  1.00  0.00    -0.393 OA
ATOM     14  H2  UNL     1       7.014  -2.025   2.968  1.00  0.00     0.210 HD
ENDBRANCH   6  13
BRANCH   8  15
HETATM   15  N1  UNL     1       7.851  -1.593  -0.038  1.00  0.00    -0.277 N
HETATM   16  C8  UNL     1       7.982  -1.171  -1.298  1.00  0.00     0.134 A
HETATM   17  C9  UNL     1       8.172   0.186  -1.223  1.00  0.00     0.040 A
HETATM   18  N2  UNL     1       8.154   0.576   0.051  1.00  0.00    -0.287 N
HETATM   19  N3  UNL     1       7.954  -0.537   0.773  1.00  0.00    -0.020 NA
ATOM     20  H2  UNL     1       8.269   1.526   0.404  1.00  0.00     0.184 HD
BRANCH  17  21
HETATM   21  C10 UNL     1       8.366   1.056  -2.457  1.00  0.00     0.059 C
BRANCH  21  22
HETATM   22  C11 UNL     1       7.017   1.520  -2.892  1.00  0.00     0.006 C
BRANCH  22  23
HETATM   23  C12 UNL     1       6.638   1.488  -4.300  1.00  0.00     0.000 C
BRANCH  23  24
HETATM   24  C13 UNL     1       5.697   0.517  -4.863  1.00  0.00    -0.000 C
BRANCH  24  25
HETATM   25  C14 UNL     1       5.535  -0.754  -4.129  1.00  0.00    -0.005 C
HETATM   26  C15 UNL     1       5.914  -1.874  -5.163  1.00  0.00     0.005 C
ENDBRANCH  24  25
ENDBRANCH  23  24
ENDBRANCH  22  23
ENDBRANCH  21  22
ENDBRANCH  17  21
ENDBRANCH   8  15
BRANCH  12  27
HETATM   27  O3  UNL     1       4.065  -3.394   2.457  1.00  0.00    -0.387 OA
ATOM     28  H3  UNL     1       3.300  -3.772   2.873  1.00  0.00     0.210 HD
ENDBRANCH  12  27
ENDBRANCH   4   5
ENDBRANCH   3   4
TORSDOF 10
ENDMDL