MODEL 4
REMARK VINA RESULT: -5.944483878      3.760      6.680
REMARK  10 active torsions:
REMARK  status: ('A' for Active; 'I' for Inactive)
REMARK    1  A    between atoms: N1_2  and  C2_4
REMARK    2  A    between atoms: C3_5  and  C4_6
REMARK    3  A    between atoms: C4_6  and  O1_7
REMARK    4  A    between atoms: C5_10  and  O3_11
REMARK    5  A    between atoms: C7_13  and  C8_14
REMARK    6  A    between atoms: C8_14  and  C9_15
REMARK    7  A    between atoms: C9_15  and  C10_16
REMARK    8  A    between atoms: C10_16  and  C11_17
REMARK    9  A    between atoms: C14_20  and  C15_21
REMARK   10  A    between atoms: C17_25  and  O6_26
ROOT
HETATM    1  C2  UNL     1       6.840   0.329  -1.005  1.00  0.00     0.136 C
HETATM    2  C3  UNL     1       7.443   0.181  -2.356  1.00  0.00     0.172 C
HETATM    3  O2  UNL     1       8.588  -0.556  -2.429  1.00  0.00    -0.351 OA
HETATM    4  C5  UNL     1       9.604  -0.183  -1.566  1.00  0.00     0.266 C
HETATM    5  C7  UNL     1       9.171   0.001  -0.155  1.00  0.00     0.072 C
HETATM    6  C17 UNL     1       7.734  -0.434  -0.019  1.00  0.00     0.151 C
ENDROOT
BRANCH   5   7
HETATM    7  C8  UNL     1       9.305   1.405   0.366  1.00  0.00     0.012 C
BRANCH   7   8
HETATM    8  C9  UNL     1      10.710   1.784   0.713  1.00  0.00     0.003 C
BRANCH   8   9
HETATM    9  C10 UNL     1      10.661   2.814   1.825  1.00  0.00     0.032 C
BRANCH   9  10
HETATM   10  C11 UNL     1       9.417   3.683   1.702  1.00  0.00     0.122 C
HETATM   11  C12 UNL     1       9.019   4.144   3.054  1.00  0.00     0.035 C
HETATM   12  C13 UNL     1       9.099   5.641   2.976  1.00  0.00     0.042 C
HETATM   13  C14 UNL     1       9.933   5.851   1.735  1.00  0.00     0.191 C
HETATM   14  O5  UNL     1       9.651   4.783   0.893  1.00  0.00    -0.373 OA
BRANCH  13  15
HETATM   15  C15 UNL     1       9.551   7.164   1.146  1.00  0.00     0.151 C
HETATM   16  C16 UNL     1       8.724   7.296  -0.088  1.00  0.00     0.093 C
HETATM   17  O4  UNL     1       9.949   8.163   1.721  1.00  0.00    -0.296 OA
ENDBRANCH  13  15
ENDBRANCH   9  10
ENDBRANCH   8   9
ENDBRANCH   7   8
ENDBRANCH   5   7
BRANCH   4  18
HETATM   18  O3  UNL     1      10.523  -1.260  -1.599  1.00  0.00    -0.366 OA
HETATM   19  C6  UNL     1       9.987  -2.379  -2.208  1.00  0.00     0.204 C
ENDBRANCH   4  18
BRANCH   6  20
HETATM   20  O6  UNL     1       7.260  -0.338   1.270  1.00  0.00    -0.393 OA
ATOM     21  H6  UNL     1       7.962  -0.408   1.905  1.00  0.00     0.210 HD
ENDBRANCH   6  20
BRANCH   1  22
HETATM   22  N1  UNL     1       5.530  -0.255  -0.876  1.00  0.00    -0.417 N
HETATM   23  C1  UNL     1       5.278  -1.383  -1.693  1.00  0.00     0.140 C
ATOM     24  H1  UNL     1       4.829   0.121  -0.237  1.00  0.00     0.153 HD
ENDBRANCH   1  22
BRANCH   2  25
HETATM   25  C4  UNL     1       7.605   1.527  -3.074  1.00  0.00     0.198 C
BRANCH  25  26
HETATM   26  O1  UNL     1       7.745   1.343  -4.441  1.00  0.00    -0.398 OA
ATOM     27  H1  UNL     1       6.913   1.117  -4.839  1.00  0.00     0.209 HD
ENDBRANCH  25  26
ENDBRANCH   2  25
TORSDOF 10
ENDMDL