MODEL 2
REMARK VINA RESULT: -5.625234991      2.742      4.373
REMARK  11 active torsions:
REMARK  status: ('A' for Active; 'I' for Inactive)
REMARK    1  A    between atoms: C3_4  and  O1_5
REMARK    2  A    between atoms: C4_7  and  C5_8
REMARK    3  A    between atoms: C5_8  and  C6_9
REMARK    4  A    between atoms: C6_9  and  S1_10
REMARK    5  A    between atoms: S1_10  and  C7_12
REMARK    6  A    between atoms: C7_12  and  C8_13
REMARK    7  A    between atoms: C8_13  and  S2_14
REMARK    8  A    between atoms: S2_14  and  C9_15
REMARK    9  A    between atoms: C11_18  and  O3_19
REMARK   10  A    between atoms: C12_21  and  C13_22
REMARK   11  A    between atoms: C13_22  and  O4_23
ROOT
HETATM    1  C7  UNL     1       8.685  -1.910   0.174  1.00  0.00     0.118 C
ENDROOT
BRANCH   1   2
HETATM    2  S1  UNL     1       6.986  -1.721  -0.228  1.00  0.00     0.015 S
HETATM    3  O2  UNL     1       6.276  -0.337   0.318  1.00  0.00    -0.258 OA
BRANCH   2   4
HETATM    4  C6  UNL     1       6.680  -2.069  -1.917  1.00  0.00     0.111 C
BRANCH   4   5
HETATM    5  C5  UNL     1       5.792  -1.077  -2.594  1.00  0.00     0.051 C
BRANCH   5   6
HETATM    6  C4  UNL     1       6.577  -0.220  -3.531  1.00  0.00     0.253 C
HETATM    7  N1  UNL     1       6.733   1.128  -3.067  1.00  0.00     0.094 N
HETATM    8  C1  UNL     1       8.038   1.483  -2.536  1.00  0.00     0.310 C
HETATM    9  C2  UNL     1       6.496   1.604  -4.409  1.00  0.00     0.306 C
HETATM   10  C3  UNL     1       5.754   0.327  -4.703  1.00  0.00     0.179 C
BRANCH  10  11
HETATM   11  O1  UNL     1       6.046  -0.271  -5.923  1.00  0.00    -0.392 OA
ATOM     12  H1  UNL     1       5.966  -1.217  -5.946  1.00  0.00     0.210 HD
ENDBRANCH  10  11
ENDBRANCH   5   6
ENDBRANCH   4   5
ENDBRANCH   2   4
ENDBRANCH   1   2
BRANCH   1  13
HETATM   13  C8  UNL     1       9.057  -3.313   0.522  1.00  0.00     0.086 C
BRANCH  13  14
HETATM   14  S2  UNL     1       7.876  -4.230   1.477  1.00  0.00    -0.162 SA
BRANCH  14  15
HETATM   15  C9  UNL     1       8.001  -6.027   1.338  1.00  0.00     0.066 C
HETATM   16  C10 UNL     1       7.412  -6.680   2.517  1.00  0.00     0.092 C
HETATM   17  S3  UNL     1       5.904  -7.495   1.850  1.00  0.00    -0.136 SA
HETATM   18  C11 UNL     1       5.885  -6.591   0.242  1.00  0.00     0.186 C
HETATM   19  C12 UNL     1       7.358  -6.431   0.064  1.00  0.00     0.062 C
BRANCH  18  20
HETATM   20  O3  UNL     1       5.299  -7.439  -0.667  1.00  0.00    -0.385 OA
ATOM     21  H3  UNL     1       4.592  -7.875  -0.205  1.00  0.00     0.211 HD
ENDBRANCH  18  20
BRANCH  19  22
HETATM   22  C13 UNL     1       8.009  -7.626  -0.590  1.00  0.00     0.173 C
BRANCH  22  23
HETATM   23  O4  UNL     1       8.134  -7.516  -1.953  1.00  0.00    -0.400 OA
ATOM     24  H4  UNL     1       7.676  -8.193  -2.437  1.00  0.00     0.209 HD
ENDBRANCH  22  23
ENDBRANCH  19  22
ENDBRANCH  14  15
ENDBRANCH  13  14
ENDBRANCH   1  13
TORSDOF 11
ENDMDL