MODEL 1
REMARK VINA RESULT: -6.473214025      0.000      0.000
REMARK  9 active torsions:
REMARK  status: ('A' for Active; 'I' for Inactive)
REMARK    1  A    between atoms: C2_2  and  N1_3
REMARK    2  A    between atoms: N1_3  and  C3_6
REMARK    3  A    between atoms: C3_6  and  C4_7
REMARK    4  A    between atoms: N2_9  and  C6_10
REMARK    5  A    between atoms: C6_10  and  C7_11
REMARK    6  A    between atoms: C7_11  and  C8_12
REMARK    7  A    between atoms: C8_12  and  O1_13
REMARK    8  A    between atoms: O1_13  and  N3_14
REMARK    9  A    between atoms: C17_26  and  O2_27
ROOT
HETATM    1  C4  UNL     1       8.627   0.931  -2.575  1.00  0.00     0.068 C
HETATM    2  C5  UNL     1       8.374  -0.421  -1.928  1.00  0.00     0.281 C
HETATM    3  N2  UNL     1       9.575  -1.049  -1.491  1.00  0.00     0.089 N
HETATM    4  C15 UNL     1      10.679  -0.240  -1.219  1.00  0.00     0.275 C
HETATM    5  C16 UNL     1      10.519   1.222  -1.112  1.00  0.00     0.062 C
HETATM    6  C17 UNL     1       9.157   1.781  -1.444  1.00  0.00     0.127 C
ENDROOT
BRANCH   3   7
HETATM    7  C6  UNL     1       9.807  -2.226  -2.302  1.00  0.00     0.274 C
BRANCH   7   8
HETATM    8  C7  UNL     1       8.484  -2.938  -2.452  1.00  0.00     0.059 C
BRANCH   8   9
HETATM    9  C8  UNL     1       8.547  -4.147  -1.491  1.00  0.00     0.203 C
BRANCH   9  10
HETATM   10  O1  UNL     1       7.461  -4.143  -0.652  1.00  0.00    -0.276 OA
BRANCH  10  11
HETATM   11  N3  UNL     1       7.482  -3.324   0.378  1.00  0.00    -0.230 N
HETATM   12  C9  UNL     1       8.676  -3.187   1.238  1.00  0.00     0.161 C
HETATM   13  C10 UNL     1       8.287  -3.035   2.672  1.00  0.00     0.052 C
HETATM   14  C11 UNL     1       6.825  -3.134   2.955  1.00  0.00     0.027 C
HETATM   15  C12 UNL     1       6.560  -2.521   4.317  1.00  0.00     0.038 C
HETATM   16  C13 UNL     1       6.416  -4.596   2.984  1.00  0.00     0.038 C
HETATM   17  N4  UNL     1       6.002  -2.423   2.006  1.00  0.00    -0.354 N
HETATM   18  C14 UNL     1       6.350  -2.535   0.742  1.00  0.00     0.211 C
ATOM     19  H4  UNL     1       5.199  -1.866   2.298  1.00  0.00     0.163 HD
HETATM   20  N5  UNL     1       5.568  -1.864  -0.228  1.00  0.00    -0.062 NA
ENDBRANCH  10  11
ENDBRANCH   9  10
ENDBRANCH   8   9
ENDBRANCH   7   8
ENDBRANCH   3   7
BRANCH   1  21
HETATM   21  C3  UNL     1       7.355   1.410  -3.178  1.00  0.00     0.241 C
BRANCH  21  22
HETATM   22  N1  UNL     1       7.185   0.967  -4.530  1.00  0.00    -0.075 N
ATOM     23  H12 UNL     1       7.827   0.208  -4.756  1.00  0.00     0.277 HD
ATOM     24  H11 UNL     1       7.522   1.664  -5.194  1.00  0.00     0.277 HD
BRANCH  22  25
HETATM   25  C2  UNL     1       5.806   0.595  -4.804  1.00  0.00     0.228 C
HETATM   26  C1  UNL     1       5.593  -0.819  -4.308  1.00  0.00     0.034 C
ENDBRANCH  22  25
ENDBRANCH  21  22
ENDBRANCH   1  21
BRANCH   6  27
HETATM   27  O2  UNL     1       8.338   1.566  -0.319  1.00  0.00    -0.395 OA
ATOM     28  H2  UNL     1       7.566   2.112  -0.410  1.00  0.00     0.210 HD
ENDBRANCH   6  27
TORSDOF 9
ENDMDL