MODEL 5
REMARK VINA RESULT: -5.819785575      4.051      6.314
REMARK  10 active torsions:
REMARK  status: ('A' for Active; 'I' for Inactive)
REMARK    1  A    between atoms: C2_2  and  C3_3
REMARK    2  A    between atoms: C3_3  and  C4_4
REMARK    3  A    between atoms: C4_4  and  C5_5
REMARK    4  A    between atoms: C5_5  and  N1_8
REMARK    5  A    between atoms: N1_8  and  C8_11
REMARK    6  A    between atoms: C8_11  and  C9_12
REMARK    7  A    between atoms: N3_16  and  C11_17
REMARK    8  A    between atoms: C12_19  and  C13_20
REMARK    9  A    between atoms: C13_20  and  O2_21
REMARK   10  A    between atoms: C14_23  and  O3_24
ROOT
HETATM    1  C9  UNL     1       9.646   0.315  -0.838  1.00  0.00     0.001 A
HETATM    2  C10 UNL     1      10.528   1.338  -1.103  1.00  0.00     0.117 A
HETATM    3  N2  UNL     1      10.360   2.262  -0.172  1.00  0.00    -0.306 N
ATOM      4  H2  UNL     1      10.880   3.138  -0.113  1.00  0.00     0.186 HD
HETATM    5  N3  UNL     1       9.420   1.883   0.668  1.00  0.00    -0.247 N
HETATM    6  C17 UNL     1       8.960   0.688   0.289  1.00  0.00     0.125 A
ENDROOT
BRANCH   5   7
HETATM    7  C11 UNL     1       8.953   2.649   1.826  1.00  0.00     0.488 C
HETATM    8  O1  UNL     1       8.586   1.863   2.886  1.00  0.00    -0.330 OA
HETATM    9  C12 UNL     1       9.596   1.444   3.713  1.00  0.00     0.180 C
HETATM   10  C14 UNL     1      10.544   2.516   4.162  1.00  0.00     0.177 C
HETATM   11  C15 UNL     1      10.995   3.273   2.932  1.00  0.00     0.312 C
HETATM   12  N4  UNL     1       9.878   3.709   2.150  1.00  0.00     0.137 N
HETATM   13  C16 UNL     1       9.191   4.765   2.837  1.00  0.00     0.316 C
BRANCH   9  14
HETATM   14  C13 UNL     1       8.945   0.838   4.958  1.00  0.00     0.198 C
BRANCH  14  15
HETATM   15  O2  UNL     1       8.795   1.788   5.971  1.00  0.00    -0.398 OA
ATOM     16  H2  UNL     1       9.156   1.479   6.793  1.00  0.00     0.209 HD
ENDBRANCH  14  15
ENDBRANCH   9  14
BRANCH  10  17
HETATM   17  O3  UNL     1      11.671   1.890   4.715  1.00  0.00    -0.391 OA
ATOM     18  H3  UNL     1      12.370   1.928   4.072  1.00  0.00     0.210 HD
ENDBRANCH  10  17
ENDBRANCH   5   7
BRANCH   1  19
HETATM   19  C8  UNL     1       9.494  -0.942  -1.660  1.00  0.00     0.274 C
BRANCH  19  20
HETATM   20  N1  UNL     1       8.352  -0.749  -2.487  1.00  0.00    -0.063 N
ATOM     21  H12 UNL     1       8.625  -0.459  -3.426  1.00  0.00     0.278 HD
ATOM     22  H11 UNL     1       7.831   0.082  -2.203  1.00  0.00     0.278 HD
BRANCH  20  23
HETATM   23  C5  UNL     1       7.463  -1.950  -2.532  1.00  0.00     0.119 C
HETATM   24  C6  UNL     1       6.614  -1.787  -1.288  1.00  0.00     0.046 C
HETATM   25  C7  UNL     1       8.349  -3.148  -2.348  1.00  0.00     0.046 C
BRANCH  23  26
HETATM   26  C4  UNL     1       6.708  -1.923  -3.789  1.00  0.00     0.038 C
BRANCH  26  27
HETATM   27  C3  UNL     1       5.569  -1.008  -3.964  1.00  0.00     0.002 C
BRANCH  27  28
HETATM   28  C2  UNL     1       5.679   0.081  -4.971  1.00  0.00    -0.004 C
HETATM   29  C1  UNL     1       6.392   1.297  -4.339  1.00  0.00     0.005 C
ENDBRANCH  27  28
ENDBRANCH  26  27
ENDBRANCH  23  26
ENDBRANCH  20  23
ENDBRANCH  19  20
ENDBRANCH   1  19
TORSDOF 10
ENDMDL