MODEL 4
REMARK VINA RESULT: -5.868358892      2.959      4.746
REMARK  11 active torsions:
REMARK  status: ('A' for Active; 'I' for Inactive)
REMARK    1  A    between atoms: C2_2  and  C3_3
REMARK    2  A    between atoms: C3_3  and  C4_4
REMARK    3  A    between atoms: C4_4  and  C5_5
REMARK    4  A    between atoms: C5_5  and  C6_6
REMARK    5  A    between atoms: C6_6  and  C7_7
REMARK    6  A    between atoms: C7_7  and  N1_8
REMARK    7  A    between atoms: C9_10  and  O1_11
REMARK    8  A    between atoms: C10_13  and  C11_14
REMARK    9  A    between atoms: C11_14  and  O2_15
REMARK   10  A    between atoms: C11_14  and  C12_17
REMARK   11  A    between atoms: C12_17  and  O3_18
ROOT
HETATM    1  N1  UNL     1       8.370  -0.342  -0.996  1.00  0.00     0.125 N
HETATM    2  C8  UNL     1       8.796   0.268   0.253  1.00  0.00     0.309 C
HETATM    3  C9  UNL     1       9.217  -0.792   1.248  1.00  0.00     0.182 C
HETATM    4  C10 UNL     1       8.247  -1.909   1.322  1.00  0.00     0.289 C
HETATM    5  N2  UNL     1       8.153  -2.553  -0.006  1.00  0.00     0.160 N
HETATM    6  C13 UNL     1       8.995  -3.761  -0.060  1.00  0.00     0.393 C
HETATM    7  C14 UNL     1       8.430  -4.875   0.646  1.00  0.00     0.106 C
HETATM    8  N3  UNL     1       7.981  -5.768   1.227  1.00  0.00    -0.194 NA
HETATM    9  S1  UNL     1       8.761  -4.117  -1.859  1.00  0.00    -0.115 SA
HETATM   10  C15 UNL     1       8.186  -2.414  -2.291  1.00  0.00     0.145 C
HETATM   11  C16 UNL     1       8.712  -1.714  -1.031  1.00  0.00     0.469 C
ENDROOT
BRANCH   4  12
HETATM   12  C11 UNL     1       6.824  -1.551   1.674  1.00  0.00     0.177 C
BRANCH  12  13
HETATM   13  O2  UNL     1       5.986  -2.395   0.836  1.00  0.00    -0.391 OA
ATOM     14  H2  UNL     1       5.092  -2.130   1.017  1.00  0.00     0.210 HD
ENDBRANCH  12  13
BRANCH  12  15
HETATM   15  C12 UNL     1       6.369  -1.846   3.053  1.00  0.00     0.198 C
BRANCH  15  16
HETATM   16  O3  UNL     1       7.228  -1.632   4.084  1.00  0.00    -0.398 OA
ATOM     17  H3  UNL     1       6.871  -1.482   4.951  1.00  0.00     0.209 HD
ENDBRANCH  15  16
ENDBRANCH  12  15
ENDBRANCH   4  12
BRANCH   3  18
HETATM   18  O1  UNL     1       9.558  -0.225   2.431  1.00  0.00    -0.392 OA
ATOM     19  H1  UNL     1      10.327  -0.648   2.794  1.00  0.00     0.210 HD
ENDBRANCH   3  18
BRANCH   1  20
HETATM   20  C7  UNL     1       9.089   0.357  -2.045  1.00  0.00     0.275 C
BRANCH  20  21
HETATM   21  C6  UNL     1       8.273   1.579  -2.478  1.00  0.00     0.030 C
BRANCH  21  22
HETATM   22  C5  UNL     1       6.869   1.151  -2.868  1.00  0.00     0.002 C
BRANCH  22  23
HETATM   23  C4  UNL     1       6.603   1.562  -4.281  1.00  0.00     0.000 C
BRANCH  23  24
HETATM   24  C3  UNL     1       5.634   0.617  -4.964  1.00  0.00    -0.000 C
BRANCH  24  25
HETATM   25  C2  UNL     1       5.550  -0.706  -4.228  1.00  0.00    -0.005 C
HETATM   26  C1  UNL     1       5.862  -1.815  -5.190  1.00  0.00     0.005 C
ENDBRANCH  24  25
ENDBRANCH  23  24
ENDBRANCH  22  23
ENDBRANCH  21  22
ENDBRANCH  20  21
ENDBRANCH   1  20
TORSDOF 11
ENDMDL