MODEL 3
REMARK VINA RESULT: -6.276761643      1.679      6.426
REMARK  9 active torsions:
REMARK  status: ('A' for Active; 'I' for Inactive)
REMARK    1  A    between atoms: O1_2  and  C2_3
REMARK    2  A    between atoms: C3_5  and  C4_6
REMARK    3  A    between atoms: C4_6  and  O3_7
REMARK    4  A    between atoms: C6_11  and  N1_12
REMARK    5  A    between atoms: N1_12  and  C7_15
REMARK    6  A    between atoms: C7_15  and  C8_16
REMARK    7  A    between atoms: C8_16  and  N2_17
REMARK    8  A    between atoms: N2_17  and  C9_19
REMARK    9  A    between atoms: C15_25  and  O5_27
ROOT
HETATM    1  N1  UNL     1       8.626  -4.680  -1.109  1.00  0.00    -0.043 N
ATOM      2  H11 UNL     1       8.011  -5.477  -1.280  1.00  0.00     0.280 HD
ATOM      3  H12 UNL     1       9.518  -5.175  -1.124  1.00  0.00     0.280 HD
ENDROOT
BRANCH   1   4
HETATM    4  C6  UNL     1       8.367  -4.057   0.189  1.00  0.00     0.376 C
HETATM    5  C2  UNL     1       6.928  -3.694   0.306  1.00  0.00     0.316 C
HETATM    6  O2  UNL     1       6.075  -4.787   0.222  1.00  0.00    -0.347 OA
HETATM    7  C3  UNL     1       6.538  -5.898   0.886  1.00  0.00     0.172 C
HETATM    8  C5  UNL     1       8.001  -6.166   0.772  1.00  0.00     0.205 C
HETATM    9  O4  UNL     1       8.699  -5.022   1.163  1.00  0.00    -0.353 OA
BRANCH   5  10
HETATM   10  O1  UNL     1       6.778  -3.006   1.514  1.00  0.00    -0.362 OA
HETATM   11  C1  UNL     1       7.530  -1.859   1.601  1.00  0.00     0.205 C
ENDBRANCH   5  10
BRANCH   7  12
HETATM   12  C4  UNL     1       5.758  -7.090   0.327  1.00  0.00     0.198 C
BRANCH  12  13
HETATM   13  O3  UNL     1       6.383  -7.501  -0.835  1.00  0.00    -0.398 OA
ATOM     14  H3  UNL     1       5.787  -8.077  -1.301  1.00  0.00     0.209 HD
ENDBRANCH  12  13
ENDBRANCH   7  12
ENDBRANCH   1   4
BRANCH   1  15
HETATM   15  C7  UNL     1       8.537  -3.691  -2.162  1.00  0.00     0.254 C
BRANCH  15  16
HETATM   16  C8  UNL     1       9.514  -2.542  -2.028  1.00  0.00     0.142 C
BRANCH  16  17
HETATM   17  N2  UNL     1       8.964  -1.367  -2.594  1.00  0.00    -0.412 N
ATOM     18  H2  UNL     1       9.180  -1.130  -3.562  1.00  0.00     0.153 HD
BRANCH  17  19
HETATM   19  C9  UNL     1       8.133  -0.526  -1.854  1.00  0.00     0.118 C
HETATM   20  C10 UNL     1       6.743  -0.369  -2.339  1.00  0.00    -0.025 C
HETATM   21  C11 UNL     1       5.741  -0.295  -1.176  1.00  0.00     0.017 C
HETATM   22  C12 UNL     1       6.211  -1.414  -3.271  1.00  0.00     0.017 C
HETATM   23  C13 UNL     1       6.740   0.983  -3.071  1.00  0.00     0.014 C
HETATM   24  C14 UNL     1       8.110   1.570  -2.920  1.00  0.00     0.040 C
HETATM   25  C15 UNL     1       8.677   0.878  -1.733  1.00  0.00     0.077 C
HETATM   26  C16 UNL     1      10.190   0.892  -1.694  1.00  0.00     0.048 C
BRANCH  25  27
HETATM   27  O5  UNL     1       8.207   1.383  -0.517  1.00  0.00    -0.383 OA
HETATM   28  C17 UNL     1       9.093   1.327   0.523  1.00  0.00     0.202 C
ENDBRANCH  25  27
ENDBRANCH  17  19
ENDBRANCH  16  17
ENDBRANCH  15  16
ENDBRANCH   1  15
TORSDOF 9
ENDMDL