MODEL 5
REMARK VINA RESULT: -7.430732912      4.873      8.472
REMARK  6 active torsions:
REMARK  status: ('A' for Active; 'I' for Inactive)
REMARK    1  A    between atoms: C2_2  and  C3_3
REMARK    2  A    between atoms: C16_16  and  N1_17
REMARK    3  A    between atoms: N1_17  and  C17_19
REMARK    4  A    between atoms: N2_21  and  O1_23
REMARK    5  A    between atoms: O1_23  and  C18_24
REMARK    6  A    between atoms: C22_28  and  O2_29
ROOT
HETATM    1  C3  UNL     1      17.617  -2.252  10.297  1.00  0.00    -0.027 C
HETATM    2  C4  UNL     1      17.742  -0.906   9.551  1.00  0.00     0.019 C
HETATM    3  C5  UNL     1      16.312  -2.873   9.896  1.00  0.00     0.013 C
HETATM    4  C6  UNL     1      15.209  -2.390  10.766  1.00  0.00     0.006 C
HETATM    5  C7  UNL     1      15.399  -2.722  12.232  1.00  0.00    -0.005 C
HETATM    6  C8  UNL     1      16.832  -2.761  12.628  1.00  0.00    -0.009 C
HETATM    7  C9  UNL     1      17.356  -4.174  12.821  1.00  0.00     0.006 C
HETATM    8  C10 UNL     1      16.611  -4.814  13.959  1.00  0.00     0.010 C
HETATM    9  C11 UNL     1      15.132  -4.580  13.911  1.00  0.00    -0.036 C
HETATM   10  C12 UNL     1      14.705  -3.771  15.083  1.00  0.00     0.016 C
HETATM   11  C13 UNL     1      14.442  -5.936  14.015  1.00  0.00     0.001 C
HETATM   12  C14 UNL     1      14.509  -6.670  12.713  1.00  0.00     0.008 C
HETATM   13  C15 UNL     1      14.015  -8.096  13.031  1.00  0.00     0.025 C
HETATM   14  C16 UNL     1      12.619  -7.995  13.511  1.00  0.00     0.084 C
HETATM   15  C20 UNL     1      12.277  -6.940  14.517  1.00  0.00     0.032 C
HETATM   16  C21 UNL     1      12.973  -5.636  14.257  1.00  0.00     0.021 C
HETATM   17  C22 UNL     1      12.357  -4.886  13.130  1.00  0.00     0.123 C
HETATM   18  C23 UNL     1      13.212  -3.786  12.570  1.00  0.00     0.038 C
HETATM   19  C24 UNL     1      14.672  -4.031  12.582  1.00  0.00     0.001 C
HETATM   20  C25 UNL     1      17.744  -1.940  11.754  1.00  0.00     0.018 C
ENDROOT
BRANCH  14  21
HETATM   21  N1  UNL     1      12.036  -9.276  13.979  1.00  0.00    -0.361 N
ATOM     22  H1  UNL     1      11.868 -10.024  13.306  1.00  0.00     0.162 HD
BRANCH  21  23
HETATM   23  C17 UNL     1      11.712  -9.478  15.327  1.00  0.00     0.192 C
HETATM   24  S1  UNL     1      12.962  -9.963  16.381  1.00  0.00    -0.039 SA
HETATM   25  N2  UNL     1      10.561  -9.277  16.010  1.00  0.00    -0.241 N
ATOM     26  H2  UNL     1      10.626  -9.538  16.993  1.00  0.00     0.197 HD
BRANCH  25  27
HETATM   27  O1  UNL     1       9.360  -8.811  15.670  1.00  0.00    -0.279 OA
BRANCH  27  28
HETATM   28  C18 UNL     1       9.072  -7.923  16.794  1.00  0.00     0.197 C
HETATM   29  C19 UNL     1       7.579  -8.227  16.973  1.00  0.00     0.036 C
ENDBRANCH  27  28
ENDBRANCH  25  27
ENDBRANCH  21  23
ENDBRANCH  14  21
BRANCH  17  30
HETATM   30  O2  UNL     1      11.184  -4.285  13.603  1.00  0.00    -0.395 OA
ATOM     31  H2  UNL     1      11.294  -3.343  13.545  1.00  0.00     0.210 HD
ENDBRANCH  17  30
BRANCH   1  32
HETATM   32  C2  UNL     1      18.770  -3.068   9.830  1.00  0.00    -0.028 C
HETATM   33  C1  UNL     1      19.993  -2.712   9.713  1.00  0.00     0.007 C
ENDBRANCH   1  32
TORSDOF 6
ENDMDL