MODEL 4
REMARK VINA RESULT: -6.729342561      1.036      1.364
REMARK  6 active torsions:
REMARK  status: ('A' for Active; 'I' for Inactive)
REMARK    1  A    between atoms: C2_2  and  N1_4
REMARK    2  A    between atoms: N1_4  and  C4_6
REMARK    3  A    between atoms: C4_6  and  C6_8
REMARK    4  A    between atoms: C12_14  and  O1_15
REMARK    5  A    between atoms: C19_23  and  C20_24
REMARK    6  A    between atoms: C20_24  and  O2_27
ROOT
HETATM    1  C6  UNL     1      15.347  -7.562  17.345  1.00  0.00    -0.020 C
HETATM    2  C7  UNL     1      14.513  -6.934  18.409  1.00  0.00     0.018 C
HETATM    3  C8  UNL     1      15.166  -9.055  17.181  1.00  0.00     0.012 C
HETATM    4  C9  UNL     1      14.919  -9.316  15.696  1.00  0.00     0.011 C
HETATM    5  C10 UNL     1      14.230  -8.022  15.228  1.00  0.00    -0.030 C
HETATM    6  C11 UNL     1      12.850  -8.171  15.865  1.00  0.00     0.042 C
HETATM    7  C12 UNL     1      12.105  -9.345  15.243  1.00  0.00     0.118 C
HETATM    8  C13 UNL     1      12.284  -9.419  13.742  1.00  0.00     0.032 C
HETATM    9  C14 UNL     1      12.692  -8.002  13.342  1.00  0.00     0.008 C
HETATM   10  C15 UNL     1      14.169  -7.863  13.779  1.00  0.00    -0.001 C
HETATM   11  C16 UNL     1      14.827  -6.842  13.008  1.00  0.00    -0.001 C
HETATM   12  C17 UNL     1      16.249  -7.269  12.609  1.00  0.00     0.006 C
HETATM   13  C18 UNL     1      17.032  -5.991  12.489  1.00  0.00     0.009 C
HETATM   14  C19 UNL     1      15.930  -4.961  12.341  1.00  0.00     0.028 C
HETATM   15  C23 UNL     1      14.932  -5.422  13.348  1.00  0.00    -0.034 C
HETATM   16  C24 UNL     1      13.625  -4.690  13.016  1.00  0.00     0.016 C
HETATM   17  C25 UNL     1      15.326  -5.031  14.703  1.00  0.00     0.010 C
HETATM   18  C26 UNL     1      14.514  -5.708  15.810  1.00  0.00     0.007 C
HETATM   19  C27 UNL     1      15.119  -7.058  15.977  1.00  0.00     0.005 C
ENDROOT
BRANCH   1  20
HETATM   20  C4  UNL     1      16.805  -7.421  17.845  1.00  0.00     0.081 C
HETATM   21  C5  UNL     1      17.632  -7.129  16.613  1.00  0.00     0.032 C
BRANCH  20  22
HETATM   22  N1  UNL     1      17.243  -8.538  18.532  1.00  0.00    -0.413 N
ATOM     23  H1  UNL     1      16.539  -9.215  18.830  1.00  0.00     0.153 HD
BRANCH  22  24
HETATM   24  C2  UNL     1      18.574  -8.809  18.847  1.00  0.00     0.068 C
HETATM   25  C1  UNL     1      19.150 -10.090  18.312  1.00  0.00     0.031 C
HETATM   26  C3  UNL     1      18.788  -8.871  20.379  1.00  0.00     0.031 C
ENDBRANCH  22  24
ENDBRANCH  20  22
ENDBRANCH   1  20
BRANCH   7  27
HETATM   27  O1  UNL     1      10.734  -9.043  15.431  1.00  0.00    -0.396 OA
ATOM     28  H1  UNL     1      10.276  -9.841  15.195  1.00  0.00     0.210 HD
ENDBRANCH   7  27
BRANCH  14  29
HETATM   29  C20 UNL     1      16.513  -3.632  12.393  1.00  0.00     0.055 C
HETATM   30  C21 UNL     1      17.300  -3.458  11.079  1.00  0.00     0.045 C
HETATM   31  C22 UNL     1      15.605  -2.457  12.483  1.00  0.00     0.045 C
BRANCH  29  32
HETATM   32  O2  UNL     1      17.487  -3.469  13.406  1.00  0.00    -0.390 OA
ATOM     33  H2  UNL     1      18.361  -3.292  13.078  1.00  0.00     0.210 HD
ENDBRANCH  29  32
ENDBRANCH  14  29
TORSDOF 6
ENDMDL