MODEL 2
REMARK VINA RESULT: -7.425037601      1.622      2.772
REMARK  9 active torsions:
REMARK  status: ('A' for Active; 'I' for Inactive)
REMARK    1  A    between atoms: C2_2  and  C3_3
REMARK    2  A    between atoms: C3_3  and  C4_4
REMARK    3  A    between atoms: C4_4  and  C5_5
REMARK    4  A    between atoms: C5_5  and  C6_6
REMARK    5  A    between atoms: C7_7  and  C8_8
REMARK    6  A    between atoms: C8_8  and  O1_10
REMARK    7  A    between atoms: C8_8  and  C10_12
REMARK    8  A    between atoms: C22_24  and  O2_25
REMARK    9  A    between atoms: C23_27  and  O3_28
ROOT
HETATM    1  C10 UNL     1      16.833  -4.028  13.112  1.00  0.00     0.037 C
HETATM    2  C11 UNL     1      15.978  -2.759  13.029  1.00  0.00     0.010 C
HETATM    3  C12 UNL     1      14.550  -3.229  13.283  1.00  0.00     0.010 C
HETATM    4  C13 UNL     1      14.765  -4.169  14.396  1.00  0.00    -0.036 C
HETATM    5  C14 UNL     1      14.687  -3.337  15.690  1.00  0.00     0.016 C
HETATM    6  C15 UNL     1      16.183  -4.724  14.183  1.00  0.00     0.002 C
HETATM    7  C16 UNL     1      16.066  -6.189  14.253  1.00  0.00     0.011 C
HETATM    8  C17 UNL     1      14.860  -6.307  15.199  1.00  0.00    -0.001 C
HETATM    9  C18 UNL     1      13.866  -5.323  14.567  1.00  0.00    -0.001 C
HETATM   10  C19 UNL     1      13.139  -5.867  13.425  1.00  0.00     0.006 C
HETATM   11  C20 UNL     1      13.118  -7.357  13.262  1.00  0.00     0.008 C
HETATM   12  C21 UNL     1      13.339  -8.166  14.472  1.00  0.00     0.025 C
HETATM   13  C22 UNL     1      11.988  -8.476  15.125  1.00  0.00     0.151 C
HETATM   14  C23 UNL     1      12.149  -9.459  16.248  1.00  0.00     0.147 C
HETATM   15  C24 UNL     1      13.200  -9.001  17.212  1.00  0.00     0.035 C
HETATM   16  C25 UNL     1      13.754  -7.664  16.847  1.00  0.00     0.012 C
HETATM   17  C26 UNL     1      14.355  -7.655  15.431  1.00  0.00    -0.034 C
HETATM   18  C27 UNL     1      15.565  -8.599  15.531  1.00  0.00     0.016 C
ENDROOT
BRANCH   1  19
HETATM   19  C8  UNL     1      17.050  -4.573  11.770  1.00  0.00     0.121 C
HETATM   20  C9  UNL     1      18.512  -4.932  11.558  1.00  0.00     0.061 C
BRANCH  19  21
HETATM   21  C7  UNL     1      16.758  -3.519  10.762  1.00  0.00    -0.068 C
HETATM   22  C6  UNL     1      16.505  -2.660   9.955  1.00  0.00    -0.103 C
BRANCH  22  23
HETATM   23  C5  UNL     1      16.197  -1.581   8.979  1.00  0.00     0.094 C
BRANCH  23  24
HETATM   24  C4  UNL     1      15.290  -0.558   9.586  1.00  0.00     0.012 C
BRANCH  24  25
HETATM   25  C3  UNL     1      14.025  -1.180  10.088  1.00  0.00     0.000 C
BRANCH  25  26
HETATM   26  C2  UNL     1      13.038  -0.107  10.463  1.00  0.00    -0.005 C
HETATM   27  C1  UNL     1      12.320  -0.615  11.731  1.00  0.00     0.005 C
ENDBRANCH  25  26
ENDBRANCH  24  25
ENDBRANCH  23  24
ENDBRANCH  22  23
ENDBRANCH  19  21
BRANCH  19  28
HETATM   28  O1  UNL     1      16.349  -5.669  11.378  1.00  0.00    -0.378 OA
ATOM     29  H1  UNL     1      16.870  -6.419  11.640  1.00  0.00     0.211 HD
ENDBRANCH  19  28
ENDBRANCH   1  19
BRANCH  13  30
HETATM   30  O2  UNL     1      11.268  -7.356  15.444  1.00  0.00    -0.393 OA
ATOM     31  H2  UNL     1      11.482  -7.000  16.298  1.00  0.00     0.210 HD
ENDBRANCH  13  30
BRANCH  14  32
HETATM   32  O3  UNL     1      12.405 -10.741  15.746  1.00  0.00    -0.393 OA
ATOM     33  H3  UNL     1      13.066 -11.179  16.270  1.00  0.00     0.210 HD
ENDBRANCH  14  32
TORSDOF 9
ENDMDL