MODEL 4
REMARK VINA RESULT: -7.872398123      2.751      5.882
REMARK  7 active torsions:
REMARK  status: ('A' for Active; 'I' for Inactive)
REMARK    1  A    between atoms: C5_5  and  C6_6
REMARK    2  A    between atoms: C6_6  and  C8_8
REMARK    3  A    between atoms: C8_8  and  C9_9
REMARK    4  A    between atoms: C9_9  and  O1_10
REMARK    5  A    between atoms: C9_9  and  C10_12
REMARK    6  A    between atoms: C16_18  and  O2_19
REMARK    7  A    between atoms: C23_27  and  O3_28
ROOT
HETATM    1  C1  UNL     1      17.949  -6.634  15.963  1.00  0.00     0.012 C
HETATM    2  C2  UNL     1      16.821  -6.224  16.003  1.00  0.00    -0.112 C
HETATM    3  C3  UNL     1      15.487  -5.720  16.075  1.00  0.00     0.073 C
HETATM    4  C4  UNL     1      15.425  -4.503  15.114  1.00  0.00     0.053 C
HETATM    5  C5  UNL     1      15.452  -5.280  13.810  1.00  0.00    -0.064 C
HETATM    6  C13 UNL     1      14.577  -6.458  13.975  1.00  0.00    -0.013 C
HETATM    7  C14 UNL     1      15.256  -7.645  13.357  1.00  0.00     0.021 C
HETATM    8  C15 UNL     1      13.185  -6.435  13.434  1.00  0.00     0.046 C
HETATM    9  C16 UNL     1      12.224  -7.327  14.199  1.00  0.00     0.124 C
HETATM   10  C17 UNL     1      12.861  -8.328  15.089  1.00  0.00     0.027 C
HETATM   11  C18 UNL     1      13.867  -7.714  16.073  1.00  0.00    -0.001 C
HETATM   12  C19 UNL     1      14.746  -8.738  16.665  1.00  0.00     0.006 C
HETATM   13  C20 UNL     1      14.137 -10.117  16.380  1.00  0.00     0.006 C
HETATM   14  C21 UNL     1      12.660 -10.147  16.674  1.00  0.00    -0.004 C
HETATM   15  C22 UNL     1      12.490  -9.971  18.150  1.00  0.00     0.037 C
HETATM   16  C23 UNL     1      11.064  -9.915  18.596  1.00  0.00     0.118 C
HETATM   17  C24 UNL     1      10.128  -9.390  17.571  1.00  0.00     0.032 C
HETATM   18  C25 UNL     1      10.782  -8.482  16.534  1.00  0.00     0.012 C
HETATM   19  C26 UNL     1      11.862  -9.197  15.818  1.00  0.00    -0.034 C
HETATM   20  C27 UNL     1      11.179 -10.036  14.721  1.00  0.00     0.016 C
HETATM   21  C28 UNL     1      14.398  -6.499  15.478  1.00  0.00     0.018 C
ENDROOT
BRANCH   5  22
HETATM   22  C6  UNL     1      15.547  -4.536  12.563  1.00  0.00    -0.060 C
HETATM   23  C7  UNL     1      16.777  -5.062  11.758  1.00  0.00     0.048 C
BRANCH  22  24
HETATM   24  C8  UNL     1      15.413  -3.098  12.457  1.00  0.00     0.016 C
BRANCH  24  25
HETATM   25  C9  UNL     1      14.198  -2.396  12.041  1.00  0.00     0.169 C
BRANCH  25  26
HETATM   26  O1  UNL     1      13.218  -3.447  11.949  1.00  0.00    -0.387 OA
ATOM     27  H1  UNL     1      13.340  -3.788  11.071  1.00  0.00     0.210 HD
ENDBRANCH  25  26
BRANCH  25  28
HETATM   28  C10 UNL     1      14.164  -1.785  10.713  1.00  0.00    -0.061 C
HETATM   29  C11 UNL     1      15.267  -1.649  10.009  1.00  0.00     0.017 C
HETATM   30  C12 UNL     1      12.903  -1.285  10.127  1.00  0.00     0.045 C
ENDBRANCH  25  28
ENDBRANCH  24  25
ENDBRANCH  22  24
ENDBRANCH   5  22
BRANCH   9  31
HETATM   31  O2  UNL     1      11.275  -6.531  14.874  1.00  0.00    -0.395 OA
ATOM     32  H2  UNL     1      10.777  -7.071  15.476  1.00  0.00     0.210 HD
ENDBRANCH   9  31
BRANCH  16  33
HETATM   33  O3  UNL     1      10.977  -9.165  19.788  1.00  0.00    -0.396 OA
ATOM     34  H3  UNL     1      10.407  -8.419  19.649  1.00  0.00     0.210 HD
ENDBRANCH  16  33
TORSDOF 7
ENDMDL