MODEL 1
REMARK VINA RESULT: -7.581698694      0.000      0.000
REMARK  6 active torsions:
REMARK  status: ('A' for Active; 'I' for Inactive)
REMARK    1  A    between atoms: N1_2  and  C2_5
REMARK    2  A    between atoms: C6_9  and  O1_10
REMARK    3  A    between atoms: C15_20  and  C16_21
REMARK    4  A    between atoms: C16_21  and  C18_23
REMARK    5  A    between atoms: C26_31  and  C27_32
REMARK    6  A    between atoms: C27_32  and  O2_33
ROOT
HETATM    1  C2  UNL     1      15.295  -7.571  13.446  1.00  0.00     0.197 C
HETATM    2  C3  UNL     1      14.978  -8.382  14.679  1.00  0.00     0.039 C
HETATM    3  C4  UNL     1      15.799  -8.055  15.867  1.00  0.00    -0.002 C
HETATM    4  C5  UNL     1      17.147  -8.756  15.689  1.00  0.00     0.037 C
HETATM    5  C6  UNL     1      17.689  -8.994  17.086  1.00  0.00     0.118 C
HETATM    6  C7  UNL     1      17.499  -7.680  17.830  1.00  0.00     0.032 C
HETATM    7  C8  UNL     1      17.337  -6.525  16.886  1.00  0.00     0.012 C
HETATM    8  C9  UNL     1      15.973  -6.581  16.153  1.00  0.00    -0.036 C
HETATM    9  C10 UNL     1      15.005  -6.086  17.199  1.00  0.00     0.016 C
HETATM   10  C11 UNL     1      16.103  -5.737  14.947  1.00  0.00     0.007 C
HETATM   11  C12 UNL     1      15.927  -4.287  15.285  1.00  0.00     0.007 C
HETATM   12  C13 UNL     1      16.246  -3.371  14.138  1.00  0.00     0.006 C
HETATM   13  C14 UNL     1      15.611  -3.812  12.830  1.00  0.00    -0.005 C
HETATM   14  C15 UNL     1      16.045  -2.939  11.709  1.00  0.00    -0.006 C
HETATM   15  C21 UNL     1      17.141  -3.544  10.861  1.00  0.00     0.006 C
HETATM   16  C22 UNL     1      16.739  -4.952  10.436  1.00  0.00     0.005 C
HETATM   17  C23 UNL     1      16.848  -5.735  11.769  1.00  0.00    -0.013 C
HETATM   18  C24 UNL     1      18.224  -5.615  12.210  1.00  0.00     0.010 C
HETATM   19  C25 UNL     1      15.700  -5.279  12.567  1.00  0.00     0.007 C
HETATM   20  C26 UNL     1      15.274  -6.092  13.753  1.00  0.00     0.018 C
ENDROOT
BRANCH  14  21
HETATM   21  C16 UNL     1      14.986  -2.387  10.821  1.00  0.00    -0.010 C
HETATM   22  C17 UNL     1      15.531  -1.396   9.827  1.00  0.00     0.011 C
BRANCH  21  23
HETATM   23  C18 UNL     1      13.782  -1.834  11.471  1.00  0.00    -0.010 A
HETATM   24  C19 UNL     1      12.479  -2.539  11.074  1.00  0.00     0.005 A
HETATM   25  C20 UNL     1      12.688  -1.109  10.730  1.00  0.00     0.005 A
ENDBRANCH  21  23
ENDBRANCH  14  21
BRANCH  20  26
HETATM   26  C27 UNL     1      13.813  -5.745  14.013  1.00  0.00     0.176 C
BRANCH  26  27
HETATM   27  O2  UNL     1      13.095  -5.478  12.850  1.00  0.00    -0.400 OA
ATOM     28  H2  UNL     1      12.813  -4.574  12.781  1.00  0.00     0.209 HD
ENDBRANCH  26  27
ENDBRANCH  20  26
BRANCH   1  29
HETATM   29  N1  UNL     1      14.372  -7.938  12.433  1.00  0.00    -0.074 N
HETATM   30  C1  UNL     1      13.493  -9.031  12.809  1.00  0.00     0.267 C
ATOM     31  H12 UNL     1      14.859  -8.151  11.562  1.00  0.00     0.277 HD
ATOM     32  H11 UNL     1      13.829  -7.128  12.131  1.00  0.00     0.277 HD
ENDBRANCH   1  29
BRANCH   5  33
HETATM   33  O1  UNL     1      19.019  -9.354  16.973  1.00  0.00    -0.396 OA
ATOM     34  H1  UNL     1      19.064 -10.301  16.913  1.00  0.00     0.210 HD
ENDBRANCH   5  33
TORSDOF 6
ENDMDL