MODEL 2
REMARK VINA RESULT: -7.332724588      1.872      2.374
REMARK  6 active torsions:
REMARK  status: ('A' for Active; 'I' for Inactive)
REMARK    1  A    between atoms: C2_2  and  C3_3
REMARK    2  A    between atoms: C2_2  and  C4_6
REMARK    3  A    between atoms: C3_3  and  O1_4
REMARK    4  A    between atoms: C5_7  and  O2_8
REMARK    5  A    between atoms: C16_20  and  N1_21
REMARK    6  A    between atoms: N1_21  and  C17_23
ROOT
HETATM    1  C4  UNL     1      18.296  -7.125  15.367  1.00  0.00     0.049 C
HETATM    2  C5  UNL     1      18.509  -7.729  14.044  1.00  0.00     0.127 C
HETATM    3  C6  UNL     1      17.118  -8.190  13.673  1.00  0.00     0.042 C
HETATM    4  C7  UNL     1      16.097  -7.334  14.307  1.00  0.00    -0.030 C
HETATM    5  C8  UNL     1      14.990  -8.321  14.770  1.00  0.00     0.016 C
HETATM    6  C9  UNL     1      16.785  -6.860  15.514  1.00  0.00     0.005 C
HETATM    7  C10 UNL     1      16.666  -5.468  15.959  1.00  0.00     0.006 C
HETATM    8  C11 UNL     1      15.465  -4.869  15.287  1.00  0.00     0.006 C
HETATM    9  C12 UNL     1      15.755  -4.941  13.784  1.00  0.00     0.003 C
HETATM   10  C13 UNL     1      15.128  -3.805  13.064  1.00  0.00    -0.034 C
HETATM   11  C14 UNL     1      15.311  -2.579  13.956  1.00  0.00     0.016 C
HETATM   12  C15 UNL     1      15.892  -3.382  11.783  1.00  0.00     0.035 C
HETATM   13  C16 UNL     1      15.030  -2.732  10.784  1.00  0.00     0.082 C
HETATM   14  C19 UNL     1      13.772  -2.048  11.281  1.00  0.00     0.034 C
HETATM   15  C20 UNL     1      12.936  -2.881  12.221  1.00  0.00    -0.042 C
HETATM   16  C21 UNL     1      12.293  -2.090  13.307  1.00  0.00     0.015 C
HETATM   17  C22 UNL     1      11.732  -3.410  11.401  1.00  0.00     0.015 C
HETATM   18  C23 UNL     1      13.750  -4.055  12.592  1.00  0.00     0.002 C
HETATM   19  C24 UNL     1      13.121  -5.107  13.423  1.00  0.00     0.007 C
HETATM   20  C25 UNL     1      13.861  -6.382  13.552  1.00  0.00     0.011 C
HETATM   21  C26 UNL     1      15.363  -6.333  13.425  1.00  0.00    -0.032 C
HETATM   22  C27 UNL     1      15.701  -6.799  12.036  1.00  0.00     0.016 C
ENDROOT
BRANCH   1  23
HETATM   23  C2  UNL     1      18.872  -7.766  16.555  1.00  0.00    -0.059 C
HETATM   24  C1  UNL     1      18.082  -8.582  17.295  1.00  0.00     0.017 C
BRANCH  23  25
HETATM   25  C3  UNL     1      20.263  -7.659  17.024  1.00  0.00     0.198 C
BRANCH  25  26
HETATM   26  O1  UNL     1      21.177  -7.160  16.127  1.00  0.00    -0.397 OA
ATOM     27  H1  UNL     1      20.826  -6.740  15.350  1.00  0.00     0.209 HD
ENDBRANCH  25  26
ENDBRANCH  23  25
ENDBRANCH   1  23
BRANCH   2  28
HETATM   28  O2  UNL     1      19.390  -8.787  14.093  1.00  0.00    -0.395 OA
ATOM     29  H2  UNL     1      19.563  -9.149  13.232  1.00  0.00     0.210 HD
ENDBRANCH   2  28
BRANCH  13  30
HETATM   30  N1  UNL     1      15.696  -1.769   9.978  1.00  0.00    -0.398 N
ATOM     31  H1  UNL     1      15.175  -0.967   9.623  1.00  0.00     0.159 HD
BRANCH  30  32
HETATM   32  C17 UNL     1      17.061  -1.902   9.664  1.00  0.00     0.051 C
HETATM   33  C18 UNL     1      17.749  -0.699   9.088  1.00  0.00     0.054 C
ENDBRANCH  30  32
ENDBRANCH  13  30
TORSDOF 6
ENDMDL