MODEL 4
REMARK VINA RESULT: -7.552101420      2.165      4.779
REMARK  8 active torsions:
REMARK  status: ('A' for Active; 'I' for Inactive)
REMARK    1  A    between atoms: C2_2  and  C4_4
REMARK    2  A    between atoms: C4_4  and  C6_6
REMARK    3  A    between atoms: C6_6  and  C7_7
REMARK    4  A    between atoms: C7_7  and  C8_8
REMARK    5  A    between atoms: C8_8  and  C10_10
REMARK    6  A    between atoms: C16_16  and  O1_17
REMARK    7  A    between atoms: C19_21  and  O2_22
REMARK    8  A    between atoms: C20_24  and  O3_25
ROOT
HETATM    1  C10 UNL     1      15.984  -2.534  11.460  1.00  0.00    -0.002 C
HETATM    2  C11 UNL     1      14.521  -2.425  11.820  1.00  0.00     0.006 C
HETATM    3  C12 UNL     1      14.397  -3.568  12.847  1.00  0.00     0.006 C
HETATM    4  C13 UNL     1      15.117  -4.644  12.117  1.00  0.00    -0.002 C
HETATM    5  C14 UNL     1      15.260  -5.957  12.805  1.00  0.00    -0.003 C
HETATM    6  C15 UNL     1      13.952  -6.419  13.338  1.00  0.00     0.038 C
HETATM    7  C16 UNL     1      13.771  -6.451  14.799  1.00  0.00     0.129 C
HETATM    8  C17 UNL     1      15.005  -6.867  15.542  1.00  0.00     0.014 C
HETATM    9  C18 UNL     1      15.457  -8.245  15.220  1.00  0.00     0.021 C
HETATM   10  C19 UNL     1      14.929  -6.695  17.021  1.00  0.00     0.158 C
HETATM   11  C20 UNL     1      16.403  -6.556  17.406  1.00  0.00     0.148 C
HETATM   12  C21 UNL     1      17.130  -6.121  16.140  1.00  0.00     0.040 C
HETATM   13  C22 UNL     1      16.046  -5.794  15.187  1.00  0.00     0.006 C
HETATM   14  C23 UNL     1      16.412  -6.091  13.746  1.00  0.00    -0.005 C
HETATM   15  C24 UNL     1      17.622  -5.328  13.395  1.00  0.00     0.006 C
HETATM   16  C25 UNL     1      17.436  -3.993  12.794  1.00  0.00     0.010 C
HETATM   17  C26 UNL     1      16.383  -3.975  11.706  1.00  0.00    -0.036 C
HETATM   18  C27 UNL     1      16.956  -4.676  10.523  1.00  0.00     0.016 C
ENDROOT
BRANCH   1  19
HETATM   19  C8  UNL     1      16.304  -2.039  10.105  1.00  0.00    -0.014 C
HETATM   20  C9  UNL     1      15.296  -1.090   9.519  1.00  0.00     0.010 C
BRANCH  19  21
HETATM   21  C7  UNL     1      17.608  -1.212  10.188  1.00  0.00     0.005 C
BRANCH  21  22
HETATM   22  C6  UNL     1      18.533  -1.442   9.070  1.00  0.00     0.009 C
BRANCH  22  23
HETATM   23  C4  UNL     1      19.675  -2.363   9.343  1.00  0.00     0.009 C
HETATM   24  C5  UNL     1      20.017  -2.267  10.850  1.00  0.00     0.015 C
BRANCH  23  25
HETATM   25  C2  UNL     1      20.875  -2.099   8.571  1.00  0.00    -0.089 C
HETATM   26  C1  UNL     1      21.832  -3.042   8.494  1.00  0.00     0.014 C
HETATM   27  C3  UNL     1      21.099  -0.871   7.799  1.00  0.00     0.043 C
ENDBRANCH  23  25
ENDBRANCH  22  23
ENDBRANCH  21  22
ENDBRANCH  19  21
ENDBRANCH   1  19
BRANCH   7  28
HETATM   28  O1  UNL     1      13.323  -5.264  15.372  1.00  0.00    -0.395 OA
ATOM     29  H1  UNL     1      12.380  -5.162  15.416  1.00  0.00     0.210 HD
ENDBRANCH   7  28
BRANCH  10  30
HETATM   30  O2  UNL     1      14.403  -7.874  17.580  1.00  0.00    -0.392 OA
ATOM     31  H2  UNL     1      15.123  -8.392  17.921  1.00  0.00     0.210 HD
ENDBRANCH  10  30
BRANCH  11  32
HETATM   32  O3  UNL     1      16.931  -7.725  17.893  1.00  0.00    -0.393 OA
ATOM     33  H3  UNL     1      16.279  -8.270  18.317  1.00  0.00     0.210 HD
ENDBRANCH  11  32
TORSDOF 8
ENDMDL