MODEL 2
REMARK VINA RESULT: -8.453549563      2.366      5.906
REMARK  6 active torsions:
REMARK  status: ('A' for Active; 'I' for Inactive)
REMARK    1  A    between atoms: C2_2  and  C3_3
REMARK    2  A    between atoms: C6_6  and  O1_7
REMARK    3  A    between atoms: C13_15  and  C14_16
REMARK    4  A    between atoms: C21_23  and  C22_24
REMARK    5  A    between atoms: C24_26  and  C25_27
REMARK    6  A    between atoms: C26_30  and  O4_31
ROOT
HETATM    1  C3  UNL     1      12.575  -2.384  11.945  1.00  0.00    -0.022 C
HETATM    2  C4  UNL     1      12.569  -0.938  11.492  1.00  0.00     0.019 C
HETATM    3  C5  UNL     1      12.588  -2.440  13.441  1.00  0.00     0.045 C
HETATM    4  C6  UNL     1      13.155  -3.761  13.870  1.00  0.00     0.130 C
HETATM    5  C7  UNL     1      14.685  -3.858  13.654  1.00  0.00     0.019 C
HETATM    6  C8  UNL     1      15.242  -3.266  14.907  1.00  0.00     0.021 C
HETATM    7  C9  UNL     1      14.888  -5.337  13.524  1.00  0.00     0.012 C
HETATM    8  C10 UNL     1      14.209  -6.188  14.523  1.00  0.00     0.011 C
HETATM    9  C11 UNL     1      15.186  -6.942  15.368  1.00  0.00    -0.009 C
HETATM   10  C12 UNL     1      14.943  -8.422  15.387  1.00  0.00     0.011 C
HETATM   11  C13 UNL     1      16.516  -6.488  14.876  1.00  0.00     0.029 C
HETATM   12  C17 UNL     1      16.273  -5.885  13.508  1.00  0.00    -0.014 C
HETATM   13  C18 UNL     1      16.376  -6.943  12.431  1.00  0.00     0.021 C
HETATM   14  C19 UNL     1      17.326  -4.887  13.192  1.00  0.00    -0.020 C
HETATM   15  C20 UNL     1      17.302  -3.836  12.396  1.00  0.00    -0.018 C
HETATM   16  C21 UNL     1      16.121  -3.423  11.603  1.00  0.00     0.072 C
HETATM   17  C26 UNL     1      14.963  -3.038  12.461  1.00  0.00     0.079 C
HETATM   18  C27 UNL     1      13.771  -3.110  11.452  1.00  0.00     0.053 C
ENDROOT
BRANCH  16  19
HETATM   19  C22 UNL     1      16.621  -2.296  10.719  1.00  0.00    -0.067 C
HETATM   20  C23 UNL     1      15.727  -1.577   9.801  1.00  0.00     0.044 C
HETATM   21  C24 UNL     1      17.873  -1.916  10.828  1.00  0.00     0.087 C
BRANCH  21  22
HETATM   22  C25 UNL     1      18.464  -0.870  10.050  1.00  0.00     0.198 C
HETATM   23  O2  UNL     1      18.618   0.278  10.520  1.00  0.00    -0.644 OA
HETATM   24  O3  UNL     1      18.896  -1.086   8.722  1.00  0.00    -0.644 OA
ENDBRANCH  21  22
ENDBRANCH  16  19
BRANCH  17  25
HETATM   25  O4  UNL     1      15.109  -1.699  12.773  1.00  0.00    -0.388 OA
ATOM     26  H4  UNL     1      14.433  -1.163  12.376  1.00  0.00     0.210 HD
ENDBRANCH  17  25
BRANCH   4  27
HETATM   27  O1  UNL     1      12.475  -4.750  13.178  1.00  0.00    -0.395 OA
ATOM     28  H1  UNL     1      13.124  -5.297  12.751  1.00  0.00     0.210 HD
ENDBRANCH   4  27
BRANCH   1  29
HETATM   29  C2  UNL     1      11.366  -3.040  11.379  1.00  0.00    -0.027 C
HETATM   30  C1  UNL     1      11.291  -3.444  10.118  1.00  0.00     0.007 C
ENDBRANCH   1  29
BRANCH  11  31
HETATM   31  C14 UNL     1      17.665  -7.346  15.046  1.00  0.00    -0.088 C
HETATM   32  C15 UNL     1      18.254  -7.426  16.247  1.00  0.00     0.014 C
HETATM   33  C16 UNL     1      18.327  -8.218  14.036  1.00  0.00     0.043 C
ENDBRANCH  11  31
TORSDOF 6
ENDMDL