MODEL 1
REMARK VINA RESULT: -8.621130214      0.000      0.000
REMARK  7 active torsions:
REMARK  status: ('A' for Active; 'I' for Inactive)
REMARK    1  A    between atoms: C2_2  and  C4_4
REMARK    2  A    between atoms: C5_5  and  C6_6
REMARK    3  A    between atoms: C6_6  and  C7_7
REMARK    4  A    between atoms: C6_6  and  C10_10
REMARK    5  A    between atoms: C14_14  and  O1_15
REMARK    6  A    between atoms: C26_28  and  O2_29
REMARK    7  A    between atoms: C28_32  and  O3_33
ROOT
HETATM    1  C10 UNL     1      15.448  -4.258  13.059  1.00  0.00     0.023 C
HETATM    2  C11 UNL     1      16.370  -5.392  12.817  1.00  0.00     0.023 C
HETATM    3  C12 UNL     1      16.029  -6.627  13.658  1.00  0.00     0.018 C
HETATM    4  C13 UNL     1      17.068  -7.603  13.065  1.00  0.00     0.021 C
HETATM    5  C14 UNL     1      14.716  -7.214  13.402  1.00  0.00     0.158 C
HETATM    6  C15 UNL     1      14.081  -7.880  14.571  1.00  0.00    -0.049 C
HETATM    7  C16 UNL     1      12.738  -8.025  14.586  1.00  0.00    -0.016 C
HETATM    8  C17 UNL     1      12.067  -8.685  15.728  1.00  0.00     0.008 C
HETATM    9  C18 UNL     1      10.732  -9.250  15.386  1.00  0.00     0.014 C
HETATM   10  C19 UNL     1      13.055  -9.756  16.181  1.00  0.00    -0.011 C
HETATM   11  C20 UNL     1      12.452 -10.745  17.108  1.00  0.00     0.010 C
HETATM   12  C21 UNL     1      14.192  -8.962  16.789  1.00  0.00     0.014 C
HETATM   13  C22 UNL     1      14.954  -8.346  15.634  1.00  0.00     0.028 C
HETATM   14  C23 UNL     1      15.941  -7.329  16.070  1.00  0.00    -0.008 C
HETATM   15  C24 UNL     1      15.431  -6.745  17.401  1.00  0.00     0.018 C
HETATM   16  C25 UNL     1      17.160  -8.142  16.570  1.00  0.00     0.018 C
HETATM   17  C26 UNL     1      16.325  -6.274  15.097  1.00  0.00     0.078 C
HETATM   18  C27 UNL     1      15.948  -4.873  15.464  1.00  0.00     0.071 C
HETATM   19  C28 UNL     1      15.121  -4.096  14.497  1.00  0.00     0.126 C
ENDROOT
BRANCH   1  20
HETATM   20  C6  UNL     1      15.694  -3.045  12.267  1.00  0.00     0.017 C
BRANCH  20  21
HETATM   21  C5  UNL     1      14.372  -2.618  11.662  1.00  0.00    -0.025 C
HETATM   22  C4  UNL     1      13.557  -1.776  12.235  1.00  0.00    -0.026 C
BRANCH  22  23
HETATM   23  C2  UNL     1      12.282  -1.421  11.558  1.00  0.00    -0.001 C
HETATM   24  C1  UNL     1      12.641  -0.552  10.369  1.00  0.00     0.013 C
HETATM   25  C3  UNL     1      11.338  -0.678  12.490  1.00  0.00     0.013 C
ENDBRANCH  22  23
ENDBRANCH  20  21
BRANCH  20  26
HETATM   26  C7  UNL     1      16.663  -2.976  11.183  1.00  0.00    -0.015 C
HETATM   27  C8  UNL     1      16.300  -2.205   9.941  1.00  0.00     0.010 C
HETATM   28  C9  UNL     1      18.101  -2.702  11.573  1.00  0.00     0.010 C
ENDBRANCH  20  26
ENDBRANCH   1  20
BRANCH  19  29
HETATM   29  O3  UNL     1      13.735  -4.265  14.781  1.00  0.00    -0.395 OA
ATOM     30  H3  UNL     1      13.358  -5.035  14.369  1.00  0.00     0.210 HD
ENDBRANCH  19  29
BRANCH   5  31
HETATM   31  O1  UNL     1      14.755  -8.249  12.421  1.00  0.00    -0.390 OA
ATOM     32  H1  UNL     1      13.891  -8.555  12.174  1.00  0.00     0.210 HD
ENDBRANCH   5  31
BRANCH  17  33
HETATM   33  O2  UNL     1      17.753  -6.264  15.106  1.00  0.00    -0.388 OA
ATOM     34  H2  UNL     1      17.946  -6.716  15.919  1.00  0.00     0.210 HD
ENDBRANCH  17  33
TORSDOF 7
ENDMDL