MODEL 4
REMARK VINA RESULT: -7.975930328      1.898      3.554
REMARK  6 active torsions:
REMARK  status: ('A' for Active; 'I' for Inactive)
REMARK    1  A    between atoms: C2_2  and  C4_4
REMARK    2  A    between atoms: C4_4  and  N1_5
REMARK    3  A    between atoms: C4_4  and  C25_31
REMARK    4  A    between atoms: N1_5  and  C5_7
REMARK    5  A    between atoms: C14_16  and  O1_17
REMARK    6  A    between atoms: C19_23  and  O2_24
ROOT
HETATM    1  C5  UNL     1      17.171  -4.570  11.816  1.00  0.00     0.078 C
HETATM    2  C6  UNL     1      16.764  -3.768  13.047  1.00  0.00     0.030 C
HETATM    3  C7  UNL     1      16.484  -4.847  14.083  1.00  0.00    -0.004 C
HETATM    4  C8  UNL     1      15.248  -4.456  14.813  1.00  0.00     0.006 C
HETATM    5  C9  UNL     1      14.496  -5.531  15.492  1.00  0.00     0.010 C
HETATM    6  C10 UNL     1      15.003  -6.921  15.279  1.00  0.00    -0.035 C
HETATM    7  C11 UNL     1      16.115  -7.138  16.295  1.00  0.00     0.016 C
HETATM    8  C12 UNL     1      13.956  -7.942  15.641  1.00  0.00     0.007 C
HETATM    9  C13 UNL     1      14.558  -9.320  15.844  1.00  0.00     0.038 C
HETATM   10  C14 UNL     1      13.518 -10.107  16.653  1.00  0.00     0.118 C
HETATM   11  C15 UNL     1      12.237 -10.106  15.883  1.00  0.00     0.032 C
HETATM   12  C16 UNL     1      12.423  -9.517  14.523  1.00  0.00     0.014 C
HETATM   13  C17 UNL     1      12.807  -8.051  14.698  1.00  0.00    -0.013 C
HETATM   14  C18 UNL     1      11.541  -7.391  15.272  1.00  0.00     0.018 C
HETATM   15  C19 UNL     1      13.025  -7.444  13.357  1.00  0.00     0.127 C
HETATM   16  C20 UNL     1      14.437  -7.616  12.915  1.00  0.00     0.038 C
HETATM   17  C21 UNL     1      15.498  -7.178  13.868  1.00  0.00     0.005 C
HETATM   18  C22 UNL     1      16.450  -6.150  13.379  1.00  0.00    -0.034 C
HETATM   19  C23 UNL     1      17.893  -6.688  13.335  1.00  0.00     0.016 C
HETATM   20  C24 UNL     1      16.190  -5.691  11.927  1.00  0.00     0.034 C
ENDROOT
BRANCH   1  21
HETATM   21  N1  UNL     1      17.294  -3.838  10.659  1.00  0.00    -0.412 N
ATOM     22  H1  UNL     1      17.517  -4.359   9.812  1.00  0.00     0.154 HD
BRANCH  21  23
HETATM   23  C4  UNL     1      17.148  -2.462  10.520  1.00  0.00     0.083 C
BRANCH  23  24
HETATM   24  C2  UNL     1      15.877  -2.072   9.850  1.00  0.00     0.000 C
HETATM   25  C1  UNL     1      15.904  -0.766   9.101  1.00  0.00     0.011 C
HETATM   26  C3  UNL     1      14.668  -1.987  10.773  1.00  0.00     0.011 C
ENDBRANCH  23  24
BRANCH  23  27
HETATM   27  C25 UNL     1      18.346  -1.751   9.949  1.00  0.00     0.000 C
HETATM   28  C26 UNL     1      18.948  -0.681  10.772  1.00  0.00     0.011 C
HETATM   29  C27 UNL     1      19.475  -2.737   9.617  1.00  0.00     0.011 C
ENDBRANCH  23  27
ENDBRANCH  21  23
ENDBRANCH   1  21
BRANCH  15  30
HETATM   30  O2  UNL     1      12.224  -8.182  12.447  1.00  0.00    -0.395 OA
ATOM     31  H2  UNL     1      12.211  -7.685  11.638  1.00  0.00     0.210 HD
ENDBRANCH  15  30
BRANCH  10  32
HETATM   32  O1  UNL     1      13.974 -11.360  17.007  1.00  0.00    -0.396 OA
ATOM     33  H1  UNL     1      14.011 -11.475  17.949  1.00  0.00     0.210 HD
ENDBRANCH  10  32
TORSDOF 6
ENDMDL