MODEL 4
REMARK VINA RESULT: -5.252057655      1.846      7.020
REMARK  8 active torsions:
REMARK  status: ('A' for Active; 'I' for Inactive)
REMARK    1  A    between atoms: N1_1  and  N2_4
REMARK    2  A    between atoms: N2_4  and  C1_6
REMARK    3  A    between atoms: C3_11  and  O1_12
REMARK    4  A    between atoms: O1_12  and  C4_13
REMARK    5  A    between atoms: C4_13  and  O2_14
REMARK    6  A    between atoms: C4_13  and  C5_16
REMARK    7  A    between atoms: C7_18  and  C8_19
REMARK    8  A    between atoms: C10_24  and  N6_25
ROOT
HETATM    1  C5  UNL     1     -65.255  -5.650  -5.220  1.00  0.00     0.067 A
HETATM    2  C6  UNL     1     -65.699  -5.062  -4.054  1.00  0.00     0.059 A
HETATM    3  C7  UNL     1     -65.609  -5.685  -2.834  1.00  0.00     0.054 A
HETATM    4  N8  UNL     1     -65.056  -6.918  -2.844  1.00  0.00    -0.352 N
ATOM      5  H8  UNL     1     -64.964  -7.427  -1.964  1.00  0.00     0.166 HD
HETATM    6  C12 UNL     1     -64.622  -7.494  -3.982  1.00  0.00     0.181 A
HETATM    7  N9  UNL     1     -64.718  -6.870  -5.162  1.00  0.00    -0.352 N
ATOM      8  H9  UNL     1     -64.384  -7.323  -6.012  1.00  0.00     0.166 HD
ENDROOT
BRANCH   1   9
HETATM    9  C4  UNL     1     -65.394  -4.894  -6.501  1.00  0.00     0.309 C
BRANCH   9  10
HETATM   10  O1  UNL     1     -64.747  -3.679  -6.465  1.00  0.00    -0.342 OA
BRANCH  10  11
HETATM   11  C3  UNL     1     -64.749  -2.995  -7.660  1.00  0.00     0.211 C
HETATM   12  C1  UNL     1     -65.006  -1.569  -7.361  1.00  0.00     0.138 C
HETATM   13  N3  UNL     1     -64.247  -0.860  -8.100  1.00  0.00    -0.290 N
HETATM   14  N4  UNL     1     -63.439  -1.645  -8.922  1.00  0.00    -0.137 NA
ATOM     15  H3  UNL     1     -64.232   0.160  -8.090  1.00  0.00     0.183 HD
HETATM   16  C2  UNL     1     -63.453  -2.990  -8.381  1.00  0.00     0.175 C
BRANCH  12  17
HETATM   17  N2  UNL     1     -65.962  -1.051  -6.399  1.00  0.00    -0.293 N
ATOM     18  H2  UNL     1     -65.810  -0.136  -5.973  1.00  0.00     0.187 HD
BRANCH  17  19
HETATM   19  N1  UNL     1     -67.088  -1.804  -6.056  1.00  0.00    -0.344 N
ATOM     20  H12 UNL     1     -67.435  -1.765  -5.098  1.00  0.00     0.176 HD
ATOM     21  H11 UNL     1     -67.552  -2.380  -6.760  1.00  0.00     0.176 HD
ENDBRANCH  17  19
ENDBRANCH  12  17
ENDBRANCH  10  11
ENDBRANCH   9  10
BRANCH   9  22
HETATM   22  O2  UNL     1     -66.730  -4.783  -6.874  1.00  0.00    -0.366 OA
ATOM     23  H2  UNL     1     -67.267  -5.488  -6.532  1.00  0.00     0.213 HD
ENDBRANCH   9  22
ENDBRANCH   1   9
BRANCH   3  24
HETATM   24  C8  UNL     1     -66.055  -5.136  -1.539  1.00  0.00     0.237 C
HETATM   25  N5  UNL     1     -64.856  -4.687  -0.826  1.00  0.00    -0.332 N
HETATM   26  C9  UNL     1     -65.076  -4.155   0.484  1.00  0.00     0.259 C
ATOM     27  H5  UNL     1     -63.925  -4.749  -1.238  1.00  0.00     0.165 HD
HETATM   28  O3  UNL     1     -64.121  -4.143   1.297  1.00  0.00    -0.271 OA
HETATM   29  C10 UNL     1     -66.440  -3.630   0.842  1.00  0.00     0.365 C
HETATM   30  C11 UNL     1     -67.166  -3.291  -0.398  1.00  0.00     0.259 C
HETATM   31  O4  UNL     1     -68.014  -2.363  -0.361  1.00  0.00    -0.271 OA
HETATM   32  N7  UNL     1     -66.916  -4.000  -1.624  1.00  0.00    -0.332 N
ATOM     33  H7  UNL     1     -67.331  -3.707  -2.507  1.00  0.00     0.165 HD
BRANCH  29  34
HETATM   34  N6  UNL     1     -67.101  -4.613   1.645  1.00  0.00    -0.058 N
ATOM     35  H63 UNL     1     -67.247  -5.492   1.148  1.00  0.00     0.275 HD
ATOM     36  H62 UNL     1     -66.509  -4.974   2.392  1.00  0.00     0.275 HD
ATOM     37  H61 UNL     1     -67.971  -4.208   1.992  1.00  0.00     0.275 HD
ENDBRANCH  29  34
ENDBRANCH   3  24
TORSDOF 8
ENDMDL