MODEL 3
REMARK VINA RESULT: -5.486689205      2.990      5.203
REMARK  11 active torsions:
REMARK  status: ('A' for Active; 'I' for Inactive)
REMARK    1  A    between atoms: C1_4  and  N2_5
REMARK    2  A    between atoms: C1_4  and  C2_10
REMARK    3  A    between atoms: N2_5  and  N3_7
REMARK    4  A    between atoms: N5_13  and  C3_14
REMARK    5  A    between atoms: C3_14  and  C4_15
REMARK    6  A    between atoms: C4_15  and  O1_16
REMARK    7  A    between atoms: C4_15  and  C5_18
REMARK    8  A    between atoms: C5_18  and  O2_19
REMARK    9  A    between atoms: C6_21  and  N6_22
REMARK       I    between atoms: N6_22  and  C7_24
REMARK       I    between atoms: C7_24  and  N7_26
REMARK   10  A    between atoms: N7_26  and  C8_28
REMARK   11  A    between atoms: N12_37  and  N13_38
ROOT
HETATM    1  C2  UNL     1     -67.681  -7.353   1.351  1.00  0.00     0.205 A
HETATM    2  N4  UNL     1     -66.850  -6.527   0.702  1.00  0.00    -0.264 N
ATOM      3  H4  UNL     1     -65.861  -6.707   0.527  1.00  0.00     0.189 HD
HETATM    4  N5  UNL     1     -67.514  -5.430   0.319  1.00  0.00    -0.117 N
HETATM    5  C6  UNL     1     -68.778  -5.614   0.755  1.00  0.00     0.726 A
HETATM    6  N12 UNL     1     -68.900  -6.790   1.391  1.00  0.00    -0.069 N
ENDROOT
BRANCH   5   7
HETATM    7  N6  UNL     1     -69.699  -4.722   0.546  1.00  0.00    -0.137 N
HETATM    8  C7  UNL     1     -70.050  -3.738   1.506  1.00  0.00     0.353 C
HETATM    9  O3  UNL     1     -69.353  -2.672   1.621  1.00  0.00    -0.246 OA
HETATM   10  N7  UNL     1     -71.183  -3.948   2.338  1.00  0.00    -0.138 N
ATOM     11  H7  UNL     1     -71.840  -4.696   2.115  1.00  0.00     0.189 HD
ATOM     12  H6  UNL     1     -70.192  -4.730  -0.348  1.00  0.00     0.189 HD
BRANCH  10  13
HETATM   13  C8  UNL     1     -71.389  -3.213   3.360  1.00  0.00     0.717 A
HETATM   14  N8  UNL     1     -71.493  -3.603   4.633  1.00  0.00    -0.115 N
HETATM   15  N9  UNL     1     -71.704  -2.526   5.363  1.00  0.00    -0.213 N
ATOM     16  H8  UNL     1     -71.421  -4.561   4.977  1.00  0.00     0.207 HD
HETATM   17  N10 UNL     1     -71.737  -1.466   4.583  1.00  0.00    -0.213 N
ATOM     18  H9  UNL     1     -71.824  -2.516   6.376  1.00  0.00     0.210 HD
HETATM   19  N11 UNL     1     -71.543  -1.882   3.341  1.00  0.00    -0.115 N
ATOM     20  H10 UNL     1     -71.885  -0.502   4.880  1.00  0.00     0.210 HD
ATOM     21  H11 UNL     1     -71.515  -1.290   2.511  1.00  0.00     0.207 HD
ENDBRANCH  10  13
ENDBRANCH   5   7
BRANCH   4  22
HETATM   22  C3  UNL     1     -66.994  -4.289  -0.407  1.00  0.00     0.202 C
BRANCH  22  23
HETATM   23  C4  UNL     1     -66.128  -3.426   0.504  1.00  0.00     0.162 C
BRANCH  23  24
HETATM   24  O1  UNL     1     -66.475  -3.580   1.842  1.00  0.00    -0.392 OA
ATOM     25  H1  UNL     1     -65.846  -4.117   2.309  1.00  0.00     0.210 HD
ENDBRANCH  23  24
BRANCH  23  26
HETATM   26  C5  UNL     1     -64.659  -3.687   0.262  1.00  0.00     0.197 C
BRANCH  26  27
HETATM   27  O2  UNL     1     -64.071  -3.962   1.492  1.00  0.00    -0.398 OA
ATOM     28  H2  UNL     1     -63.310  -3.400   1.581  1.00  0.00     0.209 HD
ENDBRANCH  26  27
ENDBRANCH  23  26
ENDBRANCH  22  23
ENDBRANCH   4  22
BRANCH   6  29
HETATM   29  N13 UNL     1     -70.058  -7.320   1.976  1.00  0.00    -0.322 N
ATOM     30 2H13 UNL     1     -70.606  -6.915   2.735  1.00  0.00     0.178 HD
ATOM     31 1H13 UNL     1     -70.527  -8.192   1.732  1.00  0.00     0.178 HD
ENDBRANCH   6  29
BRANCH   1  32
HETATM   32  C1  UNL     1     -67.340  -8.648   1.924  1.00  0.00     0.162 C
HETATM   33  N1  UNL     1     -66.784  -8.743   3.089  1.00  0.00    -0.381 N
ATOM     34  H12 UNL     1     -66.545  -9.650   3.490  1.00  0.00     0.157 HD
ATOM     35  H11 UNL     1     -66.593  -7.876   3.591  1.00  0.00     0.157 HD
BRANCH  32  36
HETATM   36  N2  UNL     1     -67.606  -9.855   1.225  1.00  0.00    -0.289 N
ATOM     37  H2  UNL     1     -67.769 -10.732   1.719  1.00  0.00     0.188 HD
BRANCH  36  38
HETATM   38  N3  UNL     1     -67.635  -9.788  -0.188  1.00  0.00    -0.344 N
ATOM     39  H32 UNL     1     -67.184  -9.016  -0.680  1.00  0.00     0.176 HD
ATOM     40  H31 UNL     1     -68.122 -10.538  -0.679  1.00  0.00     0.176 HD
ENDBRANCH  36  38
ENDBRANCH  32  36
ENDBRANCH   1  32
TORSDOF 11
ENDMDL