MODEL 1
REMARK VINA RESULT: -4.971297427      0.000      0.000
REMARK  12 active torsions:
REMARK  status: ('A' for Active; 'I' for Inactive)
REMARK    1  A    between atoms: C3_7  and  N3_8
REMARK    2  A    between atoms: N3_8  and  N4_10
REMARK    3  A    between atoms: C5_14  and  N5_15
REMARK    4  A    between atoms: N5_15  and  C6_17
REMARK    5  A    between atoms: C6_17  and  O2_18
REMARK    6  A    between atoms: C6_17  and  C7_20
REMARK    7  A    between atoms: C7_20  and  O3_21
REMARK    8  A    between atoms: C7_20  and  C8_23
REMARK    9  A    between atoms: C8_23  and  O4_24
REMARK   10  A    between atoms: C8_23  and  C9_26
REMARK   11  A    between atoms: C9_26  and  O5_27
REMARK   12  A    between atoms: C9_26  and  O6_29
ROOT
HETATM    1  C1  UNL     1     -68.041  -7.678   6.346  1.00  0.00     0.163 C
HETATM    2  N1  UNL     1     -66.692  -8.252   6.251  1.00  0.00    -0.289 N
HETATM    3  C2  UNL     1     -66.443  -9.117   5.251  1.00  0.00     0.329 A
HETATM    4  O1  UNL     1     -67.314  -9.443   4.408  1.00  0.00    -0.246 OA
HETATM    5  N2  UNL     1     -65.223  -9.668   5.126  1.00  0.00    -0.292 N
ATOM      6  H2  UNL     1     -65.028 -10.323   4.369  1.00  0.00     0.172 HD
HETATM    7  C3  UNL     1     -64.274  -9.347   6.001  1.00  0.00     0.141 A
HETATM    8  C4  UNL     1     -64.493  -8.464   7.039  1.00  0.00     0.098 A
HETATM    9  C5  UNL     1     -63.521  -8.112   7.965  1.00  0.00     0.122 A
HETATM   10  N6  UNL     1     -63.793  -7.244   8.959  1.00  0.00    -0.338 N
ATOM     11  H6  UNL     1     -63.071  -6.993   9.635  1.00  0.00     0.168 HD
HETATM   12  C10 UNL     1     -65.018  -6.717   9.050  1.00  0.00     0.183 A
HETATM   13  N7  UNL     1     -65.982  -7.048   8.155  1.00  0.00    -0.337 N
ATOM     14  H7  UNL     1     -66.909  -6.632   8.246  1.00  0.00     0.168 HD
HETATM   15  C11 UNL     1     -65.749  -7.911   7.150  1.00  0.00     0.130 A
ENDROOT
BRANCH   9  16
HETATM   16  N5  UNL     1     -62.373  -8.657   7.814  1.00  0.00    -0.347 N
ATOM     17  H5  UNL     1     -61.983  -8.705   6.873  1.00  0.00     0.163 HD
BRANCH  16  18
HETATM   18  C6  UNL     1     -61.590  -9.215   8.914  1.00  0.00     0.250 C
BRANCH  18  19
HETATM   19  O2  UNL     1     -60.936  -8.070   9.450  1.00  0.00    -0.374 OA
ATOM     20  H2  UNL     1     -60.431  -8.432  10.168  1.00  0.00     0.212 HD
ENDBRANCH  18  19
BRANCH  18  21
HETATM   21  C7  UNL     1     -60.532 -10.140   8.416  1.00  0.00     0.200 C
BRANCH  21  22
HETATM   22  O3  UNL     1     -59.251  -9.859   8.815  1.00  0.00    -0.388 OA
ATOM     23  H3  UNL     1     -58.578  -9.954   8.153  1.00  0.00     0.210 HD
ENDBRANCH  21  22
BRANCH  21  24
HETATM   24  C8  UNL     1     -60.952 -11.566   8.449  1.00  0.00     0.206 C
BRANCH  24  25
HETATM   25  O4  UNL     1     -62.392 -11.535   8.337  1.00  0.00    -0.388 OA
ATOM     26  H4  UNL     1     -62.684 -12.370   8.685  1.00  0.00     0.210 HD
ENDBRANCH  24  25
BRANCH  24  27
HETATM   27  C9  UNL     1     -60.450 -12.445   7.355  1.00  0.00     0.285 C
BRANCH  27  28
HETATM   28  O5  UNL     1     -60.665 -11.966   6.087  1.00  0.00    -0.369 OA
ATOM     29  H5  UNL     1     -60.122 -11.226   5.844  1.00  0.00     0.212 HD
ENDBRANCH  27  28
BRANCH  27  30
HETATM   30  O6  UNL     1     -59.048 -12.580   7.502  1.00  0.00    -0.369 OA
ATOM     31  H6  UNL     1     -58.763 -11.991   8.190  1.00  0.00     0.212 HD
ENDBRANCH  27  30
ENDBRANCH  24  27
ENDBRANCH  21  24
ENDBRANCH  18  21
ENDBRANCH  16  18
ENDBRANCH   9  16
BRANCH   7  32
HETATM   32  N3  UNL     1     -63.094  -9.857   5.908  1.00  0.00    -0.291 N
ATOM     33  H3  UNL     1     -62.487  -9.855   6.728  1.00  0.00     0.188 HD
BRANCH  32  34
HETATM   34  N4  UNL     1     -62.622 -10.414   4.718  1.00  0.00    -0.344 N
ATOM     35  H42 UNL     1     -62.290  -9.781   3.990  1.00  0.00     0.176 HD
ATOM     36  H41 UNL     1     -62.602 -11.422   4.564  1.00  0.00     0.176 HD
ENDBRANCH  32  34
ENDBRANCH   7  32
TORSDOF 12
ENDMDL