MODEL 3
REMARK VINA RESULT: -4.510852215      2.430      4.536
REMARK  11 active torsions:
REMARK  status: ('A' for Active; 'I' for Inactive)
REMARK    1  A    between atoms: C2_2  and  O2_4
REMARK    2  A    between atoms: O2_4  and  C3_5
REMARK    3  A    between atoms: C3_5  and  C4_6
REMARK    4  A    between atoms: C3_5  and  C6_12
REMARK    5  A    between atoms: C4_6  and  O3_7
REMARK    6  A    between atoms: C4_6  and  C5_9
REMARK    7  A    between atoms: C5_9  and  O4_10
REMARK    8  A    between atoms: C6_12  and  O5_13
REMARK    9  A    between atoms: C8_18  and  N2_19
REMARK   10  A    between atoms: N4_28  and  N5_29
REMARK   11  A    between atoms: C11_32  and  O8_33
ROOT
HETATM    1  C6  UNL     1     -67.901  -5.004   0.932  1.00  0.00     0.175 C
HETATM    2  C7  UNL     1     -67.870  -5.038  -0.541  1.00  0.00     0.108 A
HETATM    3  N1  UNL     1     -68.975  -5.337  -1.257  1.00  0.00    -0.189 N
ATOM      4  H1  UNL     1     -69.841  -5.547  -0.760  1.00  0.00     0.184 HD
HETATM    5  C8  UNL     1     -68.975  -5.370  -2.608  1.00  0.00     0.679 A
HETATM    6  N3  UNL     1     -67.851  -5.100  -3.319  1.00  0.00    -0.154 N
ATOM      7  H3  UNL     1     -67.858  -5.126  -4.338  1.00  0.00     0.187 HD
HETATM    8  C9  UNL     1     -66.729  -4.797  -2.647  1.00  0.00     0.297 A
HETATM    9  O6  UNL     1     -65.644  -4.533  -3.228  1.00  0.00    -0.264 OA
HETATM   10  C10 UNL     1     -66.730  -4.763  -1.231  1.00  0.00     0.189 A
HETATM   11  O7  UNL     1     -65.572  -4.448  -0.556  1.00  0.00    -0.232 OA
HETATM   12  N4  UNL     1     -65.463  -4.751   0.761  1.00  0.00    -0.072 NA
HETATM   13  C11 UNL     1     -66.664  -4.394   1.511  1.00  0.00     0.284 C
ENDROOT
BRANCH   1  14
HETATM   14  C3  UNL     1     -68.214  -6.386   1.525  1.00  0.00     0.207 C
BRANCH  14  15
HETATM   15  O2  UNL     1     -69.537  -6.467   1.769  1.00  0.00    -0.310 OA
BRANCH  15  16
HETATM   16  C2  UNL     1     -70.257  -6.701   2.897  1.00  0.00     0.255 C
HETATM   17  C1  UNL     1     -70.646  -8.045   3.400  1.00  0.00     0.126 C
HETATM   18  O1  UNL     1     -70.559  -5.652   3.468  1.00  0.00    -0.266 OA
ENDBRANCH  15  16
ENDBRANCH  14  15
BRANCH  14  19
HETATM   19  C4  UNL     1     -67.406  -7.475   0.978  1.00  0.00     0.174 C
BRANCH  19  20
HETATM   20  O3  UNL     1     -66.636  -8.031   2.036  1.00  0.00    -0.391 OA
ATOM     21  H3  UNL     1     -65.762  -7.662   1.992  1.00  0.00     0.210 HD
ENDBRANCH  19  20
BRANCH  19  22
HETATM   22  C5  UNL     1     -67.979  -8.511   0.102  1.00  0.00     0.198 C
BRANCH  22  23
HETATM   23  O4  UNL     1     -67.459  -8.241  -1.202  1.00  0.00    -0.398 OA
ATOM     24  H4  UNL     1     -66.698  -8.802  -1.294  1.00  0.00     0.209 HD
ENDBRANCH  22  23
ENDBRANCH  19  22
ENDBRANCH  14  19
ENDBRANCH   1  14
BRANCH   1  25
HETATM   25  O5  UNL     1     -68.970  -4.122   1.232  1.00  0.00    -0.377 OA
ATOM     26  H5  UNL     1     -68.858  -3.321   0.735  1.00  0.00     0.211 HD
ENDBRANCH   1  25
BRANCH  13  27
HETATM   27  O8  UNL     1     -66.709  -3.001   1.535  1.00  0.00    -0.373 OA
ATOM     28  H8  UNL     1     -65.940  -2.614   1.936  1.00  0.00     0.212 HD
ENDBRANCH  13  27
BRANCH  12  29
HETATM   29  N5  UNL     1     -64.380  -4.052   1.289  1.00  0.00    -0.338 NA
ATOM     30  H52 UNL     1     -63.519  -4.443   0.906  1.00  0.00     0.173 HD
ATOM     31  H51 UNL     1     -64.416  -4.118   2.306  1.00  0.00     0.173 HD
ENDBRANCH  12  29
BRANCH   5  32
HETATM   32  N2  UNL     1     -70.073  -5.666  -3.217  1.00  0.00    -0.234 N
ATOM     33  H22 UNL     1     -70.844  -5.000  -3.239  1.00  0.00     0.174 HD
ATOM     34  H21 UNL     1     -70.148  -6.577  -3.673  1.00  0.00     0.174 HD
ENDBRANCH   5  32
TORSDOF 11
ENDMDL