MODEL 2
REMARK VINA RESULT: -5.386813230      8.045      9.577
REMARK  8 active torsions:
REMARK  status: ('A' for Active; 'I' for Inactive)
REMARK    1  A    between atoms: N1_1  and  C1_5
REMARK    2  A    between atoms: C3_7  and  N2_8
REMARK    3  A    between atoms: N2_8  and  C4_10
REMARK    4  A    between atoms: C5_15  and  C6_16
REMARK    5  A    between atoms: C6_16  and  N5_17
REMARK    6  A    between atoms: C6_16  and  C7_21
REMARK    7  A    between atoms: N6_24  and  C8_25
REMARK    8  A    between atoms: C9_28  and  O3_29
ROOT
HETATM    1  C4  UNL     1     -67.236  -7.089  -1.126  1.00  0.00     0.700 A
HETATM    2  N3  UNL     1     -67.401  -8.099  -1.989  1.00  0.00    -0.131 N
ATOM      3  H3  UNL     1     -68.010  -8.909  -1.867  1.00  0.00     0.205 HD
HETATM    4  N4  UNL     1     -66.627  -7.845  -3.025  1.00  0.00    -0.272 N
ATOM      5  H4  UNL     1     -66.531  -8.432  -3.854  1.00  0.00     0.189 HD
HETATM    6  C5  UNL     1     -65.976  -6.667  -2.804  1.00  0.00     0.160 A
HETATM    7  N6  UNL     1     -66.355  -6.187  -1.610  1.00  0.00    -0.124 N
ENDROOT
BRANCH   1   8
HETATM    8  N2  UNL     1     -67.832  -6.986   0.011  1.00  0.00    -0.211 N
ATOM      9  H2  UNL     1     -68.738  -6.518   0.034  1.00  0.00     0.178 HD
BRANCH   8  10
HETATM   10  C3  UNL     1     -67.307  -7.486   1.241  1.00  0.00     0.195 C
HETATM   11  C2  UNL     1     -67.787  -8.913   1.543  1.00  0.00     0.089 C
HETATM   12  C1  UNL     1     -67.553  -8.989   3.031  1.00  0.00     0.286 C
HETATM   13  N9  UNL     1     -68.073  -7.692   3.479  1.00  0.00    -0.332 N
HETATM   14  C10 UNL     1     -67.814  -6.769   2.429  1.00  0.00     0.242 C
ATOM     15  H9  UNL     1     -68.530  -7.491   4.369  1.00  0.00     0.164 HD
HETATM   16  O5  UNL     1     -67.990  -5.537   2.501  1.00  0.00    -0.271 OA
BRANCH  12  17
HETATM   17  N1  UNL     1     -68.265 -10.085   3.651  1.00  0.00    -0.058 N
ATOM     18  H13 UNL     1     -67.748 -10.959   3.553  1.00  0.00     0.276 HD
ATOM     19  H12 UNL     1     -68.254 -10.001   4.667  1.00  0.00     0.276 HD
ATOM     20  H11 UNL     1     -69.217 -10.181   3.301  1.00  0.00     0.276 HD
ENDBRANCH  12  17
ENDBRANCH   8  10
ENDBRANCH   1   8
BRANCH   7  21
HETATM   21  C8  UNL     1     -65.918  -4.972  -0.977  1.00  0.00     0.365 C
HETATM   22  N7  UNL     1     -64.840  -5.134  -0.055  1.00  0.00    -0.090 NA
HETATM   23  N8  UNL     1     -65.126  -4.240   0.984  1.00  0.00    -0.085 NA
HETATM   24  C9  UNL     1     -66.190  -3.372   0.451  1.00  0.00     0.377 C
HETATM   25  O4  UNL     1     -66.909  -4.256  -0.352  1.00  0.00    -0.304 OA
BRANCH  24  26
HETATM   26  O3  UNL     1     -66.933  -2.953   1.553  1.00  0.00    -0.357 OA
ATOM     27  H3  UNL     1     -67.744  -3.446   1.527  1.00  0.00     0.214 HD
ENDBRANCH  24  26
ENDBRANCH   7  21
BRANCH   6  28
HETATM   28  C6  UNL     1     -65.037  -6.118  -3.783  1.00  0.00     0.352 C
BRANCH  28  29
HETATM   29  N5  UNL     1     -64.559  -7.254  -4.584  1.00  0.00    -0.058 N
ATOM     30  H53 UNL     1     -65.313  -7.825  -4.966  1.00  0.00     0.275 HD
ATOM     31  H52 UNL     1     -64.147  -6.976  -5.475  1.00  0.00     0.275 HD
ATOM     32  H51 UNL     1     -63.917  -7.777  -3.988  1.00  0.00     0.275 HD
ENDBRANCH  28  29
BRANCH  28  33
HETATM   33  C7  UNL     1     -65.780  -5.228  -4.734  1.00  0.00     0.212 C
HETATM   34  O1  UNL     1     -66.761  -5.689  -5.366  1.00  0.00    -0.646 OA
HETATM   35  O2  UNL     1     -65.436  -3.919  -4.950  1.00  0.00    -0.646 OA
ENDBRANCH  28  33
ENDBRANCH   6  28
TORSDOF 8
ENDMDL