MODEL 1
REMARK VINA RESULT: -4.559437190      0.000      0.000
REMARK  13 active torsions:
REMARK  status: ('A' for Active; 'I' for Inactive)
REMARK    1  A    between atoms: N1_1  and  C1_5
REMARK    2  A    between atoms: C1_5  and  C2_6
REMARK    3  A    between atoms: C2_6  and  C3_7
REMARK    4  A    between atoms: C4_8  and  C5_9
REMARK    5  A    between atoms: C5_9  and  O1_10
REMARK    6  A    between atoms: C6_12  and  O2_13
REMARK    7  A    between atoms: C6_12  and  O3_15
REMARK    8  A    between atoms: O3_15  and  C7_16
REMARK       I    between atoms: C7_16  and  N2_18
REMARK    9  A    between atoms: N2_18  and  N3_20
REMARK   10  A    between atoms: C9_25  and  O6_26
REMARK   11  A    between atoms: C9_25  and  C10_28
REMARK   12  A    between atoms: C10_28  and  O7_29
REMARK   13  A    between atoms: C10_28  and  O8_31
ROOT
HETATM    1  C5  UNL     1     -67.484  -4.339   1.576  1.00  0.00     0.223 C
HETATM    2  C6  UNL     1     -68.621  -3.471   1.110  1.00  0.00     0.284 C
HETATM    3  C8  UNL     1     -68.861  -3.925  -0.279  1.00  0.00     0.235 C
HETATM    4  O5  UNL     1     -69.895  -4.023  -0.871  1.00  0.00    -0.288 OA
HETATM    5  C9  UNL     1     -67.508  -4.242  -0.785  1.00  0.00     0.210 C
HETATM    6  C11 UNL     1     -66.902  -5.010   0.337  1.00  0.00     0.173 A
HETATM    7  C12 UNL     1     -66.541  -6.332   0.356  1.00  0.00     0.215 A
HETATM    8  O9  UNL     1     -65.532  -5.251   0.358  1.00  0.00    -0.366 OA
ENDROOT
BRANCH   1   9
HETATM    9  C4  UNL     1     -68.050  -5.343   2.482  1.00  0.00    -0.059 C
HETATM   10  C3  UNL     1     -68.504  -6.181   3.252  1.00  0.00    -0.102 C
BRANCH  10  11
HETATM   11  C2  UNL     1     -69.048  -7.163   4.190  1.00  0.00     0.121 C
BRANCH  11  12
HETATM   12  C1  UNL     1     -68.076  -7.387   5.357  1.00  0.00     0.241 C
BRANCH  12  13
HETATM   13  N1  UNL     1     -67.915  -6.171   6.107  1.00  0.00    -0.079 N
ATOM     14  H13 UNL     1     -67.152  -5.598   5.747  1.00  0.00     0.274 HD
ATOM     15  H12 UNL     1     -68.682  -5.519   5.946  1.00  0.00     0.274 HD
ATOM     16  H11 UNL     1     -67.796  -6.383   7.098  1.00  0.00     0.274 HD
ENDBRANCH  12  13
ENDBRANCH  11  12
ENDBRANCH  10  11
ENDBRANCH   1   9
BRANCH   1  17
HETATM   17  O1  UNL     1     -66.456  -3.619   2.182  1.00  0.00    -0.369 OA
ATOM     18  H1  UNL     1     -65.785  -3.371   1.557  1.00  0.00     0.212 HD
ENDBRANCH   1  17
BRANCH   2  19
HETATM   19  O2  UNL     1     -68.051  -2.172   0.975  1.00  0.00    -0.356 OA
ATOM     20  H2  UNL     1     -68.782  -1.612   0.740  1.00  0.00     0.213 HD
ENDBRANCH   2  19
BRANCH   2  21
HETATM   21  O3  UNL     1     -69.747  -3.455   1.909  1.00  0.00    -0.253 OA
BRANCH  21  22
HETATM   22  C7  UNL     1     -70.671  -2.443   2.041  1.00  0.00     0.382 C
HETATM   23  O4  UNL     1     -71.093  -2.218   3.225  1.00  0.00    -0.237 OA
HETATM   24  N2  UNL     1     -71.144  -1.678   0.937  1.00  0.00    -0.252 N
ATOM     25  H2  UNL     1     -70.781  -1.889   0.008  1.00  0.00     0.191 HD
BRANCH  24  26
HETATM   26  N3  UNL     1     -72.073  -0.659   1.067  1.00  0.00    -0.341 N
ATOM     27  H32 UNL     1     -71.795   0.164   1.600  1.00  0.00     0.177 HD
ATOM     28  H31 UNL     1     -73.007  -0.702   0.659  1.00  0.00     0.177 HD
ENDBRANCH  24  26
ENDBRANCH  21  22
ENDBRANCH   2  21
BRANCH   5  29
HETATM   29  O6  UNL     1     -66.808  -3.040  -0.871  1.00  0.00    -0.374 OA
ATOM     30  H6  UNL     1     -66.144  -3.148  -1.541  1.00  0.00     0.211 HD
ENDBRANCH   5  29
BRANCH   5  31
HETATM   31  C10 UNL     1     -67.535  -4.976  -2.099  1.00  0.00     0.299 C
BRANCH  31  32
HETATM   32  O7  UNL     1     -66.249  -5.245  -2.493  1.00  0.00    -0.368 OA
ATOM     33  H7  UNL     1     -66.172  -5.101  -3.429  1.00  0.00     0.212 HD
ENDBRANCH  31  32
BRANCH  31  34
HETATM   34  O8  UNL     1     -68.213  -4.173  -3.012  1.00  0.00    -0.368 OA
ATOM     35  H8  UNL     1     -67.569  -3.616  -3.434  1.00  0.00     0.212 HD
ENDBRANCH  31  34
ENDBRANCH   5  31
TORSDOF 13
ENDMDL