MODEL 3
REMARK VINA RESULT: -5.036573037      6.122      8.449
REMARK  6 active torsions:
REMARK  status: ('A' for Active; 'I' for Inactive)
REMARK    1  A    between atoms: N1_2  and  N2_3
REMARK    2  A    between atoms: N1_2  and  O3_28
REMARK       I    between atoms: N2_3  and  C2_5
REMARK    3  A    between atoms: C2_5  and  C3_7
REMARK    4  A    between atoms: N4_14  and  C7_15
REMARK    5  A    between atoms: C9_22  and  N7_23
REMARK    6  A    between atoms: O3_28  and  C10_29
ROOT
HETATM    1  C3  UNL     1     -68.500  -6.162   5.159  1.00  0.00     0.221 C
HETATM    2  C4  UNL     1     -69.921  -5.652   5.340  1.00  0.00     0.267 C
HETATM    3  N3  UNL     1     -70.850  -6.733   5.013  1.00  0.00    -0.071 N
ATOM      4  H31 UNL     1     -70.696  -7.123   4.084  1.00  0.00     0.277 HD
ATOM      5  H32 UNL     1     -71.805  -6.407   4.863  1.00  0.00     0.277 HD
HETATM    6  C5  UNL     1     -70.749  -7.717   6.063  1.00  0.00     0.252 C
HETATM    7  C6  UNL     1     -69.393  -8.321   6.221  1.00  0.00     0.170 C
HETATM    8  N4  UNL     1     -68.315  -7.431   5.840  1.00  0.00    -0.200 N
ENDROOT
BRANCH   8   9
HETATM    9  C7  UNL     1     -67.016  -7.821   6.172  1.00  0.00     0.699 A
HETATM   10  N5  UNL     1     -66.432  -8.859   5.571  1.00  0.00    -0.140 N
HETATM   11  C8  UNL     1     -65.180  -9.268   5.900  1.00  0.00     0.352 A
ATOM     12  H5  UNL     1     -66.942  -9.360   4.843  1.00  0.00     0.189 HD
HETATM   13  O2  UNL     1     -64.595 -10.231   5.364  1.00  0.00    -0.246 OA
HETATM   14  N6  UNL     1     -64.505  -8.593   6.876  1.00  0.00    -0.141 N
HETATM   15  C9  UNL     1     -65.096  -7.554   7.476  1.00  0.00     0.694 A
ATOM     16  H6  UNL     1     -63.563  -8.878   7.145  1.00  0.00     0.189 HD
HETATM   17  N8  UNL     1     -66.337  -7.168   7.130  1.00  0.00    -0.022 N
ATOM     18  H8  UNL     1     -66.768  -6.372   7.599  1.00  0.00     0.203 HD
BRANCH  15  19
HETATM   19  N7  UNL     1     -64.418  -6.935   8.424  1.00  0.00    -0.234 N
ATOM     20  H72 UNL     1     -63.468  -7.214   8.671  1.00  0.00     0.174 HD
ATOM     21  H71 UNL     1     -64.877  -6.157   8.897  1.00  0.00     0.174 HD
ENDBRANCH  15  19
ENDBRANCH   8   9
BRANCH   1  22
HETATM   22  C2  UNL     1     -68.258  -6.354   3.694  1.00  0.00     0.259 C
HETATM   23  N2  UNL     1     -67.886  -5.263   2.828  1.00  0.00    -0.265 N
ATOM     24  H2  UNL     1     -67.781  -4.326   3.219  1.00  0.00     0.186 HD
HETATM   25  O1  UNL     1     -68.395  -7.528   3.248  1.00  0.00    -0.270 OA
BRANCH  23  26
HETATM   26  N1  UNL     1     -67.669  -5.465   1.481  1.00  0.00    -0.102 NA
HETATM   27  C1  UNL     1     -68.571  -4.638   0.722  1.00  0.00     0.171 C
BRANCH  26  28
HETATM   28  O3  UNL     1     -66.453  -5.345   1.087  1.00  0.00    -0.232 OA
BRANCH  28  29
HETATM   29  C10 UNL     1     -65.841  -4.149   0.915  1.00  0.00     0.423 C
HETATM   30  N9  UNL     1     -65.420  -3.909  -0.499  1.00  0.00    -0.057 NA
HETATM   31  N10 UNL     1     -64.427  -4.832  -0.164  1.00  0.00     0.020 NA
HETATM   32  O4  UNL     1     -64.445  -4.284   1.100  1.00  0.00    -0.217 OA
ENDBRANCH  28  29
ENDBRANCH  26  28
ENDBRANCH  23  26
ENDBRANCH   1  22
TORSDOF 6
ENDMDL