MODEL 4
REMARK VINA RESULT: -4.275726286      2.008      5.210
REMARK  11 active torsions:
REMARK  status: ('A' for Active; 'I' for Inactive)
REMARK       I    between atoms: C2_2  and  N1_4
REMARK    1  A    between atoms: N1_4  and  C3_6
REMARK    2  A    between atoms: C4_7  and  O2_8
REMARK    3  A    between atoms: C6_11  and  O3_12
REMARK    4  A    between atoms: C6_11  and  C7_14
REMARK    5  A    between atoms: C7_14  and  C9_17
REMARK    6  A    between atoms: C9_17  and  N3_19
REMARK    7  A    between atoms: C9_17  and  O4_23
REMARK    8  A    between atoms: C11_26  and  C12_27
REMARK    9  A    between atoms: C12_27  and  C13_29
REMARK   10  A    between atoms: C13_29  and  N4_30
REMARK   11  A    between atoms: C13_29  and  O7_34
ROOT
HETATM    1  C7  UNL     1     -70.021  -4.499   0.126  1.00  0.00     0.217 C
HETATM    2  C8  UNL     1     -70.708  -3.961  -1.046  1.00  0.00     0.074 C
HETATM    3  N2  UNL     1     -71.249  -3.536  -1.987  1.00  0.00    -0.197 NA
ENDROOT
BRANCH   1   4
HETATM    4  C6  UNL     1     -68.892  -5.358  -0.330  1.00  0.00     0.186 C
HETATM    5  C5  UNL     1     -69.145  -6.104  -1.599  1.00  0.00     0.104 C
HETATM    6  C4  UNL     1     -68.056  -7.187  -1.693  1.00  0.00     0.149 C
HETATM    7  C3  UNL     1     -66.696  -6.496  -1.672  1.00  0.00     0.149 C
HETATM    8  C11 UNL     1     -66.657  -5.653  -0.412  1.00  0.00     0.224 C
HETATM    9  O5  UNL     1     -67.688  -4.696  -0.440  1.00  0.00    -0.339 OA
BRANCH   6  10
HETATM   10  O2  UNL     1     -68.273  -7.893  -2.855  1.00  0.00    -0.393 OA
ATOM     11  H2  UNL     1     -67.516  -7.895  -3.428  1.00  0.00     0.210 HD
ENDBRANCH   6  10
BRANCH   7  12
HETATM   12  N1  UNL     1     -66.496  -5.731  -2.865  1.00  0.00    -0.351 N
HETATM   13  C2  UNL     1     -65.456  -6.068  -3.767  1.00  0.00     0.214 C
HETATM   14  C1  UNL     1     -65.214  -5.292  -5.017  1.00  0.00     0.117 C
HETATM   15  O1  UNL     1     -64.712  -7.052  -3.507  1.00  0.00    -0.274 OA
ATOM     16  H1  UNL     1     -67.106  -4.939  -3.067  1.00  0.00     0.163 HD
ENDBRANCH   7  12
BRANCH   8  17
HETATM   17  C12 UNL     1     -65.387  -4.904  -0.259  1.00  0.00     0.213 C
HETATM   18  O6  UNL     1     -64.308  -5.355  -0.586  1.00  0.00    -0.290 OA
BRANCH  17  19
HETATM   19  C13 UNL     1     -65.432  -3.540   0.316  1.00  0.00     0.389 C
BRANCH  19  20
HETATM   20  N4  UNL     1     -64.102  -3.053   0.650  1.00  0.00    -0.046 N
ATOM     21  H43 UNL     1     -63.973  -2.088   0.347  1.00  0.00     0.277 HD
ATOM     22  H42 UNL     1     -63.996  -2.919   1.655  1.00  0.00     0.277 HD
ATOM     23  H41 UNL     1     -63.373  -3.661   0.277  1.00  0.00     0.277 HD
ENDBRANCH  19  20
BRANCH  19  24
HETATM   24  O7  UNL     1     -66.154  -3.578   1.508  1.00  0.00    -0.364 OA
ATOM     25  H7  UNL     1     -65.741  -4.199   2.097  1.00  0.00     0.212 HD
ENDBRANCH  19  24
ENDBRANCH  17  19
ENDBRANCH   8  17
BRANCH   4  26
HETATM   26  O3  UNL     1     -68.729  -6.338   0.681  1.00  0.00    -0.364 OA
ATOM     27  H3  UNL     1     -68.321  -5.897   1.417  1.00  0.00     0.213 HD
ENDBRANCH   4  26
ENDBRANCH   1   4
BRANCH   1  28
HETATM   28  C9  UNL     1     -69.697  -3.450   1.122  1.00  0.00     0.239 C
HETATM   29  C10 UNL     1     -71.035  -2.949   1.687  1.00  0.00     0.080 C
BRANCH  28  30
HETATM   30  N3  UNL     1     -68.971  -2.330   0.626  1.00  0.00    -0.046 N
ATOM     31  H33 UNL     1     -68.921  -1.603   1.340  1.00  0.00     0.278 HD
ATOM     32  H32 UNL     1     -67.983  -2.567   0.538  1.00  0.00     0.278 HD
ATOM     33  H31 UNL     1     -69.312  -1.933  -0.249  1.00  0.00     0.278 HD
ENDBRANCH  28  30
BRANCH  28  34
HETATM   34  O4  UNL     1     -69.003  -3.965   2.216  1.00  0.00    -0.364 OA
ATOM     35  H4  UNL     1     -69.142  -3.449   3.001  1.00  0.00     0.212 HD
ENDBRANCH  28  34
ENDBRANCH   1  28
TORSDOF 11
ENDMDL