MODEL 4
REMARK VINA RESULT: -5.109259373      6.942      7.765
REMARK  7 active torsions:
REMARK  status: ('A' for Active; 'I' for Inactive)
REMARK    1  A    between atoms: N1_1  and  C1_4
REMARK    2  A    between atoms: C1_4  and  C2_6
REMARK    3  A    between atoms: C3_8  and  N3_9
REMARK    4  A    between atoms: N3_9  and  C4_11
REMARK    5  A    between atoms: C5_16  and  C6_17
REMARK       I    between atoms: C6_17  and  N6_19
REMARK    6  A    between atoms: N6_19  and  C7_21
REMARK    7  A    between atoms: C8_24  and  O3_25
ROOT
HETATM    1  C4  UNL     1     -62.460 -12.473   1.853  1.00  0.00     0.164 A
HETATM    2  N4  UNL     1     -63.774 -12.247   1.922  1.00  0.00    -0.279 N
ATOM      3  H4  UNL     1     -64.381 -12.451   1.127  1.00  0.00     0.189 HD
HETATM    4  N5  UNL     1     -64.252 -11.774   2.998  1.00  0.00    -0.287 N
ATOM      5  H5  UNL     1     -65.253 -11.593   3.071  1.00  0.00     0.188 HD
HETATM    6  C5  UNL     1     -63.460 -11.512   4.026  1.00  0.00     0.160 A
HETATM    7  S1  UNL     1     -61.940 -11.975   3.404  1.00  0.00    -0.028 SA
ENDROOT
BRANCH   1   8
HETATM    8  N3  UNL     1     -61.775 -12.954   0.843  1.00  0.00    -0.326 N
ATOM      9  H3  UNL     1     -60.924 -13.488   1.018  1.00  0.00     0.166 HD
BRANCH   8  10
HETATM   10  C3  UNL     1     -62.218 -12.734  -0.520  1.00  0.00     0.335 C
HETATM   11  O1  UNL     1     -62.137 -11.373  -0.791  1.00  0.00    -0.327 OA
HETATM   12  C2  UNL     1     -60.772 -11.110  -0.854  1.00  0.00     0.281 C
HETATM   13  C9  UNL     1     -60.237 -12.299  -1.553  1.00  0.00     0.257 C
HETATM   14  N9  UNL     1     -61.275 -13.280  -1.470  1.00  0.00    -0.315 N
HETATM   15  O4  UNL     1     -59.124 -12.448  -2.107  1.00  0.00    -0.270 OA
ATOM     16  H9  UNL     1     -61.337 -14.166  -1.971  1.00  0.00     0.166 HD
BRANCH  12  17
HETATM   17  C1  UNL     1     -60.466  -9.860  -1.561  1.00  0.00     0.125 C
HETATM   18  N2  UNL     1     -61.144  -9.562  -2.769  1.00  0.00    -0.085 NA
BRANCH  17  19
HETATM   19  N1  UNL     1     -59.597  -9.022  -1.115  1.00  0.00    -0.389 N
ATOM     20  H12 UNL     1     -58.606  -9.257  -1.051  1.00  0.00     0.157 HD
ATOM     21  H11 UNL     1     -59.911  -8.098  -0.818  1.00  0.00     0.157 HD
ENDBRANCH  17  19
ENDBRANCH  12  17
ENDBRANCH   8  10
ENDBRANCH   1   8
BRANCH   6  22
HETATM   22  C6  UNL     1     -63.827 -10.967   5.342  1.00  0.00     0.278 C
HETATM   23  O2  UNL     1     -64.496 -11.702   6.100  1.00  0.00    -0.265 OA
HETATM   24  N6  UNL     1     -63.444  -9.684   5.730  1.00  0.00    -0.332 N
ATOM     25  H6  UNL     1     -62.897  -9.101   5.096  1.00  0.00     0.164 HD
BRANCH  24  26
HETATM   26  C7  UNL     1     -63.824  -9.176   7.041  1.00  0.00     0.241 C
HETATM   27  N7  UNL     1     -63.889  -7.729   7.116  1.00  0.00    -0.116 NA
HETATM   28  N8  UNL     1     -62.517  -7.729   7.390  1.00  0.00    -0.111 NA
HETATM   29  C8  UNL     1     -62.699  -9.018   8.027  1.00  0.00     0.267 C
BRANCH  29  30
HETATM   30  O3  UNL     1     -61.637  -9.898   7.883  1.00  0.00    -0.375 OA
ATOM     31  H3  UNL     1     -61.855 -10.766   7.565  1.00  0.00     0.211 HD
ENDBRANCH  29  30
ENDBRANCH  24  26
ENDBRANCH   6  22
TORSDOF 7
ENDMDL