MODEL 2
REMARK VINA RESULT: -5.216167689      3.149      6.418
REMARK  7 active torsions:
REMARK  status: ('A' for Active; 'I' for Inactive)
REMARK    1  A    between atoms: N1_1  and  C1_5
REMARK    2  A    between atoms: N6_11  and  C3_12
REMARK    3  A    between atoms: C3_12  and  C4_13
REMARK    4  A    between atoms: C4_13  and  O1_14
REMARK    5  A    between atoms: C4_13  and  C5_16
REMARK    6  A    between atoms: C6_17  and  C7_18
REMARK    7  A    between atoms: C10_25  and  O5_26
ROOT
HETATM    1  C5  UNL     1     -68.940  -0.880  -1.234  1.00  0.00     0.095 C
HETATM    2  C6  UNL     1     -68.774   0.424  -1.364  1.00  0.00     0.145 C
HETATM    3  N7  UNL     1     -68.793   0.777  -2.773  1.00  0.00    -0.285 N
HETATM    4  C8  UNL     1     -68.435   1.667  -3.813  1.00  0.00     0.229 C
HETATM    5  O4  UNL     1     -68.384   2.925  -3.629  1.00  0.00    -0.273 OA
HETATM    6  C9  UNL     1     -68.161   0.874  -5.037  1.00  0.00     0.139 C
HETATM    7  C10 UNL     1     -69.023  -0.351  -4.829  1.00  0.00     0.169 C
HETATM    8  C11 UNL     1     -69.533  -0.320  -3.421  1.00  0.00     0.222 C
HETATM    9  N8  UNL     1     -69.123  -1.399  -2.588  1.00  0.00    -0.362 N
ATOM     10  H8  UNL     1     -68.983  -2.365  -2.884  1.00  0.00     0.162 HD
ENDROOT
BRANCH   1  11
HETATM   11  C4  UNL     1     -68.988  -1.739  -0.032  1.00  0.00     0.100 C
BRANCH  11  12
HETATM   12  C3  UNL     1     -67.667  -2.380   0.278  1.00  0.00     0.345 C
BRANCH  12  13
HETATM   13  N6  UNL     1     -67.634  -3.802   0.298  1.00  0.00     0.157 N
HETATM   14  C1  UNL     1     -67.277  -4.206  -1.083  1.00  0.00     0.530 C
HETATM   15  N2  UNL     1     -65.881  -4.034  -1.309  1.00  0.00    -0.065 NA
HETATM   16  N3  UNL     1     -65.110  -5.129  -0.912  1.00  0.00    -0.018 NA
HETATM   17  N4  UNL     1     -64.431  -4.723   0.250  1.00  0.00    -0.020 NA
HETATM   18  N5  UNL     1     -65.294  -3.878   0.952  1.00  0.00    -0.098 NA
HETATM   19  C2  UNL     1     -66.607  -4.382   1.119  1.00  0.00     0.408 C
BRANCH  14  20
HETATM   20  N1  UNL     1     -67.699  -5.550  -1.363  1.00  0.00    -0.032 N
ATOM     21  H13 UNL     1     -67.016  -6.231  -1.030  1.00  0.00     0.278 HD
ATOM     22  H12 UNL     1     -68.490  -5.821  -0.780  1.00  0.00     0.278 HD
ATOM     23  H11 UNL     1     -67.904  -5.683  -2.353  1.00  0.00     0.278 HD
ENDBRANCH  14  20
ENDBRANCH  12  13
ENDBRANCH  11  12
BRANCH  11  24
HETATM   24  O1  UNL     1     -70.099  -2.476   0.187  1.00  0.00    -0.361 OA
ATOM     25  H1  UNL     1     -70.936  -2.064   0.009  1.00  0.00     0.217 HD
ENDBRANCH  11  24
ENDBRANCH   1  11
BRANCH   2  26
HETATM   26  C7  UNL     1     -68.588   1.457  -0.376  1.00  0.00     0.229 C
HETATM   27  O2  UNL     1     -67.483   1.748   0.086  1.00  0.00    -0.643 OA
HETATM   28  O3  UNL     1     -69.663   2.211   0.133  1.00  0.00    -0.643 OA
ENDBRANCH   2  26
BRANCH   7  29
HETATM   29  O5  UNL     1     -68.361  -1.524  -5.127  1.00  0.00    -0.391 OA
ATOM     30  H5  UNL     1     -67.456  -1.380  -5.374  1.00  0.00     0.210 HD
ENDBRANCH   7  29
TORSDOF 7
ENDMDL