MODEL 3
REMARK VINA RESULT: -2.471099667      1.550      3.111
REMARK  3 active torsions:
REMARK  status: ('A' for Active; 'I' for Inactive)
REMARK    1  A    between atoms: N1_1  and  C1_5
REMARK    2  A    between atoms: C1_5  and  C2_6
REMARK    3  A    between atoms: C2_6  and  N2_7
ROOT
HETATM    1  C1  UNL     1      59.579  75.462  26.373  1.00  0.00     0.259 C
ENDROOT
BRANCH   1   2
HETATM    2  N1  UNL     1      59.641  75.405  24.915  1.00  0.00    -0.078 N
ATOM      3  H13 UNL     1      58.714  75.349  24.494  1.00  0.00     0.274 HD
ATOM      4  H12 UNL     1      59.933  76.294  24.509  1.00  0.00     0.274 HD
ATOM      5  H11 UNL     1      60.242  74.635  24.622  1.00  0.00     0.274 HD
ENDBRANCH   1   2
BRANCH   1   6
HETATM    6  C2  UNL     1      60.816  74.796  26.971  1.00  0.00     0.299 C
BRANCH   6   7
HETATM    7  N2  UNL     1      61.470  75.786  27.788  1.00  0.00     0.093 N
HETATM    8  C3  UNL     1      62.891  76.002  27.532  1.00  0.00     0.302 A
HETATM    9  C4  UNL     1      61.907  77.032  27.206  1.00  0.00     0.302 A
ENDBRANCH   6   7
ENDBRANCH   1   6
TORSDOF 3
ENDMDL