MODEL 3
REMARK VINA RESULT: -3.251548916      3.033      3.759
REMARK  2 active torsions:
REMARK  status: ('A' for Active; 'I' for Inactive)
REMARK    1  A    between atoms: N1_1  and  C1_5
REMARK    2  A    between atoms: C1_5  and  C2_6
ROOT
HETATM    1  C1  UNL     1      61.404  74.584  27.357  1.00  0.00     0.259 C
ENDROOT
BRANCH   1   2
HETATM    2  N1  UNL     1      62.713  75.196  27.189  1.00  0.00    -0.076 N
ATOM      3  H13 UNL     1      62.798  76.053  27.735  1.00  0.00     0.274 HD
ATOM      4  H12 UNL     1      63.443  74.646  27.643  1.00  0.00     0.274 HD
ATOM      5  H11 UNL     1      62.927  75.359  26.205  1.00  0.00     0.274 HD
ENDBRANCH   1   2
BRANCH   1   6
HETATM    6  C2  UNL     1      60.316  75.543  27.065  1.00  0.00     0.034 C
HETATM    7  C3  UNL     1      59.603  75.420  25.960  1.00  0.00     0.068 A
HETATM    8  C4  UNL     1      59.156  74.846  24.665  1.00  0.00     0.239 A
HETATM    9  O1  UNL     1      58.509  75.986  25.183  1.00  0.00    -0.347 OA
ENDBRANCH   1   6
TORSDOF 2
ENDMDL