MODEL 4
REMARK VINA RESULT: -2.024545836      2.140      2.504
REMARK  1 active torsions:
REMARK  status: ('A' for Active; 'I' for Inactive)
REMARK    1  A    between atoms: N1_1  and  C1_5
ROOT
HETATM    1  C1  UNL     1      61.952  75.361  27.034  1.00  0.00     0.209 C
HETATM    2  C2  UNL     1      61.481  76.655  27.716  1.00  0.00     0.061 C
HETATM    3  C3  UNL     1      62.628  77.567  27.312  1.00  0.00     0.169 C
HETATM    4  O1  UNL     1      63.712  76.777  27.040  1.00  0.00    -0.389 OA
HETATM    5  C4  UNL     1      63.431  75.477  27.333  1.00  0.00     0.200 C
ENDROOT
BRANCH   1   6
HETATM    6  N1  UNL     1      61.340  74.202  27.584  1.00  0.00    -0.073 N
ATOM      7  H13 UNL     1      61.102  73.531  26.853  1.00  0.00     0.274 HD
ATOM      8  H12 UNL     1      62.015  73.643  28.106  1.00  0.00     0.274 HD
ATOM      9  H11 UNL     1      60.527  74.425  28.157  1.00  0.00     0.274 HD
ENDBRANCH   1   6
TORSDOF 1
ENDMDL