MODEL 2
REMARK VINA RESULT: -3.432626598      1.201      1.305
REMARK  3 active torsions:
REMARK  status: ('A' for Active; 'I' for Inactive)
REMARK    1  A    between atoms: N1_1  and  N2_4
REMARK    2  A    between atoms: N3_6  and  C1_8
REMARK    3  A    between atoms: C1_8  and  C2_9
ROOT
HETATM    1  N2  UNL     1      62.571  75.709  27.200  1.00  0.00    -0.254 N
ATOM      2  H2  UNL     1      62.074  76.516  27.579  1.00  0.00     0.207 HD
HETATM    3  N3  UNL     1      61.890  74.689  26.932  1.00  0.00    -0.322 N
ATOM      4  H3  UNL     1      62.343  73.858  26.553  1.00  0.00     0.181 HD
ENDROOT
BRANCH   3   5
HETATM    5  C1  UNL     1      60.460  74.694  27.161  1.00  0.00     0.145 C
BRANCH   5   6
HETATM    6  C2  UNL     1      59.739  75.606  26.214  1.00  0.00     0.005 A
HETATM    7  C3  UNL     1      58.376  75.162  25.784  1.00  0.00     0.007 A
HETATM    8  C4  UNL     1      59.502  75.094  24.842  1.00  0.00     0.007 A
ENDBRANCH   5   6
ENDBRANCH   3   5
BRANCH   1   9
HETATM    9  N1  UNL     1      63.931  75.832  27.028  1.00  0.00    -0.331 N
ATOM     10  H12 UNL     1      64.243  76.622  26.464  1.00  0.00     0.178 HD
ATOM     11  H11 UNL     1      64.637  75.205  27.415  1.00  0.00     0.178 HD
ENDBRANCH   1   9
TORSDOF 3
ENDMDL