MODEL 5
REMARK VINA RESULT: -2.463039236      1.031      1.312
REMARK  2 active torsions:
REMARK  status: ('A' for Active; 'I' for Inactive)
REMARK    1  A    between atoms: N1_1  and  C1_5
REMARK    2  A    between atoms: C1_5  and  C2_6
ROOT
HETATM    1  C2  UNL     1      61.470  76.083  27.062  1.00  0.00     0.087 A
HETATM    2  C3  UNL     1      61.977  74.717  26.860  1.00  0.00     0.071 A
HETATM    3  N2  UNL     1      61.170  74.191  27.654  1.00  0.00    -0.381 N
ATOM      4  H2  UNL     1      61.017  73.229  27.955  1.00  0.00     0.164 HD
HETATM    5  C4  UNL     1      60.549  75.411  27.983  1.00  0.00     0.071 A
ENDROOT
BRANCH   1   6
HETATM    6  C1  UNL     1      62.558  76.940  27.673  1.00  0.00     0.244 C
BRANCH   6   7
HETATM    7  N1  UNL     1      62.887  78.089  26.894  1.00  0.00    -0.078 N
ATOM      8  H13 UNL     1      62.196  78.827  27.031  1.00  0.00     0.274 HD
ATOM      9  H12 UNL     1      63.712  78.557  27.270  1.00  0.00     0.274 HD
ATOM     10  H11 UNL     1      63.009  77.889  25.901  1.00  0.00     0.274 HD
ENDBRANCH   6   7
ENDBRANCH   1   6
TORSDOF 2
ENDMDL