MODEL 4
REMARK VINA RESULT: -3.200277886      1.979      3.339
REMARK  1 active torsions:
REMARK  status: ('A' for Active; 'I' for Inactive)
REMARK    1  A    between atoms: N2_3  and  C2_5
ROOT
HETATM    1  N1  UNL     1      59.128  75.661  25.089  1.00  0.00    -0.172 NA
HETATM    2  C1  UNL     1      59.865  75.274  25.909  1.00  0.00     0.177 C
HETATM    3  N2  UNL     1      60.753  74.812  26.886  1.00  0.00    -0.324 N
ATOM      4  H2  UNL     1      60.892  73.807  26.994  1.00  0.00     0.172 HD
ENDROOT
BRANCH   3   5
HETATM    5  C2  UNL     1      61.486  75.725  27.757  1.00  0.00     0.092 A
HETATM    6  C3  UNL     1      62.944  75.955  27.496  1.00  0.00     0.028 A
HETATM    7  C4  UNL     1      61.899  77.059  27.270  1.00  0.00     0.028 A
ENDBRANCH   3   5
TORSDOF 1
ENDMDL