MODEL 1
REMARK VINA RESULT: -3.741170675      0.000      0.000
REMARK  1 active torsions:
REMARK  status: ('A' for Active; 'I' for Inactive)
REMARK    1  A    between atoms: N2_3  and  C2_5
ROOT
HETATM    1  N1  UNL     1      64.202  77.205  26.762  1.00  0.00    -0.097 NA
HETATM    2  C1  UNL     1      63.126  76.376  27.187  1.00  0.00     0.185 C
HETATM    3  N2  UNL     1      61.916  76.755  27.187  1.00  0.00    -0.383 N
ATOM      4  H2  UNL     1      61.699  77.698  26.867  1.00  0.00     0.160 HD
ENDROOT
BRANCH   3   5
HETATM    5  C2  UNL     1      60.844  75.915  27.615  1.00  0.00     0.082 A
HETATM    6  C3  UNL     1      59.990  75.192  26.650  1.00  0.00     0.027 A
HETATM    7  C4  UNL     1      61.049  74.449  27.468  1.00  0.00     0.027 A
ENDBRANCH   3   5
TORSDOF 1
ENDMDL