MODEL 1
REMARK VINA RESULT: -2.138155575      0.000      0.000
REMARK  1 active torsions:
REMARK  status: ('A' for Active; 'I' for Inactive)
REMARK    1  A    between atoms: C2_2  and  N1_3
ROOT
HETATM    1  N1  UNL     1      60.759  75.542  26.969  1.00  0.00    -0.366 N
HETATM    2  C3  UNL     1      61.204  76.657  27.766  1.00  0.00     0.151 C
HETATM    3  C4  UNL     1      62.669  76.708  27.303  1.00  0.00     0.254 C
HETATM    4  N2  UNL     1      62.997  75.304  27.497  1.00  0.00    -0.058 N
ATOM      5  H21 UNL     1      63.115  75.008  28.465  1.00  0.00     0.279 HD
ATOM      6  H22 UNL     1      63.935  75.025  27.207  1.00  0.00     0.279 HD
HETATM    7  C5  UNL     1      61.885  74.663  26.764  1.00  0.00     0.356 C
ENDROOT
BRANCH   1   8
HETATM    8  C2  UNL     1      59.458  75.341  26.475  1.00  0.00     0.077 C
HETATM    9  C1  UNL     1      59.255  75.179  25.158  1.00  0.00     0.029 C
ENDBRANCH   1   8
TORSDOF 1
ENDMDL