MODEL 2
REMARK VINA RESULT: -3.550469429      2.419      3.206
REMARK  1 active torsions:
REMARK  status: ('A' for Active; 'I' for Inactive)
REMARK    1  A    between atoms: C1_4  and  N2_5
ROOT
HETATM    1  N2  UNL     1      60.181  75.577  26.563  1.00  0.00    -0.252 N
HETATM    2  C2  UNL     1      60.753  74.933  27.732  1.00  0.00     0.185 C
HETATM    3  C3  UNL     1      61.881  75.894  27.447  1.00  0.00     0.223 C
HETATM    4  O1  UNL     1      60.860  76.699  26.891  1.00  0.00    -0.276 OA
ENDROOT
BRANCH   1   5
HETATM    5  C1  UNL     1      59.287  75.128  25.552  1.00  0.00     0.200 C
HETATM    6  N1  UNL     1      59.464  75.367  24.293  1.00  0.00    -0.394 N
ATOM      7  H12 UNL     1      60.290  75.904  24.030  1.00  0.00     0.156 HD
ATOM      8  H11 UNL     1      58.823  75.045  23.568  1.00  0.00     0.156 HD
ENDBRANCH   1   5
TORSDOF 1
ENDMDL