MODEL 4
REMARK VINA RESULT: -8.668846553      2.936      8.867
REMARK  3 active torsions:
REMARK  status: ('A' for Active; 'I' for Inactive)
REMARK    1  A    between atoms: C5_5  and  C6_6
REMARK    2  A    between atoms: C7_7  and  C8_8
REMARK    3  A    between atoms: N2_11  and  C9_12
ROOT
HETATM    1  C8  UNL     1       4.748  32.504  55.855  1.00  0.00     0.114 A
HETATM    2  N1  UNL     1       4.078  31.341  55.712  1.00  0.00    -0.284 N
ATOM      3  H1  UNL     1       3.447  31.124  54.940  1.00  0.00     0.188 HD
HETATM    4  N2  UNL     1       4.352  30.527  56.705  1.00  0.00    -0.255 N
HETATM    5  C15 UNL     1       5.216  31.134  57.539  1.00  0.00     0.070 A
HETATM    6  C16 UNL     1       5.831  30.766  58.712  1.00  0.00     0.032 A
HETATM    7  C17 UNL     1       6.699  31.600  59.385  1.00  0.00     0.002 A
HETATM    8  C18 UNL     1       6.931  32.842  58.826  1.00  0.00     0.001 A
HETATM    9  C19 UNL     1       6.352  33.263  57.668  1.00  0.00     0.017 A
HETATM   10  C20 UNL     1       5.482  32.391  57.018  1.00  0.00     0.029 A
ENDROOT
BRANCH   1  11
HETATM   11  C7  UNL     1       4.702  33.640  54.964  1.00  0.00    -0.041 C
HETATM   12  C6  UNL     1       4.667  34.580  54.206  1.00  0.00    -0.060 C
BRANCH  12  13
HETATM   13  C5  UNL     1       4.637  35.687  53.286  1.00  0.00     0.018 A
HETATM   14  C4  UNL     1       4.910  36.974  53.676  1.00  0.00     0.021 A
HETATM   15  C3  UNL     1       4.879  38.044  52.780  1.00  0.00     0.008 A
HETATM   16  C2  UNL     1       4.564  37.799  51.461  1.00  0.00    -0.062 A
HETATM   17  C1  UNL     1       4.521  38.910  50.485  1.00  0.00     0.048 C
HETATM   18  C22 UNL     1       4.294  36.502  51.091  1.00  0.00     0.008 A
HETATM   19  C21 UNL     1       4.325  35.450  51.980  1.00  0.00     0.021 A
ENDBRANCH  12  13
ENDBRANCH   1  11
BRANCH   4  20
HETATM   20  C9  UNL     1       3.834  29.217  56.894  1.00  0.00     0.057 A
HETATM   21  C10 UNL     1       2.522  28.914  56.695  1.00  0.00     0.031 A
HETATM   22  C11 UNL     1       2.012  27.645  56.876  1.00  0.00     0.002 A
HETATM   23  C12 UNL     1       2.874  26.646  57.277  1.00  0.00     0.000 A
HETATM   24  C13 UNL     1       4.214  26.904  57.493  1.00  0.00     0.002 A
HETATM   25  C14 UNL     1       4.684  28.186  57.299  1.00  0.00     0.031 A
ENDBRANCH   4  20
TORSDOF 3
ENDMDL