MODEL 1
REMARK VINA RESULT: -10.190995360      0.000      0.000
REMARK  1 active torsions:
REMARK  status: ('A' for Active; 'I' for Inactive)
REMARK    1  A    between atoms: C9_9  and  C10_10
ROOT
HETATM    1  C1  UNL     1       1.280  26.988  56.347  1.00  0.00     0.018 C
HETATM    2  C2  UNL     1       2.073  27.896  56.487  1.00  0.00    -0.078 C
HETATM    3  C3  UNL     1       2.992  28.984  56.652  1.00  0.00     0.018 A
HETATM    4  C4  UNL     1       2.727  30.232  56.131  1.00  0.00     0.041 A
HETATM    5  C5  UNL     1       3.607  31.296  56.282  1.00  0.00     0.018 A
HETATM    6  C6  UNL     1       3.321  32.593  55.735  1.00  0.00    -0.078 C
HETATM    7  C7  UNL     1       3.099  33.698  55.272  1.00  0.00     0.018 C
HETATM    8  C8  UNL     1       4.785  31.053  56.988  1.00  0.00     0.029 A
HETATM    9  C9  UNL     1       5.075  29.824  57.515  1.00  0.00    -0.037 A
HETATM   10  C21 UNL     1       4.192  28.789  57.355  1.00  0.00     0.029 A
ENDROOT
BRANCH   9  11
HETATM   11  C10 UNL     1       6.329  29.614  58.253  1.00  0.00     0.111 A
HETATM   12  C11 UNL     1       7.209  30.780  58.160  1.00  0.00     0.011 A
HETATM   13  C12 UNL     1       8.431  30.888  57.755  1.00  0.00     0.095 A
HETATM   14  N1  UNL     1       9.222  29.807  57.282  1.00  0.00    -0.316 N
HETATM   15  C13 UNL     1       8.798  28.566  57.202  1.00  0.00     0.078 A
HETATM   16  C20 UNL     1      10.504  29.810  56.837  1.00  0.00     0.050 A
HETATM   17  C14 UNL     1       9.796  27.756  56.706  1.00  0.00     0.051 A
HETATM   18  S1  UNL     1       7.159  28.118  57.690  1.00  0.00    -0.098 SA
HETATM   19  C15 UNL     1      10.891  28.544  56.470  1.00  0.00    -0.006 A
HETATM   20  C16 UNL     1      12.162  28.313  55.985  1.00  0.00     0.014 A
HETATM   21  C17 UNL     1      13.071  29.332  55.856  1.00  0.00     0.001 A
HETATM   22  C18 UNL     1      12.719  30.616  56.214  1.00  0.00     0.002 A
HETATM   23  C19 UNL     1      11.443  30.809  56.693  1.00  0.00     0.031 A
ENDBRANCH   9  11
TORSDOF 1
ENDMDL