MODEL 3
REMARK VINA RESULT: -9.771675021      3.608      7.727
REMARK  2 active torsions:
REMARK  status: ('A' for Active; 'I' for Inactive)
REMARK    1  A    between atoms: O1_1  and  N1_3
REMARK    2  A    between atoms: C12_16  and  C13_17
ROOT
HETATM    1  N1  UNL     1       5.791  37.542  55.443  1.00  0.00    -0.234 N
HETATM    2  C1  UNL     1       4.817  36.938  54.818  1.00  0.00     0.126 A
HETATM    3  C2  UNL     1       4.683  35.617  55.264  1.00  0.00     0.052 A
HETATM    4  C3  UNL     1       5.628  35.412  56.209  1.00  0.00     0.070 A
HETATM    5  N2  UNL     1       5.983  34.371  56.980  1.00  0.00    -0.309 N
HETATM    6  C4  UNL     1       7.025  34.521  57.863  1.00  0.00     0.040 A
HETATM    7  C5  UNL     1       7.708  35.730  57.962  1.00  0.00     0.032 A
HETATM    8  C6  UNL     1       7.380  36.806  57.202  1.00  0.00     0.037 A
HETATM    9  C7  UNL     1       6.352  36.694  56.315  1.00  0.00     0.089 A
HETATM   10  C8  UNL     1       7.436  33.490  58.680  1.00  0.00     0.031 A
HETATM   11  C9  UNL     1       6.778  32.303  58.594  1.00  0.00     0.016 A
HETATM   12  C10 UNL     1       5.732  32.117  57.723  1.00  0.00    -0.008 A
HETATM   13  C11 UNL     1       5.106  30.889  57.684  1.00  0.00     0.026 A
HETATM   14  C12 UNL     1       4.058  30.684  56.820  1.00  0.00    -0.025 A
HETATM   15  C19 UNL     1       3.655  31.716  56.007  1.00  0.00     0.014 A
HETATM   16  C20 UNL     1       4.288  32.960  56.047  1.00  0.00     0.032 A
HETATM   17  C21 UNL     1       5.331  33.190  56.896  1.00  0.00     0.050 A
ENDROOT
BRANCH  14  18
HETATM   18  C13 UNL     1       3.403  29.381  56.789  1.00  0.00    -0.026 A
HETATM   19  C14 UNL     1       2.150  29.248  56.229  1.00  0.00     0.012 A
HETATM   20  C15 UNL     1       1.526  27.999  56.204  1.00  0.00     0.001 A
HETATM   21  C16 UNL     1       2.141  26.880  56.732  1.00  0.00     0.000 A
HETATM   22  C17 UNL     1       3.407  27.030  57.294  1.00  0.00     0.001 A
HETATM   23  C18 UNL     1       4.022  28.263  57.319  1.00  0.00     0.012 A
ENDBRANCH  14  18
BRANCH   1  24
HETATM   24  O1  UNL     1       6.239  38.855  55.286  1.00  0.00    -0.283 OA
ATOM     25  H1  UNL     1       6.814  39.353  55.854  1.00  0.00     0.245 HD
ENDBRANCH   1  24
TORSDOF 2
ENDMDL