MODEL 1
REMARK VINA RESULT: -9.139175252      0.000      0.000
REMARK  3 active torsions:
REMARK  status: ('A' for Active; 'I' for Inactive)
REMARK    1  A    between atoms: C6_7  and  C7_8
REMARK    2  A    between atoms: C8_9  and  C9_10
REMARK    3  A    between atoms: C12_13  and  C13_14
ROOT
HETATM    1  C7  UNL     1       4.406  32.814  55.314  1.00  0.00    -0.061 C
HETATM    2  C8  UNL     1       4.369  31.741  55.869  1.00  0.00    -0.061 C
ENDROOT
BRANCH   2   3
HETATM    3  C9  UNL     1       4.341  30.457  56.514  1.00  0.00     0.018 A
HETATM    4  C10 UNL     1       3.150  29.758  56.580  1.00  0.00     0.021 A
HETATM    5  C11 UNL     1       3.156  28.529  57.205  1.00  0.00     0.013 A
HETATM    6  C12 UNL     1       4.285  27.964  57.765  1.00  0.00    -0.026 A
HETATM    7  C19 UNL     1       5.453  28.685  57.683  1.00  0.00     0.013 A
HETATM    8  C20 UNL     1       5.487  29.906  57.072  1.00  0.00     0.021 A
BRANCH   6   9
HETATM    9  C13 UNL     1       4.274  26.668  58.420  1.00  0.00    -0.026 A
HETATM   10  C14 UNL     1       3.123  26.158  58.982  1.00  0.00     0.012 A
HETATM   11  C15 UNL     1       3.161  24.918  59.595  1.00  0.00     0.001 A
HETATM   12  C16 UNL     1       4.324  24.176  59.661  1.00  0.00     0.000 A
HETATM   13  C17 UNL     1       5.468  24.683  59.104  1.00  0.00     0.001 A
HETATM   14  C18 UNL     1       5.431  25.924  58.489  1.00  0.00     0.012 A
ENDBRANCH   6   9
ENDBRANCH   2   3
BRANCH   1  15
HETATM   15  C6  UNL     1       4.442  34.085  54.649  1.00  0.00     0.019 A
HETATM   16  C5  UNL     1       4.258  34.245  53.283  1.00  0.00     0.034 A
HETATM   17  C4  UNL     1       4.298  35.473  52.672  1.00  0.00    -0.001 A
HETATM   18  C3  UNL     1       4.112  35.594  51.320  1.00  0.00     0.020 A
HETATM   19  C23 UNL     1       4.528  36.585  53.428  1.00  0.00     0.089 A
HETATM   20  C2  UNL     1       4.155  36.844  50.706  1.00  0.00     0.083 A
HETATM   21  C1  UNL     1       4.395  37.934  51.547  1.00  0.00     0.288 A
HETATM   22  O1  UNL     1       4.434  39.057  51.012  1.00  0.00    -0.260 OA
HETATM   23  O2  UNL     1       4.565  37.774  52.826  1.00  0.00    -0.275 OA
HETATM   24  C22 UNL     1       4.718  36.486  54.787  1.00  0.00     0.040 A
HETATM   25  C21 UNL     1       4.673  35.248  55.371  1.00  0.00     0.023 A
ENDBRANCH   1  15
TORSDOF 3
ENDMDL