MODEL 5
REMARK VINA RESULT: -9.006800379      2.586      5.481
REMARK  1 active torsions:
REMARK  status: ('A' for Active; 'I' for Inactive)
REMARK    1  A    between atoms: C4_4  and  C5_5
ROOT
HETATM    1  C5  UNL     1       2.844  29.295  56.489  1.00  0.00     0.026 A
HETATM    2  C6  UNL     1       1.825  28.388  56.666  1.00  0.00     0.018 A
HETATM    3  C7  UNL     1       2.141  27.143  57.145  1.00  0.00     0.018 A
HETATM    4  C8  UNL     1       3.421  26.772  57.448  1.00  0.00     0.093 A
HETATM    5  N1  UNL     1       4.412  27.680  57.268  1.00  0.00    -0.332 N
HETATM    6  C9  UNL     1       4.154  28.898  56.806  1.00  0.00     0.161 A
HETATM    7  O1  UNL     1       5.134  29.832  56.615  1.00  0.00    -0.291 OA
HETATM    8  C10 UNL     1       6.505  29.537  56.905  1.00  0.00     0.104 A
HETATM    9  C11 UNL     1       6.724  28.286  57.372  1.00  0.00     0.036 A
HETATM   10  S1  UNL     1       8.440  28.262  57.616  1.00  0.00    -0.089 SA
HETATM   11  C12 UNL     1       8.794  29.844  57.112  1.00  0.00     0.018 A
HETATM   12  C13 UNL     1       9.988  30.587  57.016  1.00  0.00     0.020 A
HETATM   13  C14 UNL     1       9.989  31.893  56.562  1.00  0.00     0.001 A
HETATM   14  C15 UNL     1       8.771  32.401  56.217  1.00  0.00     0.001 A
HETATM   15  C16 UNL     1       7.617  31.706  56.301  1.00  0.00     0.015 A
HETATM   16  C17 UNL     1       7.589  30.363  56.765  1.00  0.00     0.016 A
HETATM   17  C18 UNL     1       5.725  27.217  57.609  1.00  0.00     0.179 A
ENDROOT
BRANCH   1  18
HETATM   18  C4  UNL     1       2.632  30.638  55.987  1.00  0.00    -0.022 A
HETATM   19  C3  UNL     1       1.423  30.917  55.343  1.00  0.00     0.012 A
HETATM   20  C2  UNL     1       1.148  32.169  54.835  1.00  0.00     0.001 A
HETATM   21  C1  UNL     1       2.067  33.196  54.948  1.00  0.00     0.000 A
HETATM   22  C20 UNL     1       3.252  32.922  55.579  1.00  0.00     0.001 A
HETATM   23  C19 UNL     1       3.529  31.667  56.089  1.00  0.00     0.012 A
ENDBRANCH   1  18
TORSDOF 1
ENDMDL