MODEL 4
REMARK VINA RESULT: -9.030939302      2.459      5.520
REMARK  1 active torsions:
REMARK  status: ('A' for Active; 'I' for Inactive)
REMARK    1  A    between atoms: C12_14  and  C13_15
ROOT
HETATM    1  C1  UNL     1       8.477  28.342  57.774  1.00  0.00     0.158 C
HETATM    2  N1  UNL     1       7.534  29.379  57.380  1.00  0.00    -0.329 N
HETATM    3  C2  UNL     1       6.235  29.184  57.197  1.00  0.00     0.064 A
HETATM    4  C3  UNL     1       5.493  28.024  57.290  1.00  0.00     0.044 A
HETATM    5  C4  UNL     1       4.166  28.046  57.014  1.00  0.00    -0.024 A
HETATM    6  C5  UNL     1       3.451  26.859  57.116  1.00  0.00     0.012 A
HETATM    7  C6  UNL     1       2.101  26.913  56.828  1.00  0.00     0.001 A
HETATM    8  C7  UNL     1       1.477  28.081  56.454  1.00  0.00     0.001 A
HETATM    9  C8  UNL     1       2.240  29.226  56.370  1.00  0.00     0.012 A
HETATM   10  C9  UNL     1       3.576  29.222  56.645  1.00  0.00    -0.024 A
HETATM   11  C10 UNL     1       4.337  30.383  56.557  1.00  0.00     0.044 A
HETATM   12  C11 UNL     1       5.700  30.416  56.832  1.00  0.00     0.069 A
HETATM   13  N2  UNL     1       6.680  31.382  56.795  1.00  0.00    -0.288 N
HETATM   14  C12 UNL     1       6.856  32.632  56.518  1.00  0.00     0.059 A
HETATM   15  C19 UNL     1       8.155  33.129  56.587  1.00  0.00     0.084 A
HETATM   16  S1  UNL     1       9.069  31.787  57.056  1.00  0.00    -0.063 SA
HETATM   17  C20 UNL     1       7.767  30.676  57.135  1.00  0.00     0.158 A
ENDROOT
BRANCH  14  18
HETATM   18  C13 UNL     1       5.881  33.685  56.099  1.00  0.00    -0.008 A
HETATM   19  C14 UNL     1       5.109  33.534  54.964  1.00  0.00     0.014 A
HETATM   20  C15 UNL     1       4.331  34.544  54.496  1.00  0.00     0.001 A
HETATM   21  C16 UNL     1       4.267  35.782  55.127  1.00  0.00     0.000 A
HETATM   22  C17 UNL     1       5.040  35.919  56.254  1.00  0.00     0.001 A
HETATM   23  C18 UNL     1       5.825  34.899  56.725  1.00  0.00     0.014 A
ENDBRANCH  14  18
TORSDOF 1
ENDMDL