MODEL 3
REMARK VINA RESULT: -9.486994717      2.214      2.838
REMARK  1 active torsions:
REMARK  status: ('A' for Active; 'I' for Inactive)
REMARK    1  A    between atoms: C4_4  and  N1_5
ROOT
HETATM    1  N1  UNL     1       6.132  31.747  56.891  1.00  0.00    -0.215 N
HETATM    2  O1  UNL     1       4.806  31.625  56.653  1.00  0.00    -0.228 OA
HETATM    3  C5  UNL     1       4.454  30.341  56.749  1.00  0.00     0.125 A
HETATM    4  C6  UNL     1       5.593  29.697  57.050  1.00  0.00     0.059 A
HETATM    5  C7  UNL     1       5.544  28.362  57.211  1.00  0.00     0.059 A
HETATM    6  N2  UNL     1       6.738  27.770  57.514  1.00  0.00    -0.354 N
ATOM      7  H2  UNL     1       6.797  26.761  57.654  1.00  0.00     0.166 HD
HETATM    8  C8  UNL     1       7.857  28.559  57.628  1.00  0.00     0.045 A
HETATM    9  C9  UNL     1       9.076  27.996  57.933  1.00  0.00     0.030 A
HETATM   10  C10 UNL     1      10.193  28.789  58.046  1.00  0.00     0.002 A
HETATM   11  C11 UNL     1      10.146  30.154  57.863  1.00  0.00     0.001 A
HETATM   12  C12 UNL     1       8.920  30.762  57.551  1.00  0.00     0.016 A
HETATM   13  C13 UNL     1       7.851  29.956  57.449  1.00  0.00     0.021 A
HETATM   14  C14 UNL     1       6.638  30.541  57.142  1.00  0.00     0.091 A
HETATM   15  C15 UNL     1       4.146  28.049  56.982  1.00  0.00     0.005 A
HETATM   16  C16 UNL     1       3.505  26.857  57.012  1.00  0.00     0.014 A
HETATM   17  C17 UNL     1       2.140  26.863  56.750  1.00  0.00     0.001 A
HETATM   18  C18 UNL     1       1.452  28.052  56.467  1.00  0.00     0.001 A
HETATM   19  C19 UNL     1       2.130  29.267  56.441  1.00  0.00     0.015 A
HETATM   20  C20 UNL     1       3.454  29.257  56.697  1.00  0.00     0.013 A
ENDROOT
BRANCH   1  21
HETATM   21  C4  UNL     1       6.749  33.003  56.849  1.00  0.00     0.063 A
HETATM   22  C3  UNL     1       6.831  33.716  58.022  1.00  0.00     0.032 A
HETATM   23  C2  UNL     1       7.470  34.927  58.057  1.00  0.00     0.002 A
HETATM   24  C1  UNL     1       8.055  35.482  56.930  1.00  0.00     0.000 A
HETATM   25  C22 UNL     1       7.962  34.751  55.767  1.00  0.00     0.002 A
HETATM   26  C21 UNL     1       7.325  33.537  55.713  1.00  0.00     0.032 A
ENDBRANCH   1  21
TORSDOF 1
ENDMDL