MODEL 1
REMARK VINA RESULT: -9.934957515      0.000      0.000
REMARK  1 active torsions:
REMARK  status: ('A' for Active; 'I' for Inactive)
REMARK    1  A    between atoms: C9_11  and  C10_12
ROOT
HETATM    1  C1  UNL     1      10.397  31.115  59.774  1.00  0.00     0.158 C
HETATM    2  N1  UNL     1      10.047  30.691  58.433  1.00  0.00    -0.329 N
HETATM    3  C2  UNL     1      10.801  30.325  57.409  1.00  0.00     0.063 A
HETATM    4  C3  UNL     1      12.173  30.242  57.333  1.00  0.00     0.032 A
HETATM    5  C4  UNL     1      12.771  29.835  56.165  1.00  0.00     0.002 A
HETATM    6  C5  UNL     1      11.985  29.514  55.082  1.00  0.00     0.002 A
HETATM    7  C6  UNL     1      10.622  29.606  55.189  1.00  0.00     0.032 A
HETATM    8  C7  UNL     1       9.995  30.010  56.342  1.00  0.00     0.068 A
HETATM    9  N2  UNL     1       8.683  30.195  56.738  1.00  0.00    -0.299 N
HETATM   10  C8  UNL     1       7.491  30.062  56.178  1.00  0.00     0.119 A
HETATM   11  C9  UNL     1       6.382  30.346  56.893  1.00  0.00     0.035 A
HETATM   12  S1  UNL     1       7.114  30.812  58.418  1.00  0.00    -0.051 SA
HETATM   13  C20 UNL     1       8.747  30.603  57.994  1.00  0.00     0.158 A
ENDROOT
BRANCH  11  14
HETATM   14  C10 UNL     1       4.944  30.239  56.693  1.00  0.00    -0.006 A
HETATM   15  C11 UNL     1       4.310  31.427  56.282  1.00  0.00     0.014 A
HETATM   16  C12 UNL     1       2.967  31.515  56.036  1.00  0.00     0.002 A
HETATM   17  C13 UNL     1       2.194  30.396  56.194  1.00  0.00     0.012 A
HETATM   18  C14 UNL     1       2.796  29.228  56.591  1.00  0.00    -0.025 A
HETATM   19  C15 UNL     1       2.016  28.095  56.713  1.00  0.00     0.012 A
HETATM   20  C19 UNL     1       4.181  29.134  56.844  1.00  0.00    -0.014 A
HETATM   21  C16 UNL     1       2.582  26.895  57.071  1.00  0.00     0.001 A
HETATM   22  C17 UNL     1       3.926  26.803  57.310  1.00  0.00     0.001 A
HETATM   23  C18 UNL     1       4.739  27.934  57.196  1.00  0.00     0.013 A
ENDBRANCH  11  14
TORSDOF 1
ENDMDL