MODEL 4
REMARK VINA RESULT: -9.305428147      1.920      7.273
REMARK  1 active torsions:
REMARK  status: ('A' for Active; 'I' for Inactive)
REMARK    1  A    between atoms: N2_18  and  C16_20
ROOT
HETATM    1  C1  UNL     1       6.869  32.504  58.929  1.00  0.00     0.186 A
HETATM    2  N1  UNL     1       7.285  33.727  58.926  1.00  0.00    -0.352 N
ATOM      3  H1  UNL     1       7.859  34.072  59.694  1.00  0.00     0.166 HD
HETATM    4  C2  UNL     1       6.936  34.602  57.835  1.00  0.00     0.041 A
HETATM    5  C3  UNL     1       7.362  35.909  57.833  1.00  0.00     0.030 A
HETATM    6  C4  UNL     1       7.062  36.803  56.828  1.00  0.00     0.002 A
HETATM    7  C5  UNL     1       6.301  36.386  55.764  1.00  0.00     0.001 A
HETATM    8  C6  UNL     1       5.870  35.061  55.767  1.00  0.00     0.012 A
HETATM    9  C7  UNL     1       6.158  34.161  56.758  1.00  0.00    -0.004 A
HETATM   10  C8  UNL     1       5.745  32.781  56.698  1.00  0.00     0.161 A
HETATM   11  C9  UNL     1       4.327  32.442  56.425  1.00  0.00    -0.016 A
HETATM   12  C10 UNL     1       3.295  33.068  55.760  1.00  0.00     0.010 A
HETATM   13  C11 UNL     1       2.133  32.344  55.458  1.00  0.00     0.001 A
HETATM   14  C12 UNL     1       1.971  31.030  55.794  1.00  0.00     0.001 A
HETATM   15  C13 UNL     1       3.034  30.429  56.473  1.00  0.00     0.016 A
HETATM   16  C14 UNL     1       4.194  31.098  56.798  1.00  0.00     0.017 A
HETATM   17  C15 UNL     1       5.303  30.778  57.711  1.00  0.00     0.120 C
HETATM   18  N2  UNL     1       5.599  29.686  58.274  1.00  0.00    -0.342 N
ATOM     19  H2  UNL     1       6.430  29.751  58.862  1.00  0.00     0.167 HD
HETATM   20  N3  UNL     1       6.051  32.006  57.864  1.00  0.00    -0.315 N
ENDROOT
BRANCH  18  21
HETATM   21  C16 UNL     1       5.041  28.427  58.263  1.00  0.00     0.033 A
HETATM   22  C17 UNL     1       5.515  27.366  57.489  1.00  0.00     0.029 A
HETATM   23  C18 UNL     1       4.904  26.137  57.549  1.00  0.00     0.002 A
HETATM   24  C19 UNL     1       3.815  25.935  58.375  1.00  0.00     0.000 A
HETATM   25  C20 UNL     1       3.338  26.963  59.140  1.00  0.00     0.002 A
HETATM   26  C21 UNL     1       3.936  28.195  59.091  1.00  0.00     0.029 A
ENDBRANCH  18  21
TORSDOF 1
ENDMDL