MODEL 1
REMARK VINA RESULT: -9.308966280      0.000      0.000
REMARK  1 active torsions:
REMARK  status: ('A' for Active; 'I' for Inactive)
REMARK    1  A    between atoms: C4_6  and  C5_7
ROOT
HETATM    1  C1  UNL     1       6.106  29.844  57.308  1.00  0.00     0.071 C
HETATM    2  C2  UNL     1       4.726  30.093  56.839  1.00  0.00     0.040 A
HETATM    3  C3  UNL     1       4.371  31.366  56.431  1.00  0.00     0.066 A
HETATM    4  N1  UNL     1       5.027  32.546  56.344  1.00  0.00    -0.353 N
ATOM      5  H1  UNL     1       6.003  32.709  56.594  1.00  0.00     0.166 HD
HETATM    6  C4  UNL     1       4.170  33.466  55.870  1.00  0.00     0.050 A
HETATM    7  C13 UNL     1       2.951  32.845  55.657  1.00  0.00     0.044 A
HETATM    8  C14 UNL     1       3.070  31.536  56.005  1.00  0.00    -0.003 A
HETATM    9  C15 UNL     1       2.181  30.503  55.988  1.00  0.00     0.043 A
HETATM   10  C16 UNL     1       2.580  29.249  56.405  1.00  0.00     0.039 A
HETATM   11  C17 UNL     1       1.648  28.232  56.371  1.00  0.00     0.030 A
HETATM   12  C18 UNL     1       2.058  26.984  56.790  1.00  0.00     0.004 A
HETATM   13  C19 UNL     1       3.367  26.761  57.232  1.00  0.00     0.018 A
HETATM   14  C20 UNL     1       4.235  27.832  57.233  1.00  0.00     0.097 A
HETATM   15  N2  UNL     1       3.854  29.057  56.828  1.00  0.00    -0.324 N
ENDROOT
BRANCH   6  16
HETATM   16  C5  UNL     1       4.420  34.887  55.606  1.00  0.00     0.033 A
HETATM   17  C6  UNL     1       4.459  35.928  56.488  1.00  0.00     0.034 A
HETATM   18  C7  UNL     1       4.712  37.157  55.993  1.00  0.00    -0.018 A
HETATM   19  C8  UNL     1       4.797  38.368  56.717  1.00  0.00     0.013 A
HETATM   20  C12 UNL     1       4.911  37.257  54.644  1.00  0.00     0.016 A
HETATM   21  C9  UNL     1       5.062  39.540  56.064  1.00  0.00     0.001 A
HETATM   22  C10 UNL     1       5.265  39.654  54.709  1.00  0.00     0.001 A
HETATM   23  C11 UNL     1       5.183  38.476  53.994  1.00  0.00     0.019 A
HETATM   24  S1  UNL     1       4.736  35.632  54.112  1.00  0.00    -0.087 SA
ENDBRANCH   6  16
TORSDOF 1
ENDMDL