MODEL 4
REMARK VINA RESULT: -3.687360316      1.033      1.602
REMARK  10 active torsions:
REMARK  status: ('A' for Active; 'I' for Inactive)
REMARK    1  A    between atoms: C2_3  and  N2_4
REMARK    2  A    between atoms: N2_4  and  C3_6
REMARK    3  A    between atoms: C4_11  and  N5_12
REMARK    4  A    between atoms: N5_12  and  C5_14
REMARK    5  A    between atoms: C5_14  and  C6_15
REMARK    6  A    between atoms: C6_15  and  C7_16
REMARK    7  A    between atoms: C7_16  and  C8_17
REMARK    8  A    between atoms: C8_17  and  C9_18
REMARK    9  A    between atoms: C9_18  and  C10_19
REMARK   10  A    between atoms: C10_19  and  N6_20
ROOT
HETATM    1  N1  UNL     1      60.382  32.797  44.391  1.00  0.00    -0.196 NA
HETATM    2  C1  UNL     1      59.900  33.573  45.124  1.00  0.00     0.079 C
HETATM    3  C2  UNL     1      59.287  34.524  46.026  1.00  0.00     0.262 C
ENDROOT
BRANCH   3   4
HETATM    4  N2  UNL     1      59.518  34.128  47.399  1.00  0.00    -0.212 N
ATOM      5  H2  UNL     1      59.785  34.817  48.101  1.00  0.00     0.178 HD
BRANCH   4   6
HETATM    6  C3  UNL     1      59.378  32.889  47.715  1.00  0.00     0.708 A
HETATM    7  N3  UNL     1      60.339  31.925  47.730  1.00  0.00    -0.117 N
HETATM    8  N4  UNL     1      59.789  30.784  48.111  1.00  0.00    -0.117 N
ATOM      9  H3  UNL     1      61.321  32.060  47.487  1.00  0.00     0.206 HD
HETATM   10  C4  UNL     1      58.485  30.994  48.345  1.00  0.00     0.707 A
ATOM     11  H4  UNL     1      60.275  29.893  48.211  1.00  0.00     0.206 HD
HETATM   12  N7  UNL     1      58.233  32.292  48.100  1.00  0.00    -0.020 N
ATOM     13  H7  UNL     1      57.326  32.749  48.191  1.00  0.00     0.203 HD
BRANCH  10  14
HETATM   14  N5  UNL     1      57.581  30.165  48.731  1.00  0.00    -0.224 N
ATOM     15  H5  UNL     1      57.543  29.820  49.690  1.00  0.00     0.177 HD
BRANCH  14  16
HETATM   16  C5  UNL     1      56.606  29.741  47.715  1.00  0.00     0.138 C
BRANCH  16  17
HETATM   17  C6  UNL     1      55.268  30.157  48.222  1.00  0.00     0.020 C
BRANCH  17  18
HETATM   18  C7  UNL     1      54.774  29.222  49.279  1.00  0.00     0.002 C
BRANCH  18  19
HETATM   19  C8  UNL     1      54.382  29.982  50.511  1.00  0.00     0.002 C
BRANCH  19  20
HETATM   20  C9  UNL     1      55.491  29.935  51.555  1.00  0.00     0.027 C
BRANCH  20  21
HETATM   21  C10 UNL     1      55.849  31.358  51.950  1.00  0.00     0.229 C
BRANCH  21  22
HETATM   22  N6  UNL     1      54.663  32.164  51.871  1.00  0.00    -0.079 N
ATOM     23  H63 UNL     1      54.816  33.038  51.368  1.00  0.00     0.274 HD
ATOM     24  H62 UNL     1      53.960  31.766  51.249  1.00  0.00     0.274 HD
ATOM     25  H61 UNL     1      54.311  32.313  52.816  1.00  0.00     0.274 HD
ENDBRANCH  21  22
ENDBRANCH  20  21
ENDBRANCH  19  20
ENDBRANCH  18  19
ENDBRANCH  17  18
ENDBRANCH  16  17
ENDBRANCH  14  16
ENDBRANCH  10  14
ENDBRANCH   4   6
ENDBRANCH   3   4
TORSDOF 10
ENDMDL