MODEL 4
REMARK VINA RESULT: -3.465355054      1.557      2.526
REMARK  9 active torsions:
REMARK  status: ('A' for Active; 'I' for Inactive)
REMARK    1  A    between atoms: C2_2  and  N1_3
REMARK    2  A    between atoms: C2_2  and  N2_7
REMARK    3  A    between atoms: N2_7  and  C3_10
REMARK    4  A    between atoms: C5_12  and  C6_13
REMARK    5  A    between atoms: C6_13  and  N3_14
REMARK    6  A    between atoms: N4_18  and  O1_19
REMARK    7  A    between atoms: O1_19  and  C7_20
REMARK    8  A    between atoms: C7_20  and  C8_21
REMARK    9  A    between atoms: C11_24  and  O2_25
ROOT
HETATM    1  C3  UNL     1      59.315  31.966  46.813  1.00  0.00     0.240 C
HETATM    2  C4  UNL     1      59.274  32.813  48.062  1.00  0.00     0.067 C
HETATM    3  C5  UNL     1      58.843  31.874  49.203  1.00  0.00     0.139 C
HETATM    4  N4  UNL     1      58.237  30.842  48.474  1.00  0.00    -0.257 N
HETATM    5  C11 UNL     1      58.907  30.576  47.266  1.00  0.00     0.272 C
ENDROOT
BRANCH   1   6
HETATM    6  N2  UNL     1      60.623  31.980  46.222  1.00  0.00    -0.038 N
ATOM      7  H22 UNL     1      60.874  31.093  45.784  1.00  0.00     0.280 HD
ATOM      8  H21 UNL     1      61.375  32.001  46.911  1.00  0.00     0.280 HD
BRANCH   6   9
HETATM    9  C2  UNL     1      60.661  33.101  45.302  1.00  0.00     0.377 C
HETATM   10  C1  UNL     1      59.914  32.817  44.016  1.00  0.00     0.071 C
BRANCH   9  11
HETATM   11  N1  UNL     1      60.227  34.340  45.904  1.00  0.00    -0.051 N
ATOM     12  H13 UNL     1      60.157  34.257  46.918  1.00  0.00     0.276 HD
ATOM     13  H12 UNL     1      60.952  35.054  45.852  1.00  0.00     0.276 HD
ATOM     14  H11 UNL     1      59.351  34.667  45.496  1.00  0.00     0.276 HD
ENDBRANCH   9  11
ENDBRANCH   6   9
ENDBRANCH   1   6
BRANCH   5  15
HETATM   15  O2  UNL     1      59.990  29.739  47.353  1.00  0.00    -0.373 OA
ATOM     16  H2  UNL     1      60.139  29.455  48.247  1.00  0.00     0.212 HD
ENDBRANCH   5  15
BRANCH   3  17
HETATM   17  C6  UNL     1      57.890  32.669  50.072  1.00  0.00     0.257 C
BRANCH  17  18
HETATM   18  N3  UNL     1      57.638  33.993  49.536  1.00  0.00    -0.077 N
ATOM     19  H33 UNL     1      58.195  34.166  48.700  1.00  0.00     0.274 HD
ATOM     20  H32 UNL     1      56.707  34.054  49.126  1.00  0.00     0.274 HD
ATOM     21  H31 UNL     1      57.783  34.724  50.233  1.00  0.00     0.274 HD
ENDBRANCH  17  18
ENDBRANCH   3  17
BRANCH   4  22
HETATM   22  O1  UNL     1      57.395  30.012  48.956  1.00  0.00    -0.279 OA
BRANCH  22  23
HETATM   23  C7  UNL     1      56.081  30.075  48.571  1.00  0.00     0.205 C
BRANCH  23  24
HETATM   24  C8  UNL     1      55.241  29.518  49.707  1.00  0.00     0.012 A
HETATM   25  C9  UNL     1      54.140  30.331  50.278  1.00  0.00     0.007 A
HETATM   26  C10 UNL     1      55.448  30.239  51.023  1.00  0.00     0.007 A
ENDBRANCH  23  24
ENDBRANCH  22  23
ENDBRANCH   4  22
TORSDOF 9
ENDMDL