MODEL 1
REMARK VINA RESULT: -4.949977537      0.000      0.000
REMARK  9 active torsions:
REMARK  status: ('A' for Active; 'I' for Inactive)
REMARK    1  A    between atoms: N1_3  and  C4_5
REMARK    2  A    between atoms: C4_5  and  C5_6
REMARK    3  A    between atoms: C5_6  and  N2_7
REMARK    4  A    between atoms: N2_7  and  C6_10
REMARK    5  A    between atoms: C6_10  and  C7_11
REMARK    6  A    between atoms: C7_11  and  C8_12
REMARK    7  A    between atoms: C8_12  and  N3_13
REMARK    8  A    between atoms: N3_13  and  C9_15
REMARK    9  A    between atoms: C10_21  and  N6_22
ROOT
HETATM    1  C1  UNL     1      55.506  30.726  51.855  1.00  0.00     0.037 C
HETATM    2  C2  UNL     1      55.567  30.322  50.719  1.00  0.00    -0.004 C
HETATM    3  N1  UNL     1      55.624  29.876  49.370  1.00  0.00    -0.345 N
HETATM    4  C3  UNL     1      54.507  30.134  48.520  1.00  0.00     0.160 C
ENDROOT
BRANCH   3   5
HETATM    5  C4  UNL     1      56.824  29.195  48.934  1.00  0.00     0.159 C
BRANCH   5   6
HETATM    6  C5  UNL     1      57.402  29.845  47.671  1.00  0.00     0.252 C
BRANCH   6   7
HETATM    7  N2  UNL     1      58.832  29.905  47.841  1.00  0.00    -0.073 N
ATOM      8  H22 UNL     1      59.196  28.995  48.121  1.00  0.00     0.277 HD
ATOM      9  H21 UNL     1      59.294  30.007  46.937  1.00  0.00     0.277 HD
BRANCH   7  10
HETATM   10  C6  UNL     1      59.279  30.932  48.755  1.00  0.00     0.234 C
BRANCH  10  11
HETATM   11  C7  UNL     1      58.282  32.100  48.818  1.00  0.00     0.047 C
BRANCH  11  12
HETATM   12  C8  UNL     1      59.208  33.348  49.016  1.00  0.00     0.123 C
BRANCH  12  13
HETATM   13  N3  UNL     1      60.222  33.243  48.076  1.00  0.00    -0.372 N
ATOM     14  H3  UNL     1      61.158  33.133  48.465  1.00  0.00     0.161 HD
BRANCH  13  15
HETATM   15  C9  UNL     1      60.169  33.262  46.801  1.00  0.00     0.169 A
HETATM   16  N4  UNL     1      61.028  32.502  46.022  1.00  0.00    -0.222 N
HETATM   17  O1  UNL     1      60.771  32.726  44.800  1.00  0.00    -0.153 OA
ATOM     18  H4  UNL     1      61.746  31.868  46.373  1.00  0.00     0.198 HD
HETATM   19  N5  UNL     1      59.814  33.565  44.640  1.00  0.00    -0.222 N
HETATM   20  C10 UNL     1      59.388  33.943  45.901  1.00  0.00     0.167 A
ATOM     21  H5  UNL     1      59.438  33.892  43.750  1.00  0.00     0.198 HD
BRANCH  20  22
HETATM   22  N6  UNL     1      58.431  34.764  46.102  1.00  0.00    -0.381 N
ATOM     23  H62 UNL     1      57.549  34.733  45.590  1.00  0.00     0.157 HD
ATOM     24  H61 UNL     1      58.357  35.536  46.765  1.00  0.00     0.157 HD
ENDBRANCH  20  22
ENDBRANCH  13  15
ENDBRANCH  12  13
ENDBRANCH  11  12
ENDBRANCH  10  11
ENDBRANCH   7  10
ENDBRANCH   6   7
ENDBRANCH   5   6
ENDBRANCH   3   5
TORSDOF 9
ENDMDL