MODEL 5
REMARK VINA RESULT: -2.409465387      2.685      6.212
REMARK  9 active torsions:
REMARK  status: ('A' for Active; 'I' for Inactive)
REMARK    1  A    between atoms: C2_2  and  O1_3
REMARK    2  A    between atoms: O1_3  and  C3_4
REMARK    3  A    between atoms: C3_4  and  C4_5
REMARK    4  A    between atoms: C4_5  and  N1_6
REMARK    5  A    between atoms: N1_6  and  C5_8
REMARK    6  A    between atoms: C5_8  and  C6_9
REMARK    7  A    between atoms: C6_9  and  N2_10
REMARK    8  A    between atoms: N2_10  and  C7_12
REMARK    9  A    between atoms: C10_19  and  N5_20
ROOT
HETATM    1  C7  UNL     1      57.096  29.759  48.674  1.00  0.00     0.694 A
HETATM    2  N3  UNL     1      57.009  29.783  50.016  1.00  0.00    -0.180 N
ATOM      3  H3  UNL     1      57.842  29.624  50.583  1.00  0.00     0.185 HD
HETATM    4  C8  UNL     1      55.811  30.020  50.621  1.00  0.00     0.109 A
HETATM    5  C9  UNL     1      55.639  30.064  52.079  1.00  0.00     0.090 C
HETATM    6  N4  UNL     1      54.734  30.224  49.849  1.00  0.00    -0.180 N
ATOM      7  H4  UNL     1      53.829  30.402  50.286  1.00  0.00     0.185 HD
HETATM    8  C10 UNL     1      54.828  30.197  48.506  1.00  0.00     0.691 A
HETATM    9  N6  UNL     1      56.003  29.966  47.901  1.00  0.00    -0.023 N
ATOM     10  H6  UNL     1      56.071  29.946  46.883  1.00  0.00     0.203 HD
ENDROOT
BRANCH   1  11
HETATM   11  N2  UNL     1      58.187  29.548  48.040  1.00  0.00    -0.224 N
ATOM     12  H2  UNL     1      58.534  28.593  47.941  1.00  0.00     0.177 HD
BRANCH  11  13
HETATM   13  C6  UNL     1      58.932  30.633  47.464  1.00  0.00     0.157 C
BRANCH  13  14
HETATM   14  C5  UNL     1      59.510  31.533  48.571  1.00  0.00     0.139 C
BRANCH  14  15
HETATM   15  N1  UNL     1      58.829  32.763  48.657  1.00  0.00    -0.399 N
ATOM     16  H1  UNL     1      58.802  33.285  49.533  1.00  0.00     0.158 HD
BRANCH  15  17
HETATM   17  C4  UNL     1      58.187  33.255  47.505  1.00  0.00     0.081 C
BRANCH  17  18
HETATM   18  C3  UNL     1      58.939  34.121  46.575  1.00  0.00     0.211 C
BRANCH  18  19
HETATM   19  O1  UNL     1      60.286  33.983  46.484  1.00  0.00    -0.387 OA
BRANCH  19  20
HETATM   20  C2  UNL     1      60.769  33.122  45.537  1.00  0.00     0.163 C
HETATM   21  C1  UNL     1      59.913  33.077  44.289  1.00  0.00     0.033 C
ENDBRANCH  19  20
ENDBRANCH  18  19
ENDBRANCH  17  18
ENDBRANCH  15  17
ENDBRANCH  14  15
ENDBRANCH  13  14
ENDBRANCH  11  13
ENDBRANCH   1  11
BRANCH   8  22
HETATM   22  N5  UNL     1      53.777  30.398  47.762  1.00  0.00    -0.234 N
ATOM     23  H52 UNL     1      53.874  30.985  46.934  1.00  0.00     0.174 HD
ATOM     24  H51 UNL     1      52.879  29.979  48.004  1.00  0.00     0.174 HD
ENDBRANCH   8  22
TORSDOF 9
ENDMDL