MODEL 3
REMARK VINA RESULT: -1.480009193      1.102      1.589
REMARK  8 active torsions:
REMARK  status: ('A' for Active; 'I' for Inactive)
REMARK    1  A    between atoms: N1_2  and  C2_5
REMARK    2  A    between atoms: C2_5  and  C3_6
REMARK    3  A    between atoms: C3_6  and  C4_7
REMARK    4  A    between atoms: C4_7  and  N2_8
REMARK    5  A    between atoms: N2_8  and  C5_11
REMARK    6  A    between atoms: C5_11  and  C6_12
REMARK    7  A    between atoms: C6_12  and  N3_13
REMARK    8  A    between atoms: N3_13  and  C7_15
ROOT
HETATM    1  N3  UNL     1      59.712  30.414  47.949  1.00  0.00    -0.352 N
ATOM      2  H3  UNL     1      60.732  30.412  47.983  1.00  0.00     0.166 HD
ENDROOT
BRANCH   1   3
HETATM    3  C6  UNL     1      59.366  29.107  47.928  1.00  0.00     0.090 C
BRANCH   3   4
HETATM    4  C5  UNL     1      58.666  28.459  49.094  1.00  0.00     0.276 C
BRANCH   4   5
HETATM    5  N2  UNL     1      57.257  28.896  49.134  1.00  0.00    -0.071 N
ATOM      6  H22 UNL     1      56.627  28.101  49.026  1.00  0.00     0.277 HD
ATOM      7  H21 UNL     1      57.015  29.417  48.291  1.00  0.00     0.277 HD
BRANCH   5   8
HETATM    8  C4  UNL     1      56.930  29.648  50.312  1.00  0.00     0.234 C
BRANCH   8   9
HETATM    9  C3  UNL     1      55.460  29.991  50.259  1.00  0.00     0.055 C
BRANCH   9  10
HETATM   10  C2  UNL     1      54.816  29.295  49.091  1.00  0.00     0.233 C
BRANCH  10  11
HETATM   11  N1  UNL     1      54.417  30.278  48.072  1.00  0.00    -0.079 N
HETATM   12  C1  UNL     1      55.512  31.201  47.843  1.00  0.00     0.266 C
ATOM     13  H12 UNL     1      53.552  30.758  48.316  1.00  0.00     0.276 HD
ATOM     14  H11 UNL     1      54.100  29.834  47.211  1.00  0.00     0.276 HD
ENDBRANCH  10  11
ENDBRANCH   9  10
ENDBRANCH   8   9
ENDBRANCH   5   8
ENDBRANCH   4   5
ENDBRANCH   3   4
ENDBRANCH   1   3
BRANCH   1  15
HETATM   15  C7  UNL     1      59.404  31.602  47.948  1.00  0.00     0.137 A
HETATM   16  N4  UNL     1      58.607  32.130  48.894  1.00  0.00    -0.337 N
HETATM   17  C8  UNL     1      58.310  33.458  48.788  1.00  0.00     0.183 A
ATOM     18  H4  UNL     1      58.241  31.562  49.658  1.00  0.00     0.168 HD
HETATM   19  N5  UNL     1      58.795  34.200  47.782  1.00  0.00    -0.337 N
HETATM   20  C9  UNL     1      59.599  33.706  46.809  1.00  0.00     0.138 A
ATOM     21  H5  UNL     1      58.544  35.189  47.747  1.00  0.00     0.168 HD
HETATM   22  N6  UNL     1      60.203  34.227  45.720  1.00  0.00    -0.337 N
HETATM   23  C11 UNL     1      59.914  32.381  46.890  1.00  0.00     0.122 A
HETATM   24  C10 UNL     1      60.902  33.225  45.109  1.00  0.00     0.182 A
ATOM     25  H6  UNL     1      60.148  35.196  45.409  1.00  0.00     0.168 HD
HETATM   26  N7  UNL     1      60.706  32.113  45.845  1.00  0.00    -0.346 N
ATOM     27  H7  UNL     1      61.106  31.198  45.636  1.00  0.00     0.167 HD
ENDBRANCH   1  15
TORSDOF 8
ENDMDL