MODEL 4
REMARK VINA RESULT: -2.258430259      3.000      6.122
REMARK  7 active torsions:
REMARK  status: ('A' for Active; 'I' for Inactive)
REMARK    1  A    between atoms: C2_2  and  N1_3
REMARK    2  A    between atoms: N1_3  and  C3_6
REMARK    3  A    between atoms: C3_6  and  C4_7
REMARK    4  A    between atoms: C4_7  and  N2_8
REMARK    5  A    between atoms: N2_8  and  C5_10
REMARK    6  A    between atoms: C7_15  and  C8_16
REMARK    7  A    between atoms: C8_16  and  N4_17
ROOT
HETATM    1  C5  UNL     1      58.385  32.374  48.082  1.00  0.00     0.139 C
HETATM    2  C6  UNL     1      58.817  32.821  49.435  1.00  0.00     0.260 C
HETATM    3  N3  UNL     1      57.739  32.061  50.044  1.00  0.00    -0.064 N
ATOM      4  H31 UNL     1      57.154  32.504  50.753  1.00  0.00     0.277 HD
ATOM      5  H32 UNL     1      57.964  31.300  50.684  1.00  0.00     0.277 HD
HETATM    6  C7  UNL     1      57.170  31.753  48.749  1.00  0.00     0.248 C
ENDROOT
BRANCH   6   7
HETATM    7  C8  UNL     1      57.207  30.230  48.592  1.00  0.00     0.184 C
HETATM    8  C9  UNL     1      56.310  29.826  47.478  1.00  0.00     0.220 C
HETATM    9  O1  UNL     1      55.007  29.733  48.046  1.00  0.00    -0.319 OA
HETATM   10  C10 UNL     1      55.076  29.909  49.442  1.00  0.00     0.261 C
HETATM   11  O2  UNL     1      54.142  30.224  50.214  1.00  0.00    -0.265 OA
HETATM   12  C11 UNL     1      56.497  29.640  49.808  1.00  0.00     0.154 C
BRANCH   7  13
HETATM   13  N4  UNL     1      58.544  29.784  48.464  1.00  0.00    -0.066 N
ATOM     14  H43 UNL     1      58.862  29.809  47.495  1.00  0.00     0.275 HD
ATOM     15  H42 UNL     1      59.207  30.451  48.858  1.00  0.00     0.275 HD
ATOM     16  H41 UNL     1      58.646  28.856  48.875  1.00  0.00     0.275 HD
ENDBRANCH   7  13
ENDBRANCH   6   7
BRANCH   1  17
HETATM   17  N2  UNL     1      58.162  33.391  47.129  1.00  0.00    -0.392 N
ATOM     18  H2  UNL     1      57.226  33.754  46.952  1.00  0.00     0.159 HD
BRANCH  17  19
HETATM   19  C4  UNL     1      59.277  33.882  46.436  1.00  0.00     0.083 C
BRANCH  19  20
HETATM   20  C3  UNL     1      60.464  33.005  46.255  1.00  0.00     0.276 C
BRANCH  20  21
HETATM   21  N1  UNL     1      60.723  32.761  44.824  1.00  0.00    -0.071 N
ATOM     22  H12 UNL     1      60.933  31.777  44.658  1.00  0.00     0.277 HD
ATOM     23  H11 UNL     1      61.612  33.175  44.544  1.00  0.00     0.277 HD
BRANCH  21  24
HETATM   24  C2  UNL     1      59.670  33.202  43.971  1.00  0.00     0.228 C
HETATM   25  C1  UNL     1      59.657  32.556  42.620  1.00  0.00     0.034 C
ENDBRANCH  21  24
ENDBRANCH  20  21
ENDBRANCH  19  20
ENDBRANCH  17  19
ENDBRANCH   1  17
TORSDOF 7
ENDMDL