MODEL 5
REMARK VINA RESULT: -3.561030624      1.099      1.548
REMARK  10 active torsions:
REMARK  status: ('A' for Active; 'I' for Inactive)
REMARK    1  A    between atoms: C1_4  and  C2_5
REMARK    2  A    between atoms: C2_5  and  C3_6
REMARK    3  A    between atoms: C3_6  and  N2_7
REMARK    4  A    between atoms: C3_6  and  O1_11
REMARK    5  A    between atoms: O1_11  and  C4_12
REMARK    6  A    between atoms: C4_12  and  O2_13
REMARK    7  A    between atoms: C4_12  and  C5_15
REMARK    8  A    between atoms: C5_15  and  N3_16
REMARK    9  A    between atoms: C5_15  and  C6_20
REMARK   10  A    between atoms: C6_20  and  N4_21
ROOT
HETATM    1  C4  UNL     1      59.181  31.510  48.126  1.00  0.00     0.291 C
ENDROOT
BRANCH   1   2
HETATM    2  O1  UNL     1      58.537  32.402  47.282  1.00  0.00    -0.327 OA
BRANCH   2   3
HETATM    3  C3  UNL     1      59.116  33.676  47.345  1.00  0.00     0.325 C
BRANCH   3   4
HETATM    4  C2  UNL     1      59.409  34.168  45.942  1.00  0.00     0.105 C
BRANCH   4   5
HETATM    5  C1  UNL     1      60.081  33.135  45.135  1.00  0.00     0.057 C
HETATM    6  N1  UNL     1      61.184  32.601  45.490  1.00  0.00    -0.411 N
ATOM      7  H12 UNL     1      61.601  32.911  46.368  1.00  0.00     0.155 HD
ATOM      8  H11 UNL     1      61.649  31.886  44.931  1.00  0.00     0.155 HD
ENDBRANCH   4   5
ENDBRANCH   3   4
BRANCH   3   9
HETATM    9  N2  UNL     1      60.362  33.604  48.062  1.00  0.00    -0.052 N
ATOM     10  H23 UNL     1      60.854  32.723  47.909  1.00  0.00     0.277 HD
ATOM     11  H22 UNL     1      61.073  34.227  47.681  1.00  0.00     0.277 HD
ATOM     12  H21 UNL     1      60.170  33.781  49.048  1.00  0.00     0.277 HD
ENDBRANCH   3   9
ENDBRANCH   2   3
ENDBRANCH   1   2
BRANCH   1  13
HETATM   13  O2  UNL     1      58.917  31.838  49.457  1.00  0.00    -0.369 OA
ATOM     14  H2  UNL     1      59.703  31.734  49.979  1.00  0.00     0.212 HD
ENDBRANCH   1  13
BRANCH   1  15
HETATM   15  C5  UNL     1      58.743  30.067  47.838  1.00  0.00     0.266 C
BRANCH  15  16
HETATM   16  N3  UNL     1      59.918  29.331  47.476  1.00  0.00    -0.069 N
ATOM     17  H33 UNL     1      60.585  29.883  46.935  1.00  0.00     0.275 HD
ATOM     18  H32 UNL     1      60.526  29.133  48.271  1.00  0.00     0.275 HD
ATOM     19  H31 UNL     1      59.609  28.489  46.991  1.00  0.00     0.275 HD
ENDBRANCH  15  16
BRANCH  15  20
HETATM   20  C6  UNL     1      58.083  29.568  49.088  1.00  0.00     0.310 C
BRANCH  20  21
HETATM   21  N4  UNL     1      56.841  30.217  49.396  1.00  0.00     0.090 N
HETATM   22  C7  UNL     1      55.944  30.145  48.290  1.00  0.00     0.272 C
HETATM   23  C8  UNL     1      54.553  29.684  48.641  1.00  0.00     0.030 C
HETATM   24  C9  UNL     1      54.048  30.591  49.758  1.00  0.00     0.003 C
HETATM   25  C10 UNL     1      54.951  30.399  50.956  1.00  0.00     0.030 C
HETATM   26  C11 UNL     1      56.241  29.738  50.615  1.00  0.00     0.272 C
ENDBRANCH  20  21
ENDBRANCH  15  20
ENDBRANCH   1  15
TORSDOF 10
ENDMDL