MODEL 4
REMARK VINA RESULT: -4.125654779      1.641      2.118
REMARK  9 active torsions:
REMARK  status: ('A' for Active; 'I' for Inactive)
REMARK    1  A    between atoms: C2_2  and  C3_3
REMARK    2  A    between atoms: C3_3  and  C4_4
REMARK    3  A    between atoms: C4_4  and  N1_5
REMARK    4  A    between atoms: N1_5  and  C5_8
REMARK    5  A    between atoms: C5_8  and  N2_10
REMARK    6  A    between atoms: N2_10  and  N3_11
REMARK    7  A    between atoms: N3_11  and  C7_12
REMARK    8  A    between atoms: C7_12  and  O1_13
REMARK    9  A    between atoms: C7_12  and  C8_15
ROOT
HETATM    1  N3  UNL     1      57.823  31.504  49.316  1.00  0.00    -0.108 NA
ENDROOT
BRANCH   1   2
HETATM    2  N2  UNL     1      57.129  31.444  48.103  1.00  0.00    -0.112 NA
BRANCH   2   3
HETATM    3  C5  UNL     1      56.586  30.107  47.877  1.00  0.00     0.289 C
HETATM    4  C6  UNL     1      57.344  29.176  48.798  1.00  0.00     0.060 C
BRANCH   3   5
HETATM    5  N1  UNL     1      55.174  30.053  48.063  1.00  0.00    -0.056 N
ATOM      6  H12 UNL     1      54.692  29.651  47.259  1.00  0.00     0.279 HD
ATOM      7  H11 UNL     1      54.744  30.978  48.040  1.00  0.00     0.279 HD
BRANCH   5   8
HETATM    8  C4  UNL     1      54.882  29.336  49.301  1.00  0.00     0.238 C
BRANCH   8   9
HETATM    9  C3  UNL     1      54.411  30.224  50.401  1.00  0.00     0.054 C
BRANCH   9  10
HETATM   10  C2  UNL     1      55.374  30.169  51.532  1.00  0.00    -0.035 C
HETATM   11  C1  UNL     1      55.826  31.274  52.062  1.00  0.00     0.007 C
ENDBRANCH   9  10
ENDBRANCH   8   9
ENDBRANCH   5   8
ENDBRANCH   3   5
ENDBRANCH   2   3
ENDBRANCH   1   2
BRANCH   1  12
HETATM   12  C7  UNL     1      59.200  31.861  49.025  1.00  0.00     0.280 C
BRANCH  12  13
HETATM   13  O1  UNL     1      59.956  30.664  48.866  1.00  0.00    -0.373 OA
ATOM     14  H1  UNL     1      60.466  30.520  49.655  1.00  0.00     0.212 HD
ENDBRANCH  12  13
BRANCH  12  15
HETATM   15  C8  UNL     1      59.268  32.641  47.754  1.00  0.00     0.097 A
HETATM   16  C9  UNL     1      59.917  32.259  46.584  1.00  0.00     0.150 A
HETATM   17  N4  UNL     1      59.737  33.238  45.676  1.00  0.00    -0.247 N
HETATM   18  C10 UNL     1      60.251  33.251  44.303  1.00  0.00     0.187 C
HETATM   19  O2  UNL     1      59.027  34.146  46.260  1.00  0.00    -0.155 OA
HETATM   20  N5  UNL     1      58.736  33.835  47.467  1.00  0.00    -0.240 N
ATOM     21  H5  UNL     1      58.186  34.407  48.108  1.00  0.00     0.196 HD
ENDBRANCH  12  15
ENDBRANCH   1  12
TORSDOF 9
ENDMDL