MODEL 2
REMARK VINA RESULT: -5.134841752      0.049      1.144
REMARK  10 active torsions:
REMARK  status: ('A' for Active; 'I' for Inactive)
REMARK    1  A    between atoms: O1_2  and  C2_3
REMARK    2  A    between atoms: C2_3  and  N1_4
REMARK    3  A    between atoms: C2_3  and  C3_8
REMARK    4  A    between atoms: C3_8  and  O2_9
REMARK    5  A    between atoms: C3_8  and  C4_11
REMARK    6  A    between atoms: C4_11  and  C5_12
REMARK    7  A    between atoms: C4_11  and  N2_15
REMARK    8  A    between atoms: C5_12  and  O3_13
REMARK    9  A    between atoms: N2_15  and  C6_17
REMARK   10  A    between atoms: C6_17  and  C7_18
ROOT
HETATM    1  C4  UNL     1      59.456  32.500  46.995  1.00  0.00     0.133 C
ENDROOT
BRANCH   1   2
HETATM    2  C3  UNL     1      59.180  33.471  45.851  1.00  0.00     0.198 C
BRANCH   2   3
HETATM    3  C2  UNL     1      60.209  33.414  44.765  1.00  0.00     0.349 C
BRANCH   3   4
HETATM    4  O1  UNL     1      60.085  32.364  43.899  1.00  0.00    -0.362 OA
HETATM    5  C1  UNL     1      59.523  32.716  42.661  1.00  0.00     0.204 C
ENDBRANCH   3   4
BRANCH   3   6
HETATM    6  N1  UNL     1      61.510  33.392  45.461  1.00  0.00    -0.050 N
ATOM      7  H13 UNL     1      61.393  33.275  46.467  1.00  0.00     0.277 HD
ATOM      8  H12 UNL     1      62.025  32.535  45.261  1.00  0.00     0.277 HD
ATOM      9  H11 UNL     1      62.065  34.220  45.244  1.00  0.00     0.277 HD
ENDBRANCH   3   6
ENDBRANCH   2   3
BRANCH   2  10
HETATM   10  O2  UNL     1      59.355  34.750  46.453  1.00  0.00    -0.389 OA
ATOM     11  H2  UNL     1      60.288  34.921  46.395  1.00  0.00     0.210 HD
ENDBRANCH   2  10
ENDBRANCH   1   2
BRANCH   1  12
HETATM   12  C5  UNL     1      59.774  33.367  48.184  1.00  0.00     0.191 C
BRANCH  12  13
HETATM   13  O3  UNL     1      61.071  33.771  48.312  1.00  0.00    -0.399 OA
ATOM     14  H3  UNL     1      61.273  34.316  49.064  1.00  0.00     0.209 HD
ENDBRANCH  12  13
ENDBRANCH   1  12
BRANCH   1  15
HETATM   15  N2  UNL     1      58.490  31.501  47.192  1.00  0.00    -0.409 N
ATOM     16  H2  UNL     1      57.847  31.205  46.457  1.00  0.00     0.154 HD
BRANCH  15  17
HETATM   17  C6  UNL     1      58.475  30.929  48.501  1.00  0.00     0.153 C
BRANCH  17  18
HETATM   18  C7  UNL     1      57.108  30.567  48.994  1.00  0.00    -0.041 A
HETATM   19  C8  UNL     1      56.747  30.613  50.316  1.00  0.00     0.009 A
HETATM   20  C9  UNL     1      55.459  30.277  50.698  1.00  0.00     0.001 A
HETATM   21  C10 UNL     1      54.476  29.882  49.792  1.00  0.00     0.000 A
HETATM   22  C11 UNL     1      54.851  29.838  48.464  1.00  0.00     0.001 A
HETATM   23  C12 UNL     1      56.127  30.172  48.085  1.00  0.00     0.009 A
ENDBRANCH  17  18
ENDBRANCH  15  17
ENDBRANCH   1  15
TORSDOF 10
ENDMDL