MODEL 3
REMARK VINA RESULT: -4.509372265      1.106      1.947
REMARK  8 active torsions:
REMARK  status: ('A' for Active; 'I' for Inactive)
REMARK    1  A    between atoms: O1_2  and  C2_3
REMARK    2  A    between atoms: C2_3  and  C3_4
REMARK    3  A    between atoms: C2_3  and  C7_11
REMARK    4  A    between atoms: C7_11  and  O2_12
REMARK    5  A    between atoms: C7_11  and  N2_14
REMARK    6  A    between atoms: N2_14  and  C8_16
REMARK    7  A    between atoms: C8_16  and  C9_17
REMARK    8  A    between atoms: C9_17  and  C10_18
ROOT
HETATM    1  C10 UNL     1      54.383  29.881  49.604  1.00  0.00    -0.011 C
HETATM    2  C11 UNL     1      54.181  30.635  50.671  1.00  0.00     0.090 C
HETATM    3  C12 UNL     1      55.298  30.963  51.536  1.00  0.00     0.087 C
HETATM    4  N3  UNL     1      56.191  31.205  52.231  1.00  0.00    -0.192 NA
ENDROOT
BRANCH   1   5
HETATM    5  C9  UNL     1      55.719  29.362  49.266  1.00  0.00     0.072 C
BRANCH   5   6
HETATM    6  C8  UNL     1      56.296  30.038  48.014  1.00  0.00     0.062 C
BRANCH   6   7
HETATM    7  N2  UNL     1      56.516  31.404  48.122  1.00  0.00    -0.374 N
ATOM      8  H2  UNL     1      55.712  32.030  48.077  1.00  0.00     0.161 HD
BRANCH   7   9
HETATM    9  C7  UNL     1      57.776  31.957  48.288  1.00  0.00     0.246 C
BRANCH   9  10
HETATM   10  C2  UNL     1      58.925  31.454  47.509  1.00  0.00     0.175 C
BRANCH  10  11
HETATM   11  O1  UNL     1      59.739  30.598  48.253  1.00  0.00    -0.386 OA
HETATM   12  C1  UNL     1      59.504  29.281  48.105  1.00  0.00     0.202 C
ENDBRANCH  10  11
BRANCH  10  13
HETATM   13  C3  UNL     1      59.825  32.497  46.934  1.00  0.00     0.046 C
HETATM   14  C4  UNL     1      59.182  33.800  46.575  1.00  0.00     0.036 C
HETATM   15  C5  UNL     1      60.251  34.436  45.682  1.00  0.00     0.232 C
HETATM   16  N1  UNL     1      61.292  33.439  45.502  1.00  0.00    -0.075 N
HETATM   17  C6  UNL     1      60.567  32.161  45.695  1.00  0.00     0.239 C
ATOM     18  H12 UNL     1      61.801  33.510  44.621  1.00  0.00     0.277 HD
ATOM     19  H11 UNL     1      62.108  33.561  46.103  1.00  0.00     0.277 HD
ENDBRANCH  10  13
ENDBRANCH   9  10
BRANCH   9  20
HETATM   20  O2  UNL     1      58.079  32.025  49.651  1.00  0.00    -0.374 OA
ATOM     21  H2  UNL     1      58.803  31.451  49.872  1.00  0.00     0.212 HD
ENDBRANCH   9  20
ENDBRANCH   7   9
ENDBRANCH   6   7
ENDBRANCH   5   6
ENDBRANCH   1   5
TORSDOF 8
ENDMDL