MODEL 5
REMARK VINA RESULT: -8.976585100      2.186     11.970
REMARK  15 active torsions:
REMARK  status: ('A' for Active; 'I' for Inactive)
REMARK    1  A    between atoms: C2_2  and  N1_3
REMARK    2  A    between atoms: C5_6  and  C6_7
REMARK    3  A    between atoms: C6_7  and  C7_9
REMARK    4  A    between atoms: C7_9  and  N2_10
REMARK    5  A    between atoms: N2_10  and  C8_12
REMARK    6  A    between atoms: C8_12  and  C9_13
REMARK    7  A    between atoms: C9_13  and  C10_14
REMARK    8  A    between atoms: C10_14  and  C11_15
REMARK    9  A    between atoms: C11_15  and  C12_16
REMARK   10  A    between atoms: C12_16  and  C13_17
REMARK       I    between atoms: N3_20  and  C16_21
REMARK   11  A    between atoms: C16_21  and  C17_23
REMARK   12  A    between atoms: C17_23  and  N4_24
REMARK   13  A    between atoms: C19_26  and  N5_27
REMARK   14  A    between atoms: C26_34  and  C27_35
REMARK       I    between atoms: C27_35  and  N6_37
REMARK   15  A    between atoms: N6_37  and  C28_39
ROOT
HETATM    1  C13 UNL     1      21.415  31.739  16.143  1.00  0.00    -0.012 C
HETATM    2  C14 UNL     1      20.323  30.711  16.214  1.00  0.00     0.024 C
HETATM    3  C15 UNL     1      20.472  29.684  15.078  1.00  0.00     0.126 C
HETATM    4  N3  UNL     1      20.593  30.481  13.871  1.00  0.00    -0.351 N
HETATM    5  C16 UNL     1      19.613  30.579  12.874  1.00  0.00     0.239 C
HETATM    6  O2  UNL     1      19.833  31.317  11.874  1.00  0.00    -0.271 OA
HETATM    7  C33 UNL     1      21.865  31.215  13.758  1.00  0.00     0.126 C
HETATM    8  C34 UNL     1      22.481  31.327  15.138  1.00  0.00     0.024 C
ENDROOT
BRANCH   5   9
HETATM    9  C17 UNL     1      18.334  29.871  12.915  1.00  0.00     0.251 C
BRANCH   9  10
HETATM   10  N4  UNL     1      18.374  28.550  12.366  1.00  0.00    -0.293 N
HETATM   11  C18 UNL     1      18.539  28.260  11.036  1.00  0.00     0.141 A
HETATM   12  C19 UNL     1      18.521  26.894  10.899  1.00  0.00     0.065 A
HETATM   13  C32 UNL     1      18.341  26.415  12.173  1.00  0.00     0.138 A
HETATM   14  N7  UNL     1      18.257  27.431  13.022  1.00  0.00    -0.307 N
ATOM     15  H7  UNL     1      18.123  27.349  14.030  1.00  0.00     0.186 HD
BRANCH  12  16
HETATM   16  N5  UNL     1      18.652  26.106   9.681  1.00  0.00    -0.365 N
HETATM   17  C20 UNL     1      17.637  25.112   9.611  1.00  0.00     0.124 C
HETATM   18  C21 UNL     1      17.456  24.396   8.311  1.00  0.00     0.025 C
HETATM   19  C22 UNL     1      18.023  25.026   7.110  1.00  0.00    -0.008 A
HETATM   20  C23 UNL     1      17.313  25.896   6.164  1.00  0.00     0.010 A
HETATM   21  C24 UNL     1      17.878  26.553   7.324  1.00  0.00    -0.008 A
HETATM   22  C25 UNL     1      19.297  27.022   7.474  1.00  0.00     0.040 C
HETATM   23  C26 UNL     1      19.735  26.499   8.857  1.00  0.00     0.177 C
BRANCH  23  24
HETATM   24  C27 UNL     1      20.772  25.468   8.610  1.00  0.00     0.241 C
HETATM   25  O3  UNL     1      20.790  24.533   9.470  1.00  0.00    -0.271 OA
HETATM   26  N6  UNL     1      21.690  25.427   7.567  1.00  0.00    -0.351 N
ATOM     27  H6  UNL     1      21.695  26.167   6.864  1.00  0.00     0.163 HD
BRANCH  26  28
HETATM   28  C28 UNL     1      22.639  24.337   7.476  1.00  0.00     0.022 C
HETATM   29  C29 UNL     1      23.616  24.547   6.329  1.00  0.00     0.037 C
HETATM   30  C30 UNL     1      23.449  24.205   8.743  1.00  0.00     0.037 C
HETATM   31  C31 UNL     1      21.951  23.010   7.235  1.00  0.00     0.037 C
ENDBRANCH  26  28
ENDBRANCH  23  24
ENDBRANCH  12  16
ENDBRANCH   9  10
ENDBRANCH   5   9
BRANCH   1  32
HETATM   32  C12 UNL     1      20.959  33.106  15.754  1.00  0.00     0.005 C
BRANCH  32  33
HETATM   33  C11 UNL     1      19.470  33.341  16.039  1.00  0.00     0.000 C
BRANCH  33  34
HETATM   34  C10 UNL     1      18.709  33.477  14.763  1.00  0.00     0.002 C
BRANCH  34  35
HETATM   35  C9  UNL     1      17.287  33.061  14.762  1.00  0.00     0.019 C
BRANCH  35  36
HETATM   36  C8  UNL     1      16.855  32.083  15.798  1.00  0.00     0.114 C
BRANCH  36  37
HETATM   37  N2  UNL     1      15.713  32.520  16.512  1.00  0.00    -0.415 N
ATOM     38  H2  UNL     1      15.034  31.869  16.906  1.00  0.00     0.153 HD
BRANCH  37  39
HETATM   39  C7  UNL     1      15.581  33.933  16.643  1.00  0.00     0.192 C
BRANCH  39  40
HETATM   40  C6  UNL     1      16.004  34.517  17.912  1.00  0.00     0.148 C
HETATM   41  O1  UNL     1      15.373  34.285  18.954  1.00  0.00    -0.296 OA
BRANCH  40  42
HETATM   42  C5  UNL     1      17.189  35.387  17.967  1.00  0.00     0.060 C
HETATM   43  C4  UNL     1      18.240  34.921  18.943  1.00  0.00     0.042 C
HETATM   44  C3  UNL     1      19.455  35.824  18.736  1.00  0.00     0.273 C
HETATM   45  N1  UNL     1      19.152  36.865  17.787  1.00  0.00     0.088 N
HETATM   46  C36 UNL     1      18.009  37.663  18.142  1.00  0.00     0.273 C
HETATM   47  C35 UNL     1      16.785  36.777  18.401  1.00  0.00     0.042 C
BRANCH  45  48
HETATM   48  C2  UNL     1      20.304  37.688  17.558  1.00  0.00     0.268 C
HETATM   49  C1  UNL     1      21.465  36.850  17.037  1.00  0.00     0.037 C
ENDBRANCH  45  48
ENDBRANCH  40  42
ENDBRANCH  39  40
ENDBRANCH  37  39
ENDBRANCH  36  37
ENDBRANCH  35  36
ENDBRANCH  34  35
ENDBRANCH  33  34
ENDBRANCH  32  33
ENDBRANCH   1  32
TORSDOF 15
ENDMDL