MODEL 3
REMARK VINA RESULT: -8.193005180      2.410      4.814
REMARK  18 active torsions:
REMARK  status: ('A' for Active; 'I' for Inactive)
REMARK    1  A    between atoms: C2_2  and  O1_3
REMARK    2  A    between atoms: O1_3  and  C3_4
REMARK    3  A    between atoms: C3_4  and  C4_6
REMARK    4  A    between atoms: C4_6  and  C5_7
REMARK    5  A    between atoms: C5_7  and  N1_8
REMARK    6  A    between atoms: C5_7  and  C30_44
REMARK       I    between atoms: N1_8  and  C6_10
REMARK    7  A    between atoms: C6_10  and  C7_12
REMARK    8  A    between atoms: C7_12  and  C8_13
REMARK    9  A    between atoms: C7_12  and  N5_37
REMARK   10  A    between atoms: C8_13  and  N2_14
REMARK   11  A    between atoms: N2_14  and  C9_16
REMARK   12  A    between atoms: C9_16  and  C11_18
REMARK   13  A    between atoms: C9_16  and  C18_27
REMARK   14  A    between atoms: C11_18  and  C12_19
REMARK   15  A    between atoms: C12_19  and  C13_20
REMARK   16  A    between atoms: C13_20  and  N3_21
REMARK   17  A    between atoms: C18_27  and  O4_28
REMARK   18  A    between atoms: C18_27  and  N4_30
ROOT
HETATM    1  C8  UNL     1      21.234  34.880  17.176  1.00  0.00     0.149 C
ENDROOT
BRANCH   1   2
HETATM    2  C7  UNL     1      20.474  36.192  17.270  1.00  0.00     0.190 C
BRANCH   2   3
HETATM    3  C6  UNL     1      19.182  35.975  17.861  1.00  0.00     0.245 C
HETATM    4  N1  UNL     1      17.976  36.638  17.699  1.00  0.00    -0.331 N
ATOM      5  H1  UNL     1      17.946  37.439  17.068  1.00  0.00     0.168 HD
HETATM    6  O3  UNL     1      19.153  34.984  18.684  1.00  0.00    -0.271 OA
BRANCH   4   7
HETATM    7  C5  UNL     1      16.769  36.260  18.370  1.00  0.00     0.006 C
BRANCH   7   8
HETATM    8  C4  UNL     1      16.104  37.318  19.166  1.00  0.00     0.164 C
BRANCH   8   9
HETATM    9  C3  UNL     1      16.481  38.699  18.917  1.00  0.00     0.264 C
HETATM   10  O2  UNL     1      17.245  39.323  19.660  1.00  0.00    -0.265 OA
BRANCH   9  11
HETATM   11  O1  UNL     1      15.972  39.370  17.795  1.00  0.00    -0.322 OA
BRANCH  11  12
HETATM   12  C2  UNL     1      16.890  39.873  16.869  1.00  0.00     0.174 C
HETATM   13  C1  UNL     1      16.680  41.364  16.721  1.00  0.00     0.034 C
ENDBRANCH  11  12
ENDBRANCH   9  11
ENDBRANCH   8   9
ENDBRANCH   7   8
BRANCH   7  14
HETATM   14  C30 UNL     1      15.858  35.362  17.578  1.00  0.00    -0.012 C
HETATM   15  C31 UNL     1      15.853  33.950  18.117  1.00  0.00     0.021 C
HETATM   16  C32 UNL     1      14.426  35.880  17.798  1.00  0.00     0.021 C
HETATM   17  C33 UNL     1      16.066  35.340  16.109  1.00  0.00     0.021 C
ENDBRANCH   7  14
ENDBRANCH   4   7
ENDBRANCH   2   3
BRANCH   2  18
HETATM   18  N5  UNL     1      21.333  37.181  17.699  1.00  0.00    -0.391 N
HETATM   19  C25 UNL     1      21.777  37.058  19.052  1.00  0.00     0.144 C
HETATM   20  C26 UNL     1      23.258  37.332  19.127  1.00  0.00     0.187 C
HETATM   21  O5  UNL     1      23.767  37.893  17.985  1.00  0.00    -0.388 OA
HETATM   22  C27 UNL     1      22.985  38.888  17.452  1.00  0.00     0.192 C
HETATM   23  C28 UNL     1      21.546  38.425  17.165  1.00  0.00     0.099 C
HETATM   24  C29 UNL     1      20.645  39.438  17.845  1.00  0.00     0.034 C
ENDBRANCH   2  18
ENDBRANCH   1   2
BRANCH   1  25
HETATM   25  N2  UNL     1      21.301  34.362  15.861  1.00  0.00    -0.404 N
ATOM     26  H2  UNL     1      21.056  34.932  15.052  1.00  0.00     0.154 HD
BRANCH  25  27
HETATM   27  C9  UNL     1      21.733  32.983  15.713  1.00  0.00     0.087 C
HETATM   28  C10 UNL     1      23.202  32.845  15.942  1.00  0.00     0.047 C
BRANCH  27  29
HETATM   29  C11 UNL     1      21.504  32.694  14.195  1.00  0.00     0.044 C
BRANCH  29  30
HETATM   30  C12 UNL     1      22.030  31.367  13.825  1.00  0.00     0.047 C
BRANCH  30  31
HETATM   31  C13 UNL     1      21.315  30.725  12.704  1.00  0.00     0.058 C
BRANCH  31  32
HETATM   32  N3  UNL     1      21.427  29.365  12.435  1.00  0.00    -0.392 N
HETATM   33  C14 UNL     1      22.144  28.482  13.255  1.00  0.00     0.132 C
HETATM   34  C15 UNL     1      23.088  27.602  12.431  1.00  0.00     0.093 C
HETATM   35  S1  UNL     1      22.148  27.127  10.954  1.00  0.00    -0.166 SA
HETATM   36  C16 UNL     1      20.400  27.408  11.357  1.00  0.00     0.093 C
HETATM   37  C17 UNL     1      20.272  28.851  11.780  1.00  0.00     0.132 C
ENDBRANCH  31  32
ENDBRANCH  30  31
ENDBRANCH  29  30
ENDBRANCH  27  29
BRANCH  27  38
HETATM   38  C18 UNL     1      20.908  32.042  16.473  1.00  0.00     0.141 C
BRANCH  38  39
HETATM   39  O4  UNL     1      21.516  31.398  17.444  1.00  0.00    -0.348 OA
ATOM     40  H4  UNL     1      21.050  31.356  18.271  1.00  0.00     0.219 HD
ENDBRANCH  38  39
BRANCH  38  41
HETATM   41  N4  UNL     1      19.562  31.702  16.348  1.00  0.00    -0.363 N
HETATM   42  C19 UNL     1      18.569  32.647  16.003  1.00  0.00     0.124 C
HETATM   43  C20 UNL     1      17.363  31.961  15.304  1.00  0.00     0.020 C
HETATM   44  C21 UNL     1      17.932  31.154  14.170  1.00  0.00     0.002 C
HETATM   45  C22 UNL     1      18.029  29.682  14.517  1.00  0.00     0.002 C
HETATM   46  C23 UNL     1      19.273  29.461  15.351  1.00  0.00     0.020 C
HETATM   47  C24 UNL     1      19.268  30.270  16.606  1.00  0.00     0.124 C
ENDBRANCH  38  41
ENDBRANCH  27  38
ENDBRANCH  25  27
ENDBRANCH   1  25
TORSDOF 18
ENDMDL