MODEL 2
REMARK VINA RESULT: -8.224673019      2.065      3.052
REMARK  17 active torsions:
REMARK  status: ('A' for Active; 'I' for Inactive)
REMARK    1  A    between atoms: C2_2  and  C3_3
REMARK    2  A    between atoms: C3_3  and  C4_4
REMARK    3  A    between atoms: C4_4  and  C5_5
REMARK    4  A    between atoms: C5_5  and  C6_6
REMARK    5  A    between atoms: C6_6  and  O1_7
REMARK    6  A    between atoms: O1_7  and  C7_8
REMARK       I    between atoms: C7_8  and  N1_10
REMARK       I    between atoms: N2_13  and  C10_14
REMARK    7  A    between atoms: C10_14  and  C11_16
REMARK    8  A    between atoms: C11_16  and  C12_17
REMARK    9  A    between atoms: C14_19  and  C15_20
REMARK   10  A    between atoms: C15_20  and  C16_21
REMARK   11  A    between atoms: C16_21  and  C17_22
REMARK   12  A    between atoms: C17_22  and  N3_23
REMARK   13  A    between atoms: N3_23  and  C18_25
REMARK   14  A    between atoms: C20_30  and  C21_31
REMARK   15  A    between atoms: C21_31  and  C22_32
REMARK       I    between atoms: C22_32  and  N5_34
REMARK       I    between atoms: N6_37  and  C25_38
REMARK   16  A    between atoms: C25_38  and  O6_40
REMARK   17  A    between atoms: O6_40  and  C26_41
ROOT
HETATM    1  C12 UNL     1      18.993  29.888  13.284  1.00  0.00     0.131 C
HETATM    2  C13 UNL     1      19.422  31.294  13.109  1.00  0.00     0.039 C
HETATM    3  C14 UNL     1      19.229  31.923  14.455  1.00  0.00     0.017 C
HETATM    4  C20 UNL     1      18.630  30.804  15.262  1.00  0.00     0.134 C
HETATM    5  O7  UNL     1      18.064  29.924  14.338  1.00  0.00    -0.379 OA
ENDROOT
BRANCH   1   6
HETATM    6  C11 UNL     1      18.472  29.277  12.033  1.00  0.00     0.135 C
BRANCH   6   7
HETATM    7  C10 UNL     1      18.732  27.868  11.788  1.00  0.00     0.222 C
HETATM    8  N2  UNL     1      20.030  27.488  11.374  1.00  0.00    -0.349 N
HETATM    9  C9  UNL     1      21.055  28.490  11.213  1.00  0.00     0.145 C
HETATM   10  C31 UNL     1      20.362  26.125  11.109  1.00  0.00     0.145 C
HETATM   11  C8  UNL     1      22.123  28.146  12.262  1.00  0.00     0.148 C
HETATM   12  N1  UNL     1      22.563  26.797  12.013  1.00  0.00    -0.325 N
HETATM   13  C7  UNL     1      23.966  26.502  11.863  1.00  0.00     0.362 C
HETATM   14  C32 UNL     1      21.584  25.735  11.916  1.00  0.00     0.148 C
HETATM   15  O2  UNL     1      24.780  27.453  11.963  1.00  0.00    -0.238 OA
HETATM   16  O3  UNL     1      17.890  26.966  11.918  1.00  0.00    -0.273 OA
BRANCH  13  17
HETATM   17  O1  UNL     1      24.343  25.201  11.620  1.00  0.00    -0.304 OA
BRANCH  17  18
HETATM   18  C6  UNL     1      24.267  24.617  10.339  1.00  0.00     0.180 C
BRANCH  18  19
HETATM   19  C5  UNL     1      24.621  25.594   9.256  1.00  0.00     0.027 C
BRANCH  19  20
HETATM   20  C4  UNL     1      23.996  25.232   7.934  1.00  0.00     0.002 C
BRANCH  20  21
HETATM   21  C3  UNL     1      23.390  23.859   8.025  1.00  0.00    -0.000 C
BRANCH  21  22
HETATM   22  C2  UNL     1      21.954  23.855   7.509  1.00  0.00    -0.005 C
HETATM   23  C1  UNL     1      21.370  25.242   7.514  1.00  0.00     0.005 C
ENDBRANCH  21  22
ENDBRANCH  20  21
ENDBRANCH  19  20
ENDBRANCH  18  19
ENDBRANCH  17  18
ENDBRANCH  13  17
ENDBRANCH   6   7
ENDBRANCH   1   6
BRANCH   3  24
HETATM   24  C15 UNL     1      20.378  32.578  15.093  1.00  0.00     0.009 C
BRANCH  24  25
HETATM   25  C16 UNL     1      21.551  31.865  15.567  1.00  0.00     0.020 C
BRANCH  25  26
HETATM   26  C17 UNL     1      22.535  32.546  16.460  1.00  0.00     0.121 C
BRANCH  26  27
HETATM   27  N3  UNL     1      21.801  32.893  17.703  1.00  0.00    -0.380 N
ATOM     28  H3  UNL     1      21.312  32.171  18.231  1.00  0.00     0.160 HD
BRANCH  27  29
HETATM   29  C18 UNL     1      21.786  34.233  18.145  1.00  0.00     0.066 C
HETATM   30  C19 UNL     1      22.113  35.302  17.170  1.00  0.00     0.088 C
HETATM   31  N4  UNL     1      21.500  34.510  19.348  1.00  0.00    -0.389 N
ATOM     32  H42 UNL     1      21.275  33.775  20.019  1.00  0.00     0.157 HD
ATOM     33  H41 UNL     1      21.489  35.479  19.668  1.00  0.00     0.157 HD
ENDBRANCH  27  29
ENDBRANCH  26  27
ENDBRANCH  25  26
ENDBRANCH  24  25
ENDBRANCH   3  24
BRANCH   4  34
HETATM   34  C21 UNL     1      17.729  31.141  16.362  1.00  0.00     0.135 C
BRANCH  34  35
HETATM   35  C22 UNL     1      16.732  32.192  16.168  1.00  0.00     0.222 C
HETATM   36  O4  UNL     1      15.729  32.003  15.437  1.00  0.00    -0.273 OA
HETATM   37  N5  UNL     1      16.842  33.480  16.796  1.00  0.00    -0.349 N
HETATM   38  C23 UNL     1      15.819  34.454  16.548  1.00  0.00     0.145 C
HETATM   39  C30 UNL     1      17.948  33.813  17.667  1.00  0.00     0.145 C
HETATM   40  C24 UNL     1      15.895  35.633  17.451  1.00  0.00     0.148 C
HETATM   41  N6  UNL     1      17.242  36.152  17.433  1.00  0.00    -0.325 N
HETATM   42  C25 UNL     1      17.478  37.543  17.298  1.00  0.00     0.363 C
HETATM   43  C29 UNL     1      18.347  35.262  17.552  1.00  0.00     0.148 C
HETATM   44  O5  UNL     1      18.651  38.008  17.281  1.00  0.00    -0.238 OA
BRANCH  42  45
HETATM   45  O6  UNL     1      16.457  38.482  17.178  1.00  0.00    -0.299 OA
BRANCH  45  46
HETATM   46  C26 UNL     1      16.278  39.504  18.168  1.00  0.00     0.125 C
HETATM   47  C27 UNL     1      15.084  39.082  19.001  1.00  0.00     0.040 C
HETATM   48  C28 UNL     1      15.868  40.758  17.395  1.00  0.00     0.040 C
ENDBRANCH  45  46
ENDBRANCH  42  45
ENDBRANCH  34  35
ENDBRANCH   4  34
TORSDOF 17
ENDMDL