MODEL 3
REMARK VINA RESULT: -9.160316378      3.283     11.043
REMARK  15 active torsions:
REMARK  status: ('A' for Active; 'I' for Inactive)
REMARK    1  A    between atoms: O1_2  and  C2_3
REMARK    2  A    between atoms: C2_3  and  C3_4
REMARK    3  A    between atoms: C3_4  and  C4_5
REMARK    4  A    between atoms: C4_5  and  N1_6
REMARK       I    between atoms: N1_6  and  C5_8
REMARK    5  A    between atoms: C5_8  and  C6_10
REMARK    6  A    between atoms: N2_11  and  C7_12
REMARK    7  A    between atoms: C7_12  and  O3_13
REMARK    8  A    between atoms: C8_15  and  C9_16
REMARK    9  A    between atoms: C8_15  and  C16_23
REMARK   10  A    between atoms: C9_16  and  C10_17
REMARK   11  A    between atoms: C16_23  and  C17_24
REMARK   12  A    between atoms: C17_24  and  C18_25
REMARK   13  A    between atoms: C18_25  and  C19_26
REMARK       I    between atoms: N4_29  and  C20_31
REMARK   14  A    between atoms: C20_31  and  C21_33
REMARK   15  A    between atoms: C21_33  and  C22_34
ROOT
HETATM    1  C7  UNL     1      19.389  30.307  15.840  1.00  0.00     0.147 C
HETATM    2  C8  UNL     1      19.118  31.533  16.521  1.00  0.00     0.016 C
ENDROOT
BRANCH   2   3
HETATM    3  C9  UNL     1      17.690  31.942  16.513  1.00  0.00     0.049 C
BRANCH   3   4
HETATM    4  C10 UNL     1      17.519  33.454  16.487  1.00  0.00    -0.010 C
HETATM    5  C11 UNL     1      17.064  33.832  17.889  1.00  0.00     0.005 C
HETATM    6  C12 UNL     1      15.563  33.885  18.020  1.00  0.00     0.000 C
HETATM    7  C13 UNL     1      15.051  35.061  17.182  1.00  0.00     0.000 C
HETATM    8  C14 UNL     1      16.005  35.307  16.024  1.00  0.00     0.000 C
HETATM    9  C15 UNL     1      16.430  33.907  15.546  1.00  0.00     0.005 C
ENDBRANCH   3   4
ENDBRANCH   2   3
BRANCH   2  10
HETATM   10  C16 UNL     1      20.095  32.654  16.272  1.00  0.00     0.023 C
HETATM   11  N4  UNL     1      20.624  33.156  17.270  1.00  0.00    -0.330 N
HETATM   12  C20 UNL     1      21.468  34.054  17.791  1.00  0.00     0.222 C
ATOM     13  H4  UNL     1      20.239  32.649  18.066  1.00  0.00     0.168 HD
HETATM   14  O5  UNL     1      21.637  34.095  19.066  1.00  0.00    -0.273 OA
BRANCH  10  15
HETATM   15  C17 UNL     1      20.357  33.143  14.910  1.00  0.00     0.066 C
BRANCH  15  16
HETATM   16  C18 UNL     1      21.813  33.043  14.495  1.00  0.00     0.105 C
BRANCH  16  17
HETATM   17  C19 UNL     1      22.051  31.669  13.898  1.00  0.00     0.231 C
HETATM   18  N3  UNL     1      22.651  30.696  14.708  1.00  0.00    -0.062 NA
HETATM   19  O4  UNL     1      21.708  31.446  12.716  1.00  0.00    -0.277 OA
ENDBRANCH  16  17
ENDBRANCH  15  16
ENDBRANCH  10  15
BRANCH  12  20
HETATM   20  C21 UNL     1      22.250  35.045  17.043  1.00  0.00     0.108 C
BRANCH  20  21
HETATM   21  C22 UNL     1      21.639  36.437  17.022  1.00  0.00    -0.001 C
HETATM   22  C23 UNL     1      20.218  36.497  17.434  1.00  0.00     0.038 C
HETATM   23  C24 UNL     1      19.889  37.644  18.353  1.00  0.00     0.132 C
HETATM   24  O6  UNL     1      20.657  37.462  19.514  1.00  0.00    -0.379 OA
HETATM   25  C27 UNL     1      20.625  38.904  18.081  1.00  0.00     0.005 C
HETATM   26  C25 UNL     1      21.673  38.163  18.836  1.00  0.00     0.132 C
HETATM   27  C26 UNL     1      22.512  37.262  17.983  1.00  0.00     0.038 C
HETATM   28  C28 UNL     1      20.097  40.075  18.871  1.00  0.00     0.020 C
HETATM   29  C29 UNL     1      20.912  39.266  16.659  1.00  0.00     0.020 C
ENDBRANCH  20  21
ENDBRANCH  12  20
ENDBRANCH   2  10
BRANCH   1  30
HETATM   30  N2  UNL     1      19.078  29.792  14.561  1.00  0.00    -0.338 N
HETATM   31  C6  UNL     1      19.374  28.455  14.125  1.00  0.00     0.197 C
HETATM   32  C31 UNL     1      18.126  27.910  13.391  1.00  0.00     0.032 C
HETATM   33  S1  UNL     1      17.695  29.400  12.433  1.00  0.00    -0.137 SA
HETATM   34  C32 UNL     1      18.492  26.765  12.487  1.00  0.00     0.029 C
HETATM   35  C33 UNL     1      17.054  27.472  14.317  1.00  0.00     0.029 C
HETATM   36  C30 UNL     1      18.437  30.609  13.551  1.00  0.00     0.200 C
BRANCH  31  37
HETATM   37  C5  UNL     1      20.478  28.459  13.115  1.00  0.00     0.242 C
HETATM   38  N1  UNL     1      21.808  28.065  13.376  1.00  0.00    -0.359 N
ATOM     39  H1  UNL     1      22.060  27.763  14.317  1.00  0.00     0.162 HD
HETATM   40  O2  UNL     1      20.192  28.845  11.950  1.00  0.00    -0.271 OA
BRANCH  38  41
HETATM   41  C4  UNL     1      22.810  28.079  12.359  1.00  0.00     0.125 C
BRANCH  41  42
HETATM   42  C3  UNL     1      23.001  26.775  11.652  1.00  0.00     0.046 C
BRANCH  42  43
HETATM   43  C2  UNL     1      24.463  26.364  11.879  1.00  0.00     0.168 C
BRANCH  43  44
HETATM   44  O1  UNL     1      24.607  25.033  11.497  1.00  0.00    -0.396 OA
HETATM   45  C1  UNL     1      24.094  24.805  10.223  1.00  0.00     0.201 C
ENDBRANCH  43  44
ENDBRANCH  42  43
ENDBRANCH  41  42
ENDBRANCH  38  41
ENDBRANCH  31  37
ENDBRANCH   1  30
BRANCH   1  46
HETATM   46  O3  UNL     1      20.097  29.452  16.565  1.00  0.00    -0.346 OA
ATOM     47  H3  UNL     1      20.725  29.892  17.126  1.00  0.00     0.219 HD
ENDBRANCH   1  46
TORSDOF 15
ENDMDL