MODEL 4
REMARK VINA RESULT: -7.894434521      2.331      5.230
REMARK  16 active torsions:
REMARK  status: ('A' for Active; 'I' for Inactive)
REMARK    1  A    between atoms: C2_2  and  C3_3
REMARK    2  A    between atoms: C3_3  and  N1_4
REMARK       I    between atoms: N1_4  and  C4_6
REMARK    3  A    between atoms: C4_6  and  C5_8
REMARK    4  A    between atoms: C5_8  and  C6_9
REMARK    5  A    between atoms: C7_10  and  C8_11
REMARK    6  A    between atoms: C10_13  and  O2_14
REMARK    7  A    between atoms: N2_19  and  C14_20
REMARK    8  A    between atoms: C14_20  and  C15_21
REMARK    9  A    between atoms: C24_31  and  O5_32
REMARK   10  A    between atoms: C26_35  and  O6_36
REMARK   11  A    between atoms: O6_36  and  C27_37
REMARK   12  A    between atoms: C27_37  and  C28_38
REMARK   13  A    between atoms: C28_38  and  C29_39
REMARK   14  A    between atoms: C29_39  and  N3_40
REMARK   15  A    between atoms: N3_40  and  C31_42
REMARK   16  A    between atoms: C31_42  and  C33_44
ROOT
HETATM    1  C8  UNL     1      20.773  29.968  13.031  1.00  0.00     0.046 C
HETATM    2  C9  UNL     1      20.741  31.487  13.132  1.00  0.00     0.060 C
HETATM    3  C10 UNL     1      21.087  32.150  14.383  1.00  0.00     0.149 C
HETATM    4  C12 UNL     1      19.894  32.980  14.798  1.00  0.00     0.198 C
HETATM    5  O3  UNL     1      19.984  34.133  15.115  1.00  0.00    -0.292 OA
HETATM    6  C13 UNL     1      18.600  32.230  14.779  1.00  0.00     0.311 C
HETATM    7  N2  UNL     1      17.738  32.947  15.695  1.00  0.00     0.102 N
HETATM    8  C18 UNL     1      17.811  32.254  16.945  1.00  0.00     0.275 C
HETATM    9  C19 UNL     1      17.941  30.823  16.528  1.00  0.00     0.051 C
HETATM   10  C20 UNL     1      18.714  30.829  15.198  1.00  0.00     0.069 C
HETATM   11  C21 UNL     1      17.935  29.950  14.277  1.00  0.00     0.139 C
HETATM   12  O4  UNL     1      17.203  30.323  13.396  1.00  0.00    -0.297 OA
HETATM   13  C22 UNL     1      18.104  28.494  14.502  1.00  0.00     0.082 C
HETATM   14  C23 UNL     1      19.524  28.147  14.229  1.00  0.00     0.046 C
HETATM   15  C24 UNL     1      20.503  29.293  14.315  1.00  0.00     0.072 C
HETATM   16  C25 UNL     1      20.048  30.267  15.436  1.00  0.00     0.071 C
HETATM   17  C26 UNL     1      21.200  31.185  15.578  1.00  0.00     0.171 C
ENDROOT
BRANCH  17  18
HETATM   18  O6  UNL     1      21.272  31.899  16.741  1.00  0.00    -0.382 OA
BRANCH  18  19
HETATM   19  C27 UNL     1      22.563  32.218  17.155  1.00  0.00     0.170 C
BRANCH  19  20
HETATM   20  C28 UNL     1      22.593  33.738  17.373  1.00  0.00     0.046 C
BRANCH  20  21
HETATM   21  C29 UNL     1      21.782  34.056  18.618  1.00  0.00     0.119 C
BRANCH  21  22
HETATM   22  N3  UNL     1      21.024  35.252  18.507  1.00  0.00    -0.412 N
HETATM   23  C30 UNL     1      19.625  35.103  18.495  1.00  0.00     0.143 C
BRANCH  22  24
HETATM   24  C31 UNL     1      21.621  36.377  19.089  1.00  0.00     0.082 C
HETATM   25  C32 UNL     1      22.797  36.081  19.999  1.00  0.00     0.033 C
BRANCH  24  26
HETATM   26  C33 UNL     1      22.041  37.483  18.129  1.00  0.00    -0.032 C
HETATM   27  C34 UNL     1      23.521  37.708  18.094  1.00  0.00     0.016 C
HETATM   28  C35 UNL     1      21.428  38.773  18.707  1.00  0.00     0.016 C
HETATM   29  C36 UNL     1      21.426  37.328  16.763  1.00  0.00     0.016 C
ENDBRANCH  24  26
ENDBRANCH  22  24
ENDBRANCH  21  22
ENDBRANCH  20  21
ENDBRANCH  19  20
ENDBRANCH  18  19
ENDBRANCH  17  18
BRANCH   3  30
HETATM   30  O2  UNL     1      22.245  32.890  14.373  1.00  0.00    -0.374 OA
HETATM   31  C11 UNL     1      23.424  32.268  14.146  1.00  0.00     0.203 C
ENDBRANCH   3  30
BRANCH  15  32
HETATM   32  O5  UNL     1      21.686  28.799  14.848  1.00  0.00    -0.389 OA
ATOM     33  H5  UNL     1      21.638  27.853  14.918  1.00  0.00     0.210 HD
ENDBRANCH  15  32
BRANCH   1  34
HETATM   34  C7  UNL     1      21.929  29.567  12.190  1.00  0.00    -0.022 C
HETATM   35  C6  UNL     1      22.150  28.300  11.553  1.00  0.00    -0.021 C
BRANCH  35  36
HETATM   36  C5  UNL     1      22.306  26.994  12.181  1.00  0.00     0.129 C
BRANCH  36  37
HETATM   37  C4  UNL     1      21.200  26.085  11.632  1.00  0.00     0.221 C
HETATM   38  N1  UNL     1      20.074  26.625  10.996  1.00  0.00    -0.361 N
ATOM     39  H1  UNL     1      20.010  27.639  10.905  1.00  0.00     0.162 HD
HETATM   40  O1  UNL     1      21.335  24.858  11.769  1.00  0.00    -0.273 OA
BRANCH  38  41
HETATM   41  C3  UNL     1      19.016  25.830  10.472  1.00  0.00     0.122 C
BRANCH  41  42
HETATM   42  C2  UNL     1      17.705  26.578  10.310  1.00  0.00     0.015 C
HETATM   43  C1  UNL     1      17.964  28.018  10.731  1.00  0.00     0.006 C
ENDBRANCH  41  42
ENDBRANCH  38  41
ENDBRANCH  36  37
ENDBRANCH  35  36
ENDBRANCH   1  34
BRANCH   7  44
HETATM   44  C14 UNL     1      16.356  33.006  15.298  1.00  0.00     0.278 C
BRANCH  44  45
HETATM   45  C15 UNL     1      15.763  34.369  15.403  1.00  0.00     0.014 A
HETATM   46  C16 UNL     1      16.522  35.443  16.151  1.00  0.00     0.007 A
HETATM   47  C17 UNL     1      15.348  34.800  16.793  1.00  0.00     0.007 A
ENDBRANCH  44  45
ENDBRANCH   7  44
TORSDOF 16
ENDMDL