MODEL 3
REMARK VINA RESULT: -8.848576385      2.517      8.884
REMARK  19 active torsions:
REMARK  status: ('A' for Active; 'I' for Inactive)
REMARK    1  A    between atoms: C1_2  and  C2_3
REMARK       I    between atoms: C1_2  and  N3_43
REMARK    2  A    between atoms: C2_3  and  C3_4
REMARK    3  A    between atoms: C3_4  and  C4_5
REMARK    4  A    between atoms: C4_5  and  C5_6
REMARK    5  A    between atoms: C5_6  and  C6_7
REMARK    6  A    between atoms: C6_7  and  C7_8
REMARK    7  A    between atoms: C7_8  and  C8_9
REMARK    8  A    between atoms: C8_9  and  C9_10
REMARK    9  A    between atoms: C9_10  and  C10_11
REMARK   10  A    between atoms: C10_11  and  C11_12
REMARK   11  A    between atoms: C11_12  and  O2_13
REMARK   12  A    between atoms: N1_16  and  C13_17
REMARK   13  A    between atoms: C13_17  and  O3_18
REMARK   14  A    between atoms: C13_17  and  C14_20
REMARK   15  A    between atoms: C24_32  and  C25_33
REMARK   16  A    between atoms: C25_33  and  O6_34
REMARK   17  A    between atoms: C25_33  and  N2_36
REMARK   18  A    between atoms: N3_43  and  C31_45
REMARK   19  A    between atoms: C31_45  and  C32_46
ROOT
HETATM    1  C11 UNL     1      19.159  29.636  13.182  1.00  0.00     0.089 C
HETATM    2  C12 UNL     1      18.672  28.192  13.384  1.00  0.00     0.164 C
HETATM    3  N1  UNL     1      19.467  27.334  12.433  1.00  0.00    -0.354 N
HETATM    4  C21 UNL     1      20.868  27.642  12.503  1.00  0.00     0.087 C
HETATM    5  C22 UNL     1      21.354  28.705  11.581  1.00  0.00     0.027 C
HETATM    6  C23 UNL     1      21.399  30.024  12.382  1.00  0.00     0.023 C
HETATM    7  C24 UNL     1      20.598  29.728  13.587  1.00  0.00     0.059 C
HETATM    8  C30 UNL     1      21.116  28.285  13.876  1.00  0.00     0.046 C
ENDROOT
BRANCH   1   9
HETATM    9  C10 UNL     1      18.186  30.568  13.769  1.00  0.00     0.041 C
BRANCH   9  10
HETATM   10  C9  UNL     1      17.511  30.201  15.043  1.00  0.00     0.003 C
BRANCH  10  11
HETATM   11  C8  UNL     1      17.029  31.320  15.904  1.00  0.00     0.000 C
BRANCH  11  12
HETATM   12  C7  UNL     1      16.879  32.588  15.035  1.00  0.00     0.000 C
BRANCH  12  13
HETATM   13  C6  UNL     1      16.076  33.605  15.772  1.00  0.00     0.000 C
BRANCH  13  14
HETATM   14  C5  UNL     1      15.354  33.106  16.978  1.00  0.00     0.000 C
BRANCH  14  15
HETATM   15  C4  UNL     1      15.396  34.041  18.157  1.00  0.00     0.000 C
BRANCH  15  16
HETATM   16  C3  UNL     1      14.675  35.320  17.926  1.00  0.00     0.009 C
BRANCH  16  17
HETATM   17  C2  UNL     1      15.324  36.557  18.426  1.00  0.00     0.103 C
BRANCH  17  18
HETATM   18  C1  UNL     1      16.704  36.763  17.950  1.00  0.00     0.217 C
HETATM   19  O1  UNL     1      16.917  36.961  16.737  1.00  0.00    -0.274 OA
HETATM   20  N3  UNL     1      17.789  36.739  18.850  1.00  0.00    -0.359 N
ATOM     21  H3  UNL     1      17.626  36.578  19.844  1.00  0.00     0.162 HD
BRANCH  20  22
HETATM   22  C31 UNL     1      19.123  36.942  18.363  1.00  0.00     0.154 C
BRANCH  22  23
HETATM   23  C32 UNL     1      20.202  36.710  19.379  1.00  0.00     0.139 C
HETATM   24  C33 UNL     1      21.570  36.747  18.759  1.00  0.00     0.035 C
HETATM   25  C34 UNL     1      22.375  35.873  19.727  1.00  0.00     0.029 C
HETATM   26  C35 UNL     1      21.311  35.039  20.373  1.00  0.00     0.168 C
HETATM   27  O8  UNL     1      20.097  35.408  19.837  1.00  0.00    -0.384 OA
ENDBRANCH  22  23
ENDBRANCH  20  22
ENDBRANCH  17  18
ENDBRANCH  16  17
ENDBRANCH  15  16
ENDBRANCH  14  15
ENDBRANCH  13  14
ENDBRANCH  12  13
ENDBRANCH  11  12
ENDBRANCH  10  11
ENDBRANCH   9  10
ENDBRANCH   1   9
BRANCH   1  28
HETATM   28  O2  UNL     1      19.032  29.794  11.768  1.00  0.00    -0.387 OA
ATOM     29  H2  UNL     1      19.901  29.637  11.417  1.00  0.00     0.210 HD
ENDBRANCH   1  28
BRANCH   7  30
HETATM   30  C25 UNL     1      20.875  30.432  14.834  1.00  0.00     0.125 C
BRANCH  30  31
HETATM   31  O6  UNL     1      20.741  29.665  15.889  1.00  0.00    -0.349 OA
ATOM     32  H6  UNL     1      20.647  28.747  15.666  1.00  0.00     0.219 HD
ENDBRANCH  30  31
BRANCH  30  33
HETATM   33  N2  UNL     1      21.250  31.718  15.148  1.00  0.00    -0.361 N
HETATM   34  C26 UNL     1      22.643  31.971  15.564  1.00  0.00     0.151 C
HETATM   35  C27 UNL     1      22.576  32.748  16.843  1.00  0.00     0.187 C
HETATM   36  O7  UNL     1      21.919  33.948  16.722  1.00  0.00    -0.388 OA
HETATM   37  C28 UNL     1      21.262  34.117  15.531  1.00  0.00     0.187 C
HETATM   38  C29 UNL     1      20.443  32.890  15.122  1.00  0.00     0.151 C
ENDBRANCH  30  33
ENDBRANCH   7  30
BRANCH   3  39
HETATM   39  C13 UNL     1      18.785  26.402  11.673  1.00  0.00     0.149 C
BRANCH  39  40
HETATM   40  O3  UNL     1      18.331  25.392  12.378  1.00  0.00    -0.346 OA
ATOM     41  H3  UNL     1      18.975  24.706  12.507  1.00  0.00     0.219 HD
ENDBRANCH  39  40
BRANCH  39  42
HETATM   42  C14 UNL     1      18.477  26.315  10.275  1.00  0.00     0.017 A
HETATM   43  C15 UNL     1      17.553  25.331   9.836  1.00  0.00     0.018 A
HETATM   44  C16 UNL     1      17.189  25.179   8.534  1.00  0.00     0.041 A
HETATM   45  C17 UNL     1      17.726  26.004   7.574  1.00  0.00     0.105 A
HETATM   46  C18 UNL     1      18.618  26.967   7.946  1.00  0.00     0.105 A
HETATM   47  O5  UNL     1      17.535  26.067   6.206  1.00  0.00    -0.323 OA
HETATM   48  C19 UNL     1      18.971  27.101   9.271  1.00  0.00     0.055 A
HETATM   49  O4  UNL     1      19.014  27.671   6.791  1.00  0.00    -0.323 OA
HETATM   50  C20 UNL     1      18.489  26.953   5.676  1.00  0.00     0.352 C
ENDBRANCH  39  42
ENDBRANCH   3  39
TORSDOF 19
ENDMDL