MODEL 5
REMARK VINA RESULT: -8.251922296      1.912      3.444
REMARK  14 active torsions:
REMARK  status: ('A' for Active; 'I' for Inactive)
REMARK    1  A    between atoms: C2_2  and  C3_3
REMARK    2  A    between atoms: C3_3  and  C4_4
REMARK    3  A    between atoms: C4_4  and  C5_5
REMARK    4  A    between atoms: N2_13  and  C10_14
REMARK    5  A    between atoms: C10_14  and  C11_15
REMARK       I    between atoms: C11_15  and  N3_17
REMARK    6  A    between atoms: N3_17  and  C12_19
REMARK    7  A    between atoms: C12_19  and  C13_20
REMARK    8  A    between atoms: C13_20  and  C14_21
REMARK    9  A    between atoms: C14_21  and  N4_22
REMARK   10  A    between atoms: N5_25  and  C17_26
REMARK   11  A    between atoms: C17_26  and  C18_27
REMARK   12  A    between atoms: C17_26  and  C20_29
REMARK   13  A    between atoms: C25_35  and  C26_36
REMARK   14  A    between atoms: N7_41  and  C29_42
ROOT
HETATM    1  C5  UNL     1      22.274  32.509  13.983  1.00  0.00     0.041 A
HETATM    2  C6  UNL     1      21.140  33.289  14.405  1.00  0.00     0.052 A
HETATM    3  C7  UNL     1      20.312  32.148  13.955  1.00  0.00    -0.018 A
HETATM    4  C8  UNL     1      21.357  31.489  13.580  1.00  0.00     0.025 A
HETATM    5  N1  UNL     1      21.396  30.191  12.940  1.00  0.00    -0.311 N
ATOM      6  H1  UNL     1      22.195  30.032  12.326  1.00  0.00     0.170 HD
HETATM    7  C9  UNL     1      20.485  29.112  13.043  1.00  0.00     0.330 C
HETATM    8  O1  UNL     1      20.914  27.960  12.738  1.00  0.00    -0.246 OA
HETATM    9  N2  UNL     1      19.123  29.215  13.461  1.00  0.00    -0.257 N
HETATM   10  C24 UNL     1      18.446  30.470  13.663  1.00  0.00     0.263 C
HETATM   11  O3  UNL     1      17.173  30.340  13.563  1.00  0.00    -0.267 OA
HETATM   12  C25 UNL     1      18.864  31.801  13.938  1.00  0.00     0.055 C
ENDROOT
BRANCH   9  13
HETATM   13  C10 UNL     1      18.433  27.988  13.683  1.00  0.00     0.239 C
BRANCH  13  14
HETATM   14  C11 UNL     1      18.272  27.287  12.371  1.00  0.00     0.236 C
HETATM   15  O2  UNL     1      17.562  27.793  11.460  1.00  0.00    -0.272 OA
HETATM   16  N3  UNL     1      18.914  26.053  12.138  1.00  0.00    -0.360 N
ATOM     17  H3  UNL     1      19.492  25.646  12.874  1.00  0.00     0.162 HD
BRANCH  16  18
HETATM   18  C12 UNL     1      18.774  25.362  10.902  1.00  0.00     0.124 C
BRANCH  18  19
HETATM   19  C13 UNL     1      20.049  25.277  10.105  1.00  0.00     0.050 C
BRANCH  19  20
HETATM   20  C14 UNL     1      20.180  26.646   9.410  1.00  0.00     0.274 C
BRANCH  20  21
HETATM   21  N4  UNL     1      19.522  26.661   8.142  1.00  0.00     0.091 N
HETATM   22  C15 UNL     1      18.136  27.031   8.172  1.00  0.00     0.302 C
HETATM   23  C16 UNL     1      17.584  26.746   6.774  1.00  0.00     0.303 C
HETATM   24  N5  UNL     1      18.649  26.968   5.837  1.00  0.00     0.096 N
HETATM   25  C22 UNL     1      19.609  25.891   5.893  1.00  0.00     0.303 C
HETATM   26  C23 UNL     1      19.746  25.488   7.357  1.00  0.00     0.302 C
BRANCH  24  27
HETATM   27  C17 UNL     1      18.146  27.185   4.523  1.00  0.00     0.222 C
BRANCH  27  28
HETATM   28  C18 UNL     1      16.848  27.938   4.447  1.00  0.00     0.031 C
HETATM   29  C19 UNL     1      17.187  29.402   4.138  1.00  0.00     0.007 C
ENDBRANCH  27  28
BRANCH  27  30
HETATM   30  C20 UNL     1      18.002  25.853   3.792  1.00  0.00     0.031 C
HETATM   31  C21 UNL     1      17.219  26.101   2.500  1.00  0.00     0.007 C
ENDBRANCH  27  30
ENDBRANCH  24  27
ENDBRANCH  20  21
ENDBRANCH  19  20
ENDBRANCH  18  19
ENDBRANCH  16  18
ENDBRANCH  13  14
ENDBRANCH   9  13
BRANCH  12  32
HETATM   32  C26 UNL     1      18.145  32.449  15.066  1.00  0.00     0.028 A
HETATM   33  C27 UNL     1      18.007  32.026  16.371  1.00  0.00     0.035 A
HETATM   34  C28 UNL     1      18.667  30.851  17.009  1.00  0.00     0.070 C
HETATM   35  N6  UNL     1      17.175  32.889  17.024  1.00  0.00    -0.302 N
HETATM   36  N7  UNL     1      16.777  33.834  16.220  1.00  0.00    -0.291 N
ATOM     37  H6  UNL     1      16.903  32.806  18.003  1.00  0.00     0.187 HD
HETATM   38  C34 UNL     1      17.349  33.601  15.008  1.00  0.00     0.038 A
HETATM   39  C35 UNL     1      17.084  34.451  13.834  1.00  0.00     0.071 C
BRANCH  36  40
HETATM   40  C29 UNL     1      15.883  34.934  16.567  1.00  0.00     0.112 C
HETATM   41  C30 UNL     1      15.201  34.649  17.887  1.00  0.00     0.053 C
HETATM   42  C31 UNL     1      14.890  35.921  18.641  1.00  0.00     0.169 C
HETATM   43  O4  UNL     1      15.997  36.690  18.897  1.00  0.00    -0.391 OA
HETATM   44  C32 UNL     1      17.116  36.232  18.212  1.00  0.00     0.169 C
HETATM   45  C33 UNL     1      16.760  36.173  16.743  1.00  0.00     0.053 C
ENDBRANCH  36  40
ENDBRANCH  12  32
BRANCH   1  46
HETATM   46  C4  UNL     1      23.434  32.323  14.862  1.00  0.00     0.011 C
BRANCH  46  47
HETATM   47  C3  UNL     1      23.568  32.973  16.150  1.00  0.00     0.000 C
BRANCH  47  48
HETATM   48  C2  UNL     1      22.615  32.596  17.244  1.00  0.00    -0.005 C
HETATM   49  C1  UNL     1      21.984  33.811  17.894  1.00  0.00     0.005 C
ENDBRANCH  47  48
ENDBRANCH  46  47
ENDBRANCH   1  46
TORSDOF 14
ENDMDL