MODEL 5
REMARK VINA RESULT: -7.993939493      2.217      4.576
REMARK  17 active torsions:
REMARK  status: ('A' for Active; 'I' for Inactive)
REMARK    1  A    between atoms: C3_3  and  C4_4
REMARK    2  A    between atoms: C5_5  and  N1_6
REMARK    3  A    between atoms: C5_5  and  C17_19
REMARK    4  A    between atoms: N1_6  and  C6_8
REMARK    5  A    between atoms: C6_8  and  C7_9
REMARK    6  A    between atoms: C17_19  and  N2_20
REMARK    7  A    between atoms: C17_19  and  O4_41
REMARK    8  A    between atoms: N2_20  and  C18_23
REMARK    9  A    between atoms: C18_23  and  C20_26
REMARK       I    between atoms: C20_26  and  N4_28
REMARK       I    between atoms: N5_31  and  C23_32
REMARK   10  A    between atoms: C23_32  and  O3_34
REMARK   11  A    between atoms: O3_34  and  C24_35
REMARK   12  A    between atoms: C24_35  and  C25_36
REMARK   13  A    between atoms: C25_36  and  C26_37
REMARK   14  A    between atoms: O4_41  and  C30_42
REMARK   15  A    between atoms: C30_42  and  C31_43
REMARK   16  A    between atoms: C31_43  and  O5_44
REMARK   17  A    between atoms: O5_44  and  C32_45
ROOT
HETATM    1  C1  UNL     1      22.761  32.492  15.533  1.00  0.00     0.112 C
HETATM    2  C2  UNL     1      22.474  31.298  14.727  1.00  0.00    -0.106 C
HETATM    3  C3  UNL     1      22.219  30.327  14.058  1.00  0.00    -0.077 C
ENDROOT
BRANCH   3   4
HETATM    4  C4  UNL     1      21.890  29.186  13.256  1.00  0.00     0.093 C
HETATM    5  C5  UNL     1      20.680  29.002  12.760  1.00  0.00     0.070 C
BRANCH   5   6
HETATM    6  N1  UNL     1      19.689  29.979  13.042  1.00  0.00    -0.388 N
ATOM      7  H1  UNL     1      19.707  30.859  12.529  1.00  0.00     0.159 HD
BRANCH   6   8
HETATM    8  C6  UNL     1      18.661  29.770  14.028  1.00  0.00     0.129 C
BRANCH   8   9
HETATM    9  C7  UNL     1      18.392  31.064  14.736  1.00  0.00    -0.023 C
HETATM   10  C8  UNL     1      19.002  32.164  13.892  1.00  0.00     0.015 C
HETATM   11  C9  UNL     1      18.638  33.513  14.457  1.00  0.00    -0.013 C
HETATM   12  C10 UNL     1      17.148  33.621  14.552  1.00  0.00     0.009 C
HETATM   13  C14 UNL     1      19.321  33.603  15.818  1.00  0.00     0.009 C
HETATM   14  C11 UNL     1      16.626  32.603  15.532  1.00  0.00    -0.013 C
HETATM   15  C12 UNL     1      17.308  32.707  16.866  1.00  0.00     0.009 C
HETATM   16  C16 UNL     1      16.928  31.223  14.964  1.00  0.00     0.015 C
HETATM   17  C13 UNL     1      18.782  32.489  16.665  1.00  0.00    -0.013 C
HETATM   18  C15 UNL     1      19.084  31.127  16.086  1.00  0.00     0.015 C
ENDBRANCH   8   9
ENDBRANCH   6   8
ENDBRANCH   5   6
BRANCH   5  19
HETATM   19  C17 UNL     1      20.355  27.793  11.902  1.00  0.00     0.374 C
BRANCH  19  20
HETATM   20  N2  UNL     1      21.587  27.361  11.221  1.00  0.00    -0.018 N
ATOM     21  H22 UNL     1      21.485  27.362  10.206  1.00  0.00     0.282 HD
ATOM     22  H21 UNL     1      22.329  28.055  11.295  1.00  0.00     0.282 HD
BRANCH  20  23
HETATM   23  C18 UNL     1      21.998  26.064  11.727  1.00  0.00     0.385 C
HETATM   24  C19 UNL     1      20.877  25.107  11.591  1.00  0.00     0.102 C
HETATM   25  N3  UNL     1      20.007  24.379  11.471  1.00  0.00    -0.195 NA
BRANCH  23  26
HETATM   26  C20 UNL     1      23.156  25.509  11.010  1.00  0.00     0.265 C
HETATM   27  O1  UNL     1      24.182  25.147  11.658  1.00  0.00    -0.270 OA
HETATM   28  N4  UNL     1      23.174  25.359   9.610  1.00  0.00    -0.346 N
HETATM   29  C21 UNL     1      24.344  24.868   8.894  1.00  0.00     0.146 C
HETATM   30  C29 UNL     1      22.015  25.656   8.816  1.00  0.00     0.146 C
HETATM   31  C22 UNL     1      23.959  24.406   7.489  1.00  0.00     0.148 C
HETATM   32  N5  UNL     1      22.703  23.722   7.520  1.00  0.00    -0.325 N
HETATM   33  C23 UNL     1      22.528  22.396   6.992  1.00  0.00     0.362 C
HETATM   34  C28 UNL     1      21.567  24.381   8.097  1.00  0.00     0.148 C
HETATM   35  O2  UNL     1      23.510  21.793   6.459  1.00  0.00    -0.238 OA
BRANCH  33  36
HETATM   36  O3  UNL     1      21.320  21.737   7.045  1.00  0.00    -0.304 OA
BRANCH  36  37
HETATM   37  C24 UNL     1      20.471  21.457   5.974  1.00  0.00     0.180 C
BRANCH  37  38
HETATM   38  C25 UNL     1      19.580  22.601   5.633  1.00  0.00     0.026 C
BRANCH  38  39
HETATM   39  C26 UNL     1      19.995  23.263   4.329  1.00  0.00    -0.002 C
HETATM   40  C27 UNL     1      20.488  24.666   4.589  1.00  0.00     0.005 C
ENDBRANCH  38  39
ENDBRANCH  37  38
ENDBRANCH  36  37
ENDBRANCH  33  36
ENDBRANCH  23  26
ENDBRANCH  20  23
ENDBRANCH  19  20
BRANCH  19  41
HETATM   41  O4  UNL     1      19.325  27.960  11.229  1.00  0.00    -0.352 OA
BRANCH  41  42
HETATM   42  C30 UNL     1      18.273  28.106  10.597  1.00  0.00     0.197 C
BRANCH  42  43
HETATM   43  C31 UNL     1      18.129  27.083   9.444  1.00  0.00     0.194 C
BRANCH  43  44
HETATM   44  O5  UNL     1      19.028  27.373   8.422  1.00  0.00    -0.382 OA
BRANCH  44  45
HETATM   45  C32 UNL     1      18.709  26.607   7.336  1.00  0.00     0.147 C
HETATM   46  C33 UNL     1      17.543  25.658   7.562  1.00  0.00     0.060 C
HETATM   47  C34 UNL     1      17.137  25.423   6.100  1.00  0.00     0.170 C
HETATM   48  O6  UNL     1      17.231  26.667   5.526  1.00  0.00    -0.389 OA
HETATM   49  C35 UNL     1      18.204  27.397   6.157  1.00  0.00     0.199 C
ENDBRANCH  44  45
ENDBRANCH  43  44
ENDBRANCH  42  43
ENDBRANCH  41  42
ENDBRANCH  19  41
ENDBRANCH   5  19
ENDBRANCH   3   4
TORSDOF 17
ENDMDL