MODEL 3
REMARK VINA RESULT: -8.873275575      2.778     10.742
REMARK  19 active torsions:
REMARK  status: ('A' for Active; 'I' for Inactive)
REMARK    1  A    between atoms: C2_2  and  C3_3
REMARK    2  A    between atoms: C3_3  and  N1_4
REMARK    3  A    between atoms: C3_3  and  C9_12
REMARK       I    between atoms: N1_4  and  C4_5
REMARK    4  A    between atoms: C4_5  and  O2_7
REMARK    5  A    between atoms: O2_7  and  C5_8
REMARK    6  A    between atoms: C9_12  and  C10_14
REMARK    7  A    between atoms: C10_14  and  O4_15
REMARK    8  A    between atoms: C15_22  and  O5_23
REMARK    9  A    between atoms: C15_22  and  N3_25
REMARK   10  A    between atoms: N3_25  and  C16_26
REMARK   11  A    between atoms: N3_25  and  C28_43
REMARK   12  A    between atoms: C16_26  and  C17_27
REMARK   13  A    between atoms: C17_27  and  C18_29
REMARK   14  A    between atoms: C18_29  and  C19_30
REMARK   15  A    between atoms: C18_29  and  N4_33
REMARK   16  A    between atoms: C19_30  and  C20_31
REMARK       I    between atoms: N4_33  and  C22_35
REMARK   17  A    between atoms: C22_35  and  O8_37
REMARK   18  A    between atoms: O8_37  and  C23_38
REMARK   19  A    between atoms: C28_43  and  C29_44
ROOT
HETATM    1  N3  UNL     1      19.038  30.130  14.630  1.00  0.00    -0.353 N
ENDROOT
BRANCH   1   2
HETATM    2  C15 UNL     1      19.244  28.975  13.866  1.00  0.00     0.162 C
HETATM    3  C14 UNL     1      20.315  28.612  13.024  1.00  0.00     0.064 C
HETATM    4  N2  UNL     1      20.341  27.353  12.290  1.00  0.00    -0.324 N
HETATM    5  C13 UNL     1      21.095  29.521  12.163  1.00  0.00     0.063 C
HETATM    6  C10 UNL     1      19.585  26.423  11.705  1.00  0.00     0.193 C
HETATM    7  C11 UNL     1      21.886  27.273  12.172  1.00  0.00     0.131 C
HETATM    8  C12 UNL     1      22.044  28.543  11.403  1.00  0.00     0.026 C
BRANCH   6   9
HETATM    9  C9  UNL     1      18.426  25.724  11.369  1.00  0.00     0.239 C
HETATM   10  O3  UNL     1      18.030  24.731  12.053  1.00  0.00    -0.285 OA
BRANCH   9  11
HETATM   11  C3  UNL     1      17.500  26.061  10.174  1.00  0.00     0.269 C
BRANCH  11  12
HETATM   12  C2  UNL     1      17.630  27.561   9.936  1.00  0.00     0.010 C
HETATM   13  C1  UNL     1      16.968  28.470  10.670  1.00  0.00     0.010 C
ENDBRANCH  11  12
BRANCH  11  14
HETATM   14  N1  UNL     1      17.601  25.421   9.059  1.00  0.00    -0.373 NA
HETATM   15  C4  UNL     1      17.707  24.629   7.830  1.00  0.00     0.436 C
HETATM   16  O1  UNL     1      17.618  23.408   7.737  1.00  0.00    -0.221 OA
BRANCH  15  17
HETATM   17  O2  UNL     1      17.914  25.248   6.681  1.00  0.00    -0.283 OA
BRANCH  17  18
HETATM   18  C5  UNL     1      18.153  25.845   5.596  1.00  0.00     0.062 C
HETATM   19  C6  UNL     1      19.240  25.244   4.678  1.00  0.00     0.046 C
HETATM   20  C7  UNL     1      16.887  25.928   4.677  1.00  0.00     0.046 C
HETATM   21  C8  UNL     1      18.532  27.350   5.726  1.00  0.00     0.046 C
ENDBRANCH  17  18
ENDBRANCH  15  17
ENDBRANCH  11  14
ENDBRANCH   9  11
ENDBRANCH   6   9
BRANCH   6  22
HETATM   22  O4  UNL     1      20.581  25.665  10.930  1.00  0.00    -0.343 OA
ATOM     23  H4  UNL     1      20.097  25.526  10.125  1.00  0.00     0.219 HD
ENDBRANCH   6  22
BRANCH   2  24
HETATM   24  O5  UNL     1      18.287  28.096  14.000  1.00  0.00    -0.345 OA
ATOM     25  H5  UNL     1      17.444  28.330  13.631  1.00  0.00     0.219 HD
ENDBRANCH   2  24
ENDBRANCH   1   2
BRANCH   1  26
HETATM   26  C16 UNL     1      18.016  31.098  14.431  1.00  0.00     0.210 C
BRANCH  26  27
HETATM   27  C17 UNL     1      17.223  31.551  15.629  1.00  0.00     0.189 C
HETATM   28  O6  UNL     1      16.614  30.689  16.244  1.00  0.00    -0.289 OA
BRANCH  27  29
HETATM   29  C18 UNL     1      17.091  32.890  16.182  1.00  0.00     0.061 C
BRANCH  29  30
HETATM   30  C19 UNL     1      15.859  33.666  16.118  1.00  0.00     0.061 C
BRANCH  30  31
HETATM   31  C20 UNL     1      15.186  33.730  17.505  1.00  0.00     0.002 C
HETATM   32  C21 UNL     1      14.615  35.093  17.754  1.00  0.00     0.005 C
ENDBRANCH  30  31
ENDBRANCH  29  30
BRANCH  29  33
HETATM   33  N4  UNL     1      18.335  33.621  16.161  1.00  0.00    -0.303 N
HETATM   34  C22 UNL     1      18.941  34.301  17.206  1.00  0.00     0.365 C
HETATM   35  O7  UNL     1      18.415  34.322  18.350  1.00  0.00    -0.238 OA
ATOM     36  H4  UNL     1      18.828  33.640  15.269  1.00  0.00     0.171 HD
BRANCH  34  37
HETATM   37  O8  UNL     1      20.134  34.976  17.030  1.00  0.00    -0.298 OA
BRANCH  37  38
HETATM   38  C23 UNL     1      20.674  35.681  18.131  1.00  0.00     0.133 C
HETATM   39  C24 UNL     1      21.604  36.809  17.577  1.00  0.00     0.032 C
HETATM   40  C25 UNL     1      22.480  37.123  18.765  1.00  0.00     0.002 C
HETATM   41  C26 UNL     1      22.417  35.931  19.649  1.00  0.00     0.002 C
HETATM   42  C27 UNL     1      21.654  34.860  18.882  1.00  0.00     0.032 C
ENDBRANCH  37  38
ENDBRANCH  34  37
ENDBRANCH  29  33
ENDBRANCH  27  29
ENDBRANCH  26  27
ENDBRANCH   1  26
BRANCH   1  43
HETATM   43  C28 UNL     1      19.994  30.348  15.739  1.00  0.00     0.130 C
BRANCH  43  44
HETATM   44  C29 UNL     1      21.177  31.166  15.453  1.00  0.00     0.004 C
HETATM   45  C30 UNL     1      20.995  32.323  14.477  1.00  0.00     0.006 C
HETATM   46  C31 UNL     1      22.417  32.537  13.897  1.00  0.00     0.000 C
HETATM   47  C32 UNL     1      23.484  32.339  14.932  1.00  0.00     0.000 C
HETATM   48  C33 UNL     1      22.946  32.670  16.290  1.00  0.00     0.000 C
HETATM   49  C34 UNL     1      21.725  31.885  16.694  1.00  0.00     0.006 C
ENDBRANCH  43  44
ENDBRANCH   1  43
TORSDOF 19
ENDMDL