MODEL 1
REMARK VINA RESULT: -8.659552334      0.000      0.000
REMARK  18 active torsions:
REMARK  status: ('A' for Active; 'I' for Inactive)
REMARK    1  A    between atoms: O1_2  and  C2_3
REMARK       I    between atoms: C2_3  and  N1_5
REMARK    2  A    between atoms: N1_5  and  C3_6
REMARK    3  A    between atoms: N1_5  and  C13_20
REMARK    4  A    between atoms: C3_6  and  C4_7
REMARK    5  A    between atoms: C4_7  and  N2_8
REMARK       I    between atoms: N2_8  and  C5_10
REMARK    6  A    between atoms: C5_10  and  C6_12
REMARK    7  A    between atoms: C6_12  and  N3_14
REMARK    8  A    between atoms: C13_20  and  C14_21
REMARK    9  A    between atoms: C13_20  and  C17_26
REMARK   10  A    between atoms: C14_21  and  C15_22
REMARK   11  A    between atoms: C15_22  and  C16_23
REMARK   12  A    between atoms: C17_26  and  O6_27
REMARK   13  A    between atoms: C17_26  and  N4_29
REMARK       I    between atoms: N5_32  and  C20_33
REMARK   14  A    between atoms: C20_33  and  O8_35
REMARK   15  A    between atoms: O8_35  and  C21_36
REMARK   16  A    between atoms: C21_36  and  C22_37
REMARK   17  A    between atoms: C22_37  and  C23_38
REMARK   18  A    between atoms: C23_38  and  C24_39
ROOT
HETATM    1  C13 UNL     1      20.818  27.268  12.377  1.00  0.00     0.086 C
ENDROOT
BRANCH   1   2
HETATM    2  N1  UNL     1      19.783  27.375  11.426  1.00  0.00    -0.288 N
HETATM    3  C2  UNL     1      18.413  27.462  11.973  1.00  0.00     0.367 C
HETATM    4  O2  UNL     1      17.481  27.620  11.168  1.00  0.00    -0.238 OA
BRANCH   3   5
HETATM    5  O1  UNL     1      18.167  27.374  13.315  1.00  0.00    -0.309 OA
HETATM    6  C1  UNL     1      17.619  28.502  13.968  1.00  0.00     0.215 C
ENDBRANCH   3   5
BRANCH   2   7
HETATM    7  C3  UNL     1      19.810  27.493   9.996  1.00  0.00     0.154 C
BRANCH   7   8
HETATM    8  C4  UNL     1      19.654  26.257   9.192  1.00  0.00     0.143 C
BRANCH   8   9
HETATM    9  N2  UNL     1      20.886  25.974   8.417  1.00  0.00    -0.358 N
HETATM   10  C5  UNL     1      21.668  24.832   8.686  1.00  0.00     0.251 C
HETATM   11  O3  UNL     1      21.294  24.065   9.595  1.00  0.00    -0.271 OA
ATOM     12  H2  UNL     1      21.172  26.615   7.677  1.00  0.00     0.162 HD
BRANCH  10  13
HETATM   13  C6  UNL     1      22.873  24.563   7.925  1.00  0.00     0.310 C
HETATM   14  C7  UNL     1      23.915  25.633   8.292  1.00  0.00     0.053 C
BRANCH  13  15
HETATM   15  N3  UNL     1      22.748  24.587   6.517  1.00  0.00     0.101 N
HETATM   16  C8  UNL     1      21.771  23.753   5.915  1.00  0.00     0.273 C
HETATM   17  C9  UNL     1      21.504  24.330   4.517  1.00  0.00     0.030 C
HETATM   18  C10 UNL     1      22.728  24.210   3.650  1.00  0.00     0.003 C
HETATM   19  C11 UNL     1      23.879  23.743   4.498  1.00  0.00     0.030 C
HETATM   20  C12 UNL     1      23.993  24.457   5.815  1.00  0.00     0.273 C
ENDBRANCH  13  15
ENDBRANCH  10  13
ENDBRANCH   8   9
ENDBRANCH   7   8
ENDBRANCH   2   7
ENDBRANCH   1   2
BRANCH   1  21
HETATM   21  C14 UNL     1      22.064  26.535  12.088  1.00  0.00     0.018 C
BRANCH  21  22
HETATM   22  C15 UNL     1      23.380  27.153  11.978  1.00  0.00     0.142 C
BRANCH  22  23
HETATM   23  C16 UNL     1      24.516  26.283  11.623  1.00  0.00     0.176 C
HETATM   24  O4  UNL     1      24.493  25.011  11.683  1.00  0.00    -0.648 OA
HETATM   25  O5  UNL     1      25.727  26.846  11.183  1.00  0.00    -0.648 OA
ENDBRANCH  22  23
ENDBRANCH  21  22
ENDBRANCH   1  21
BRANCH   1  26
HETATM   26  C17 UNL     1      21.062  28.411  13.279  1.00  0.00     0.165 C
BRANCH  26  27
HETATM   27  O6  UNL     1      21.053  28.061  14.534  1.00  0.00    -0.344 OA
ATOM     28  H6  UNL     1      21.862  28.289  14.979  1.00  0.00     0.219 HD
ENDBRANCH  26  27
BRANCH  26  29
HETATM   29  N4  UNL     1      21.296  29.763  13.081  1.00  0.00    -0.357 N
HETATM   30  C18 UNL     1      20.756  30.699  12.156  1.00  0.00     0.145 C
HETATM   31  C19 UNL     1      19.806  31.592  12.976  1.00  0.00     0.148 C
HETATM   32  N5  UNL     1      20.169  31.544  14.372  1.00  0.00    -0.325 N
HETATM   33  C20 UNL     1      19.117  31.665  15.364  1.00  0.00     0.362 C
HETATM   34  C31 UNL     1      21.513  31.376  14.842  1.00  0.00     0.148 C
HETATM   35  O7  UNL     1      19.418  31.640  16.583  1.00  0.00    -0.238 OA
HETATM   36  C32 UNL     1      22.308  30.415  14.004  1.00  0.00     0.145 C
BRANCH  33  37
HETATM   37  O8  UNL     1      17.816  31.804  15.012  1.00  0.00    -0.304 OA
BRANCH  37  38
HETATM   38  C21 UNL     1      16.661  31.768  15.730  1.00  0.00     0.180 C
BRANCH  38  39
HETATM   39  C22 UNL     1      15.805  32.971  15.670  1.00  0.00     0.027 C
BRANCH  39  40
HETATM   40  C23 UNL     1      16.396  34.246  15.253  1.00  0.00     0.007 C
BRANCH  40  41
HETATM   41  C24 UNL     1      16.187  35.277  16.393  1.00  0.00    -0.014 C
HETATM   42  C25 UNL     1      17.477  35.479  17.124  1.00  0.00     0.004 C
HETATM   43  C26 UNL     1      17.602  36.946  17.470  1.00  0.00     0.000 C
HETATM   44  C27 UNL     1      16.297  37.580  17.833  1.00  0.00     0.000 C
HETATM   45  C28 UNL     1      15.473  36.744  18.756  1.00  0.00     0.000 C
HETATM   46  C29 UNL     1      14.422  35.908  18.042  1.00  0.00     0.000 C
HETATM   47  C30 UNL     1      15.085  34.779  17.263  1.00  0.00     0.004 C
ENDBRANCH  40  41
ENDBRANCH  39  40
ENDBRANCH  38  39
ENDBRANCH  37  38
ENDBRANCH  33  37
ENDBRANCH  26  29
ENDBRANCH   1  26
TORSDOF 18
ENDMDL