MODEL 4
REMARK VINA RESULT: -7.042243056      2.567      6.814
REMARK  1 active torsions:
REMARK  status: ('A' for Active; 'I' for Inactive)
REMARK    1  A    between atoms: C9_12  and  C10_13
ROOT
HETATM    1  C1  UNL     1      72.728  35.646  72.383  1.00  0.00     0.049 C
HETATM    2  C2  UNL     1      73.699  36.697  71.986  1.00  0.00    -0.053 A
HETATM    3  C3  UNL     1      74.254  37.534  72.929  1.00  0.00     0.015 A
HETATM    4  C4  UNL     1      75.158  38.511  72.553  1.00  0.00    -0.048 A
HETATM    5  C5  UNL     1      75.744  39.402  73.581  1.00  0.00     0.049 C
HETATM    6  C6  UNL     1      75.522  38.668  71.234  1.00  0.00     0.010 A
HETATM    7  C7  UNL     1      74.945  37.805  70.291  1.00  0.00     0.051 A
HETATM    8  N1  UNL     1      75.441  38.143  69.096  1.00  0.00    -0.349 N
ATOM      9  H1  UNL     1      75.212  37.696  68.208  1.00  0.00     0.166 HD
HETATM   10  C8  UNL     1      76.310  39.189  69.262  1.00  0.00     0.086 A
HETATM   11  S1  UNL     1      77.378  40.280  68.499  1.00  0.00    -0.068 SA
HETATM   12  C9  UNL     1      77.899  41.160  69.858  1.00  0.00     0.053 A
HETATM   13  C12 UNL     1      77.215  40.573  70.888  1.00  0.00     0.038 A
HETATM   14  C13 UNL     1      76.393  39.549  70.574  1.00  0.00     0.012 A
HETATM   15  C14 UNL     1      74.046  36.833  70.662  1.00  0.00    -0.028 A
HETATM   16  C15 UNL     1      73.448  35.931  69.643  1.00  0.00     0.051 C
ENDROOT
BRANCH  12  17
HETATM   17  C10 UNL     1      78.856  42.284  69.900  1.00  0.00     0.138 A
HETATM   18  N2  UNL     1      79.700  42.612  68.938  1.00  0.00    -0.335 N
HETATM   19  C11 UNL     1      80.376  43.697  69.402  1.00  0.00     0.199 A
ATOM     20  H2  UNL     1      79.819  42.149  68.038  1.00  0.00     0.168 HD
HETATM   21  N3  UNL     1      79.944  44.022  70.633  1.00  0.00    -0.295 N
HETATM   22  N4  UNL     1      78.997  43.123  70.914  1.00  0.00    -0.283 N
ATOM     23  H3  UNL     1      80.268  44.788  71.222  1.00  0.00     0.187 HD
ATOM     24  H4  UNL     1      78.463  43.088  71.782  1.00  0.00     0.188 HD
ENDBRANCH  12  17
TORSDOF 1
ENDMDL