MODEL 2
REMARK VINA RESULT: -7.838389449      1.552      2.085
REMARK  2 active torsions:
REMARK  status: ('A' for Active; 'I' for Inactive)
REMARK    1  A    between atoms: C5_5  and  C6_6
REMARK    2  A    between atoms: C7_9  and  N2_10
ROOT
HETATM    1  C6  UNL     1      76.806  38.571  71.029  1.00  0.00     0.080 A
HETATM    2  N1  UNL     1      78.047  38.423  71.482  1.00  0.00    -0.190 N
ATOM      3  H1  UNL     1      78.269  37.765  72.229  1.00  0.00     0.184 HD
HETATM    4  C7  UNL     1      79.003  39.190  70.901  1.00  0.00     0.676 A
HETATM    5  N3  UNL     1      78.723  40.048  69.930  1.00  0.00    -0.190 N
ATOM      6  H3  UNL     1      79.492  40.593  69.540  1.00  0.00     0.184 HD
HETATM    7  C8  UNL     1      77.467  40.252  69.414  1.00  0.00     0.075 A
HETATM    8  C9  UNL     1      77.073  41.091  68.434  1.00  0.00    -0.021 A
HETATM    9  C10 UNL     1      78.030  42.016  67.684  1.00  0.00     0.052 C
HETATM   10  C11 UNL     1      75.740  41.096  68.111  1.00  0.00    -0.012 A
HETATM   11  C12 UNL     1      75.042  41.929  67.070  1.00  0.00     0.057 C
HETATM   12  S1  UNL     1      75.085  39.941  69.175  1.00  0.00    -0.090 SA
HETATM   13  C13 UNL     1      76.503  39.481  69.997  1.00  0.00     0.061 A
ENDROOT
BRANCH   1  14
HETATM   14  C5  UNL     1      75.631  37.839  71.498  1.00  0.00     0.015 A
HETATM   15  C4  UNL     1      75.156  36.826  70.647  1.00  0.00     0.017 A
HETATM   16  C3  UNL     1      74.039  36.132  71.042  1.00  0.00     0.025 A
HETATM   17  C2  UNL     1      73.410  36.420  72.231  1.00  0.00     0.005 A
HETATM   18  C1  UNL     1      72.200  35.632  72.585  1.00  0.00     0.068 C
HETATM   19  N4  UNL     1      73.904  37.396  73.007  1.00  0.00    -0.363 N
HETATM   20  C14 UNL     1      75.011  38.114  72.660  1.00  0.00     0.018 A
ATOM     21  H4  UNL     1      73.436  37.607  73.888  1.00  0.00     0.165 HD
HETATM   22  C15 UNL     1      75.508  39.172  73.547  1.00  0.00     0.069 C
ENDBRANCH   1  14
BRANCH   4  23
HETATM   23  N2  UNL     1      80.245  39.070  71.329  1.00  0.00    -0.234 N
ATOM     24  H22 UNL     1      80.896  38.465  70.830  1.00  0.00     0.174 HD
ATOM     25  H21 UNL     1      80.521  39.595  72.159  1.00  0.00     0.174 HD
ENDBRANCH   4  23
TORSDOF 2
ENDMDL