MODEL 3
REMARK VINA RESULT: -5.349761162      1.457      7.183
REMARK  1 active torsions:
REMARK  status: ('A' for Active; 'I' for Inactive)
REMARK    1  A    between atoms: C5_7  and  C6_8
ROOT
HETATM    1  C6  UNL     1      77.082  40.018  68.908  1.00  0.00     0.041 A
HETATM    2  N2  UNL     1      77.643  40.464  70.037  1.00  0.00    -0.353 N
ATOM      3  H2  UNL     1      77.417  40.102  70.964  1.00  0.00     0.166 HD
HETATM    4  C7  UNL     1      78.543  41.448  69.812  1.00  0.00     0.068 A
HETATM    5  C8  UNL     1      79.346  42.189  70.651  1.00  0.00     0.074 A
HETATM    6  N3  UNL     1      79.302  41.964  72.051  1.00  0.00    -0.100 NA
HETATM    7  C9  UNL     1      80.186  43.144  70.141  1.00  0.00     0.035 A
HETATM    8  C10 UNL     1      80.225  43.364  68.780  1.00  0.00    -0.059 A
HETATM    9  C11 UNL     1      81.139  44.406  68.193  1.00  0.00     0.048 C
HETATM   10  C12 UNL     1      79.425  42.625  67.943  1.00  0.00     0.021 A
HETATM   11  C13 UNL     1      78.568  41.653  68.449  1.00  0.00     0.001 A
HETATM   12  C14 UNL     1      77.670  40.775  67.888  1.00  0.00    -0.023 A
HETATM   13  C15 UNL     1      77.384  40.658  66.444  1.00  0.00     0.051 C
ENDROOT
BRANCH   1  14
HETATM   14  C5  UNL     1      76.106  38.971  68.682  1.00  0.00     0.056 C
HETATM   15  C4  UNL     1      75.430  38.367  69.661  1.00  0.00     0.029 A
HETATM   16  C3  UNL     1      75.663  38.760  71.051  1.00  0.00     0.176 A
HETATM   17  N4  UNL     1      74.498  37.337  69.367  1.00  0.00    -0.360 N
HETATM   18  N1  UNL     1      74.971  37.900  71.968  1.00  0.00    -0.386 N
HETATM   19  C2  UNL     1      74.149  36.974  71.703  1.00  0.00     0.023 A
ATOM     20  H1  UNL     1      75.167  38.055  72.957  1.00  0.00     0.159 HD
HETATM   21  C1  UNL     1      73.490  36.153  72.754  1.00  0.00     0.070 C
HETATM   22  C16 UNL     1      73.895  36.680  70.288  1.00  0.00     0.027 A
HETATM   23  C17 UNL     1      72.933  35.616  69.947  1.00  0.00     0.070 C
ATOM     24  H4  UNL     1      74.300  37.115  68.391  1.00  0.00     0.165 HD
ENDBRANCH   1  14
TORSDOF 1
ENDMDL