MODEL 2
REMARK VINA RESULT: -8.331952167      2.132      4.406
REMARK  2 active torsions:
REMARK  status: ('A' for Active; 'I' for Inactive)
REMARK    1  A    between atoms: C12_12  and  C14_14
REMARK    2  A    between atoms: C18_19  and  O2_20
ROOT
HETATM    1  C1  UNL     1      74.710  42.092  67.346  1.00  0.00     0.015 C
HETATM    2  C2  UNL     1      75.597  40.865  67.327  1.00  0.00    -0.044 C
HETATM    3  C3  UNL     1      74.947  39.782  66.527  1.00  0.00     0.015 C
HETATM    4  C4  UNL     1      76.946  41.292  66.723  1.00  0.00     0.010 C
HETATM    5  C5  UNL     1      78.124  40.672  67.414  1.00  0.00     0.012 C
HETATM    6  C6  UNL     1      78.244  41.080  68.894  1.00  0.00    -0.017 C
HETATM    7  C7  UNL     1      79.173  42.238  69.001  1.00  0.00     0.018 C
HETATM    8  C8  UNL     1      76.850  41.561  69.224  1.00  0.00     0.017 C
HETATM    9  C9  UNL     1      75.975  40.443  68.719  1.00  0.00    -0.006 C
HETATM   10  C10 UNL     1      74.936  40.173  69.686  1.00  0.00     0.006 C
HETATM   11  C11 UNL     1      75.521  39.952  71.049  1.00  0.00     0.017 C
HETATM   12  C12 UNL     1      76.698  39.095  71.207  1.00  0.00     0.018 C
HETATM   13  C13 UNL     1      76.446  37.750  70.551  1.00  0.00     0.023 C
HETATM   14  C15 UNL     1      78.060  39.625  71.014  1.00  0.00    -0.007 C
HETATM   15  C16 UNL     1      78.379  40.688  72.025  1.00  0.00     0.018 C
HETATM   16  C17 UNL     1      78.982  38.448  71.449  1.00  0.00     0.018 C
HETATM   17  C18 UNL     1      78.591  39.872  69.656  1.00  0.00     0.135 C
ENDROOT
BRANCH  12  18
HETATM   18  C14 UNL     1      76.669  38.785  72.705  1.00  0.00     0.241 C
HETATM   19  O1  UNL     1      75.896  38.021  73.204  1.00  0.00    -0.306 OA
ENDBRANCH  12  18
BRANCH  17  20
HETATM   20  O2  UNL     1      80.012  39.880  69.739  1.00  0.00    -0.394 OA
ATOM     21  H2  UNL     1      80.313  39.975  68.843  1.00  0.00     0.210 HD
ENDBRANCH  17  20
TORSDOF 2
ENDMDL