MODEL 4
REMARK VINA RESULT: -6.384510313      1.902      3.683
REMARK  3 active torsions:
REMARK  status: ('A' for Active; 'I' for Inactive)
REMARK    1  A    between atoms: C9_11  and  N2_12
REMARK       I    between atoms: N2_12  and  C10_14
REMARK    2  A    between atoms: C10_14  and  O2_16
REMARK    3  A    between atoms: O2_16  and  C11_17
ROOT
HETATM    1  C1  UNL     1      74.682  41.181  67.350  1.00  0.00     0.089 C
HETATM    2  C2  UNL     1      75.716  40.962  68.410  1.00  0.00     0.078 A
HETATM    3  N1  UNL     1      76.789  41.729  68.673  1.00  0.00    -0.344 N
ATOM      4  H1  UNL     1      77.057  42.582  68.183  1.00  0.00     0.167 HD
HETATM    5  C3  UNL     1      77.452  41.154  69.717  1.00  0.00     0.069 A
HETATM    6  C4  UNL     1      78.603  41.543  70.363  1.00  0.00    -0.027 A
HETATM    7  C5  UNL     1      79.358  42.756  69.983  1.00  0.00     0.051 C
HETATM    8  C6  UNL     1      79.032  40.747  71.396  1.00  0.00    -0.051 A
HETATM    9  C7  UNL     1      80.268  41.150  72.104  1.00  0.00     0.049 C
HETATM   10  C8  UNL     1      78.349  39.587  71.791  1.00  0.00     0.039 A
HETATM   11  C9  UNL     1      77.199  39.186  71.156  1.00  0.00     0.066 A
HETATM   12  C15 UNL     1      76.784  40.022  70.102  1.00  0.00     0.088 A
HETATM   13  N3  UNL     1      75.732  39.936  69.283  1.00  0.00    -0.343 N
ATOM     14  H3  UNL     1      75.033  39.194  69.315  1.00  0.00     0.167 HD
ENDROOT
BRANCH  11  15
HETATM   15  N2  UNL     1      76.435  38.041  71.472  1.00  0.00    -0.300 N
HETATM   16  C10 UNL     1      75.789  37.824  72.685  1.00  0.00     0.366 C
HETATM   17  O1  UNL     1      75.734  38.525  73.691  1.00  0.00    -0.238 OA
ATOM     18  H2  UNL     1      76.350  37.319  70.757  1.00  0.00     0.171 HD
BRANCH  16  19
HETATM   19  O2  UNL     1      75.077  36.616  72.803  1.00  0.00    -0.294 OA
BRANCH  19  20
HETATM   20  C11 UNL     1      73.734  36.477  72.450  1.00  0.00     0.061 C
HETATM   21  C12 UNL     1      73.194  35.228  73.107  1.00  0.00     0.046 C
HETATM   22  C13 UNL     1      72.979  37.676  73.002  1.00  0.00     0.046 C
HETATM   23  C14 UNL     1      73.466  36.393  70.988  1.00  0.00     0.046 C
ENDBRANCH  19  20
ENDBRANCH  16  19
ENDBRANCH  11  15
TORSDOF 3
ENDMDL