MODEL 3
REMARK VINA RESULT: -8.240108580      1.358      1.482
REMARK  4 active torsions:
REMARK  status: ('A' for Active; 'I' for Inactive)
REMARK    1  A    between atoms: C2_2  and  C3_3
REMARK    2  A    between atoms: C5_7  and  C6_8
REMARK    3  A    between atoms: C11_13  and  C12_14
REMARK    4  A    between atoms: C16_19  and  O1_20
ROOT
HETATM    1  C12 UNL     1      79.184  41.423  70.161  1.00  0.00     0.071 C
HETATM    2  C13 UNL     1      79.526  41.410  68.687  1.00  0.00     0.036 C
HETATM    3  C14 UNL     1      80.323  40.769  70.904  1.00  0.00     0.036 C
HETATM    4  C15 UNL     1      78.922  42.778  70.639  1.00  0.00     0.073 C
HETATM    5  N2  UNL     1      78.701  43.853  71.025  1.00  0.00    -0.196 NA
ENDROOT
BRANCH   1   6
HETATM    6  C11 UNL     1      77.924  40.652  70.326  1.00  0.00    -0.000 A
HETATM    7  C10 UNL     1      77.047  40.483  69.253  1.00  0.00     0.022 A
HETATM    8  C5  UNL     1      75.871  39.776  69.367  1.00  0.00    -0.021 A
HETATM    9  C4  UNL     1      75.579  39.230  70.595  1.00  0.00     0.070 A
HETATM   10  N1  UNL     1      74.548  38.510  71.009  1.00  0.00    -0.344 N
HETATM   11  C17 UNL     1      76.449  39.402  71.646  1.00  0.00     0.095 A
HETATM   12  C3  UNL     1      74.719  38.202  72.311  1.00  0.00     0.081 A
ATOM     13  H1  UNL     1      73.752  38.232  70.434  1.00  0.00     0.167 HD
HETATM   14  N3  UNL     1      75.886  38.756  72.685  1.00  0.00    -0.342 N
ATOM     15  H3  UNL     1      76.288  38.696  73.620  1.00  0.00     0.167 HD
HETATM   16  C16 UNL     1      77.633  40.109  71.548  1.00  0.00     0.102 A
BRANCH   8  17
HETATM   17  C6  UNL     1      75.012  39.655  68.190  1.00  0.00    -0.022 C
HETATM   18  C7  UNL     1      74.027  40.808  68.182  1.00  0.00     0.019 C
HETATM   19  C8  UNL     1      75.806  39.736  66.935  1.00  0.00     0.019 C
HETATM   20  C9  UNL     1      74.197  38.385  68.170  1.00  0.00     0.019 C
ENDBRANCH   8  17
BRANCH  12  21
HETATM   21  C2  UNL     1      73.797  37.404  73.179  1.00  0.00     0.072 C
HETATM   22  C1  UNL     1      73.244  36.259  72.379  1.00  0.00     0.013 C
ENDBRANCH  12  21
BRANCH  16  23
HETATM   23  O1  UNL     1      78.486  40.255  72.651  1.00  0.00    -0.358 OA
ATOM     24  H1  UNL     1      78.273  40.824  73.381  1.00  0.00     0.217 HD
ENDBRANCH  16  23
ENDBRANCH   1   6
TORSDOF 4
ENDMDL