MODEL 1
REMARK VINA RESULT: -7.678599477      0.000      0.000
REMARK  3 active torsions:
REMARK  status: ('A' for Active; 'I' for Inactive)
REMARK    1  A    between atoms: C2_2  and  C5_5
REMARK    2  A    between atoms: C11_13  and  N2_14
REMARK    3  A    between atoms: N2_14  and  C12_16
ROOT
HETATM    1  C5  UNL     1      74.806  37.575  71.317  1.00  0.00    -0.003 C
HETATM    2  C6  UNL     1      73.577  36.892  70.780  1.00  0.00     0.005 C
HETATM    3  C7  UNL     1      73.943  36.451  69.366  1.00  0.00     0.005 C
HETATM    4  C8  UNL     1      74.163  37.661  68.528  1.00  0.00     0.054 C
HETATM    5  C9  UNL     1      75.019  38.712  69.082  1.00  0.00     0.109 A
HETATM    6  C10 UNL     1      75.128  38.823  70.552  1.00  0.00     0.059 C
HETATM    7  N1  UNL     1      76.282  38.855  68.387  1.00  0.00    -0.336 N
ATOM      8  H1  UNL     1      77.094  38.239  68.343  1.00  0.00     0.165 HD
HETATM    9  C11 UNL     1      76.062  39.998  67.844  1.00  0.00     0.175 A
HETATM   10  N3  UNL     1      74.782  40.000  68.465  1.00  0.00    -0.336 N
ATOM     11  H3  UNL     1      74.000  40.655  68.472  1.00  0.00     0.165 HD
ENDROOT
BRANCH   1  12
HETATM   12  C2  UNL     1      74.626  37.832  72.776  1.00  0.00    -0.048 C
HETATM   13  C1  UNL     1      74.497  39.283  73.109  1.00  0.00     0.015 C
HETATM   14  C3  UNL     1      75.740  37.255  73.618  1.00  0.00     0.015 C
HETATM   15  C4  UNL     1      73.345  37.124  73.216  1.00  0.00     0.015 C
ENDBRANCH   1  12
BRANCH   9  16
HETATM   16  N2  UNL     1      76.723  40.927  66.994  1.00  0.00    -0.358 N
ATOM     17  H2  UNL     1      76.659  40.810  65.982  1.00  0.00     0.163 HD
BRANCH  16  18
HETATM   18  C12 UNL     1      77.483  42.035  67.532  1.00  0.00     0.084 C
HETATM   19  C13 UNL     1      78.956  41.850  67.388  1.00  0.00     0.025 C
HETATM   20  C14 UNL     1      79.484  40.881  68.431  1.00  0.00     0.002 C
HETATM   21  C15 UNL     1      79.274  41.587  69.773  1.00  0.00     0.000 C
HETATM   22  C16 UNL     1      77.808  41.703  70.004  1.00  0.00     0.002 C
HETATM   23  C17 UNL     1      77.043  42.376  68.925  1.00  0.00     0.025 C
ENDBRANCH  16  18
ENDBRANCH   9  16
TORSDOF 3
ENDMDL