MODEL 4
REMARK VINA RESULT: -6.485659457      1.060      1.067
REMARK  2 active torsions:
REMARK  status: ('A' for Active; 'I' for Inactive)
REMARK    1  A    between atoms: C5_5  and  N1_6
REMARK    2  A    between atoms: C7_10  and  C8_11
ROOT
HETATM    1  C1  UNL     1      72.699  35.789  71.588  1.00  0.00     0.068 C
HETATM    2  C2  UNL     1      73.703  36.751  71.012  1.00  0.00     0.008 A
HETATM    3  C3  UNL     1      74.798  37.274  71.662  1.00  0.00     0.042 A
HETATM    4  C4  UNL     1      75.492  38.123  70.810  1.00  0.00     0.037 A
HETATM    5  C5  UNL     1      76.642  38.882  70.988  1.00  0.00     0.053 A
HETATM    6  C6  UNL     1      77.145  39.679  69.940  1.00  0.00     0.033 A
HETATM    7  C7  UNL     1      78.259  40.493  69.909  1.00  0.00    -0.027 A
HETATM    8  C11 UNL     1      78.511  41.144  68.760  1.00  0.00    -0.012 A
HETATM    9  C12 UNL     1      79.611  42.073  68.307  1.00  0.00     0.057 C
HETATM   10  S1  UNL     1      77.226  40.648  67.714  1.00  0.00    -0.076 SA
HETATM   11  C13 UNL     1      76.410  39.618  68.798  1.00  0.00     0.091 A
HETATM   12  N2  UNL     1      75.275  38.858  68.644  1.00  0.00    -0.330 N
HETATM   13  C14 UNL     1      74.623  38.909  67.375  1.00  0.00     0.158 C
HETATM   14  C15 UNL     1      74.792  38.101  69.634  1.00  0.00     0.121 A
HETATM   15  N3  UNL     1      73.730  37.276  69.779  1.00  0.00    -0.345 N
ATOM     16  H3  UNL     1      73.044  37.080  69.050  1.00  0.00     0.167 HD
ENDROOT
BRANCH   5  17
HETATM   17  N1  UNL     1      77.190  38.802  72.137  1.00  0.00    -0.398 N
ATOM     18  H12 UNL     1      78.083  38.340  72.304  1.00  0.00     0.156 HD
ATOM     19  H11 UNL     1      76.678  39.235  72.906  1.00  0.00     0.156 HD
ENDBRANCH   5  17
BRANCH   7  20
HETATM   20  C8  UNL     1      79.164  40.622  71.122  1.00  0.00     0.012 C
HETATM   21  C9  UNL     1      79.635  42.022  71.384  1.00  0.00     0.015 C
HETATM   22  C10 UNL     1      80.386  39.724  70.914  1.00  0.00     0.015 C
ENDBRANCH   7  20
TORSDOF 2
ENDMDL