MODEL 3
REMARK VINA RESULT: -6.043634400      0.910      1.197
REMARK  2 active torsions:
REMARK  status: ('A' for Active; 'I' for Inactive)
REMARK    1  A    between atoms: C2_2  and  N1_4
REMARK       I    between atoms: N1_4  and  C4_6
REMARK       I    between atoms: C4_6  and  N2_8
REMARK    2  A    between atoms: C8_13  and  O3_14
ROOT
HETATM    1  N1  UNL     1      76.204  39.057  72.466  1.00  0.00    -0.339 N
ATOM      2  H1  UNL     1      77.130  39.177  72.877  1.00  0.00     0.164 HD
HETATM    3  C4  UNL     1      76.037  39.324  71.103  1.00  0.00     0.324 C
HETATM    4  O1  UNL     1      74.867  39.178  70.633  1.00  0.00    -0.247 OA
HETATM    5  N2  UNL     1      77.069  39.739  70.251  1.00  0.00    -0.285 N
HETATM    6  C5  UNL     1      78.418  39.620  70.678  1.00  0.00     0.107 A
HETATM    7  C6  UNL     1      79.284  40.709  70.466  1.00  0.00     0.004 A
HETATM    8  C7  UNL     1      80.492  40.306  70.964  1.00  0.00     0.155 A
HETATM    9  O2  UNL     1      80.374  39.073  71.438  1.00  0.00    -0.298 OA
HETATM   10  C8  UNL     1      79.153  38.622  71.290  1.00  0.00     0.211 A
HETATM   11  C9  UNL     1      78.646  41.854  69.802  1.00  0.00    -0.014 C
HETATM   12  C10 UNL     1      77.815  42.692  70.719  1.00  0.00     0.020 C
HETATM   13  C11 UNL     1      79.756  42.732  69.246  1.00  0.00     0.020 C
HETATM   14  C12 UNL     1      77.869  41.324  68.612  1.00  0.00     0.044 C
HETATM   15  C13 UNL     1      76.810  40.334  68.931  1.00  0.00     0.036 C
HETATM   16  C14 UNL     1      76.896  39.190  67.943  1.00  0.00     0.039 C
HETATM   17  C15 UNL     1      75.441  40.961  68.834  1.00  0.00     0.039 C
ENDROOT
BRANCH   1  18
HETATM   18  C2  UNL     1      75.110  38.614  73.328  1.00  0.00     0.078 C
HETATM   19  C1  UNL     1      74.094  39.724  73.413  1.00  0.00     0.032 C
HETATM   20  C3  UNL     1      74.404  37.408  72.724  1.00  0.00     0.032 C
ENDBRANCH   1  18
BRANCH  10  21
HETATM   21  O3  UNL     1      78.614  37.372  71.652  1.00  0.00    -0.339 OA
ATOM     22  H3  UNL     1      77.832  37.272  72.182  1.00  0.00     0.220 HD
ENDBRANCH  10  21
TORSDOF 2
ENDMDL