MODEL 5
REMARK VINA RESULT: -6.291492912      4.401      7.551
REMARK  1 active torsions:
REMARK  status: ('A' for Active; 'I' for Inactive)
REMARK       I    between atoms: C2_2  and  N1_4
REMARK    1  A    between atoms: N1_4  and  N2_6
ROOT
HETATM    1  N2  UNL     1      74.022  36.778  69.866  1.00  0.00    -0.286 N
ATOM      2  H2  UNL     1      73.398  37.077  69.117  1.00  0.00     0.188 HD
HETATM    3  C3  UNL     1      75.239  37.207  69.866  1.00  0.00     0.098 C
HETATM    4  C4  UNL     1      75.628  38.103  68.772  1.00  0.00     0.078 C
HETATM    5  C5  UNL     1      74.760  39.339  68.672  1.00  0.00     0.007 C
HETATM    6  C6  UNL     1      75.276  40.223  67.555  1.00  0.00     0.000 C
HETATM    7  C7  UNL     1      75.088  41.680  67.900  1.00  0.00     0.000 C
HETATM    8  C8  UNL     1      76.231  42.531  67.461  1.00  0.00     0.000 C
HETATM    9  C9  UNL     1      77.543  42.197  68.062  1.00  0.00     0.000 C
HETATM   10  C10 UNL     1      77.850  42.947  69.339  1.00  0.00     0.000 C
HETATM   11  C11 UNL     1      78.669  42.069  70.296  1.00  0.00     0.000 C
HETATM   12  C12 UNL     1      77.752  41.206  71.087  1.00  0.00     0.000 C
HETATM   13  C13 UNL     1      78.230  39.750  71.166  1.00  0.00     0.009 C
HETATM   14  C14 UNL     1      77.065  38.984  71.792  1.00  0.00     0.103 C
HETATM   15  C15 UNL     1      77.153  37.539  71.473  1.00  0.00     0.223 C
HETATM   16  O2  UNL     1      78.238  36.947  71.701  1.00  0.00    -0.273 OA
HETATM   17  N3  UNL     1      76.085  36.771  70.923  1.00  0.00    -0.316 N
ATOM     18  H3  UNL     1      75.917  35.844  71.313  1.00  0.00     0.170 HD
ENDROOT
BRANCH   1  19
HETATM   19  N1  UNL     1      73.524  35.920  70.849  1.00  0.00    -0.269 N
HETATM   20  C2  UNL     1      73.393  36.284  72.203  1.00  0.00     0.232 C
HETATM   21  C1  UNL     1      72.860  35.340  73.212  1.00  0.00     0.119 C
HETATM   22  O1  UNL     1      73.723  37.434  72.626  1.00  0.00    -0.272 OA
ATOM     23  H1  UNL     1      73.240  34.980  70.571  1.00  0.00     0.190 HD
ENDBRANCH   1  19
TORSDOF 1
ENDMDL