MODEL 4
REMARK VINA RESULT: -7.368729325      1.666      2.630
REMARK  5 active torsions:
REMARK  status: ('A' for Active; 'I' for Inactive)
REMARK    1  A    between atoms: C2_7  and  O1_8
REMARK    2  A    between atoms: O1_8  and  C3_9
REMARK    3  A    between atoms: C3_9  and  C4_10
REMARK    4  A    between atoms: C5_11  and  C6_12
REMARK    5  A    between atoms: C9_22  and  N5_23
ROOT
HETATM    1  N1  UNL     1      11.542  44.908  52.147  1.00  0.00    -0.234 N
ATOM      2  H11 UNL     1      11.390  45.321  53.067  1.00  0.00     0.174 HD
ATOM      3  H12 UNL     1      11.229  43.961  51.936  1.00  0.00     0.174 HD
HETATM    4  C1  UNL     1      12.136  45.580  51.221  1.00  0.00     0.679 A
HETATM    5  N2  UNL     1      12.339  45.026  49.986  1.00  0.00    -0.169 N
ATOM      6  H2  UNL     1      12.013  44.076  49.811  1.00  0.00     0.186 HD
HETATM    7  C2  UNL     1      12.955  45.697  48.997  1.00  0.00     0.186 A
HETATM    8  C8  UNL     1      13.370  46.989  49.316  1.00  0.00     0.141 A
HETATM    9  N4  UNL     1      14.029  47.774  48.335  1.00  0.00    -0.094 NA
HETATM   10  C9  UNL     1      13.161  47.533  50.554  1.00  0.00     0.143 A
HETATM   11  N6  UNL     1      12.547  46.825  51.498  1.00  0.00    -0.175 N
ATOM     12  H6  UNL     1      12.390  47.225  52.423  1.00  0.00     0.186 HD
ENDROOT
BRANCH   7  13
HETATM   13  O1  UNL     1      13.183  45.177  47.732  1.00  0.00    -0.329 OA
BRANCH  13  14
HETATM   14  C3  UNL     1      13.873  43.967  47.597  1.00  0.00     0.225 C
BRANCH  14  15
HETATM   15  C4  UNL     1      13.985  43.525  46.191  1.00  0.00     0.078 A
HETATM   16  C5  UNL     1      14.892  43.933  45.238  1.00  0.00     0.189 A
HETATM   17  O4  UNL     1      14.613  43.275  44.135  1.00  0.00    -0.227 OA
HETATM   18  N3  UNL     1      13.614  42.483  44.286  1.00  0.00    -0.224 N
HETATM   19  C7  UNL     1      13.180  42.601  45.561  1.00  0.00     0.276 A
ATOM     20  H3  UNL     1      13.219  41.873  43.571  1.00  0.00     0.198 HD
HETATM   21  O5  UNL     1      12.222  41.997  46.110  1.00  0.00    -0.266 OA
BRANCH  16  22
HETATM   22  C6  UNL     1      15.949  44.913  45.450  1.00  0.00     0.237 C
HETATM   23  O2  UNL     1      17.162  44.615  45.378  1.00  0.00    -0.642 OA
HETATM   24  O3  UNL     1      15.617  46.225  45.741  1.00  0.00    -0.642 OA
ENDBRANCH  16  22
ENDBRANCH  14  15
ENDBRANCH  13  14
ENDBRANCH   7  13
BRANCH  10  25
HETATM   25  N5  UNL     1      13.551  48.747  50.855  1.00  0.00    -0.383 N
ATOM     26  H52 UNL     1      14.221  49.201  50.234  1.00  0.00     0.157 HD
ATOM     27  H51 UNL     1      13.205  49.238  51.680  1.00  0.00     0.157 HD
ENDBRANCH  10  25
TORSDOF 5
ENDMDL