MODEL 2
REMARK VINA RESULT: -6.652597030      2.776      6.397
REMARK  9 active torsions:
REMARK  status: ('A' for Active; 'I' for Inactive)
REMARK    1  A    between atoms: C3_3  and  N1_4
REMARK    2  A    between atoms: N1_4  and  N2_6
REMARK    3  A    between atoms: N2_6  and  O1_8
REMARK    4  A    between atoms: O1_8  and  C4_9
REMARK    5  A    between atoms: C4_9  and  C5_10
REMARK    6  A    between atoms: C5_10  and  O2_11
REMARK    7  A    between atoms: N3_13  and  C6_14
REMARK    8  A    between atoms: C6_14  and  N4_15
REMARK    9  A    between atoms: C9_23  and  N6_24
ROOT
HETATM    1  C1  UNL     1      12.184  47.088  49.085  1.00  0.00     0.072 C
HETATM    2  C2  UNL     1      13.320  46.237  48.565  1.00  0.00     0.053 A
HETATM    3  C3  UNL     1      14.549  46.565  48.804  1.00  0.00     0.148 A
HETATM    4  N3  UNL     1      15.721  45.825  48.357  1.00  0.00    -0.299 N
HETATM    5  C7  UNL     1      15.417  44.663  47.603  1.00  0.00     0.127 A
HETATM    6  C8  UNL     1      14.093  44.297  47.337  1.00  0.00     0.152 A
HETATM    7  N5  UNL     1      13.813  43.198  46.611  1.00  0.00    -0.174 N
ATOM      8  H5  UNL     1      12.839  42.953  46.433  1.00  0.00     0.186 HD
HETATM    9  C9  UNL     1      14.787  42.414  46.116  1.00  0.00     0.679 A
HETATM   10  N7  UNL     1      16.058  42.757  46.363  1.00  0.00    -0.175 N
ATOM     11  H7  UNL     1      16.809  42.173  45.993  1.00  0.00     0.186 HD
HETATM   12  C10 UNL     1      16.382  43.867  47.096  1.00  0.00     0.145 A
HETATM   13  N8  UNL     1      17.612  44.091  47.242  1.00  0.00    -0.383 N
ATOM     14  H81 UNL     1      18.341  43.489  46.859  1.00  0.00     0.157 HD
ATOM     15  H82 UNL     1      17.853  44.918  47.789  1.00  0.00     0.157 HD
HETATM   16  N9  UNL     1      13.001  45.085  47.818  1.00  0.00    -0.341 N
ATOM     17  H9  UNL     1      12.034  44.825  47.628  1.00  0.00     0.167 HD
ENDROOT
BRANCH   3  18
HETATM   18  N1  UNL     1      14.783  47.748  49.568  1.00  0.00    -0.264 N
ATOM     19  H1  UNL     1      15.133  48.591  49.112  1.00  0.00     0.190 HD
BRANCH  18  20
HETATM   20  N2  UNL     1      14.551  47.750  50.836  1.00  0.00    -0.206 N
ATOM     21  H2  UNL     1      14.053  48.529  51.268  1.00  0.00     0.216 HD
BRANCH  20  22
HETATM   22  O1  UNL     1      14.980  46.692  51.600  1.00  0.00    -0.263 OA
BRANCH  22  23
HETATM   23  C4  UNL     1      15.329  46.974  52.943  1.00  0.00     0.229 C
BRANCH  23  24
HETATM   24  C5  UNL     1      16.319  48.116  53.016  1.00  0.00     0.193 C
BRANCH  24  25
HETATM   25  O2  UNL     1      17.111  48.196  51.882  1.00  0.00    -0.399 OA
ATOM     26  H2  UNL     1      18.013  48.412  52.089  1.00  0.00     0.209 HD
ENDBRANCH  24  25
ENDBRANCH  23  24
ENDBRANCH  22  23
ENDBRANCH  20  22
ENDBRANCH  18  20
ENDBRANCH   3  18
BRANCH   4  27
HETATM   27  C6  UNL     1      17.019  46.317  48.696  1.00  0.00     0.361 C
BRANCH  27  28
HETATM   28  N4  UNL     1      17.254  45.666  50.046  1.00  0.00    -0.063 N
ATOM     29  H43 UNL     1      17.408  44.659  50.020  1.00  0.00     0.276 HD
ATOM     30  H42 UNL     1      18.148  45.888  50.485  1.00  0.00     0.276 HD
ATOM     31  H41 UNL     1      16.430  45.965  50.567  1.00  0.00     0.276 HD
ENDBRANCH  27  28
ENDBRANCH   4  27
BRANCH   9  32
HETATM   32  N6  UNL     1      14.541  41.356  45.418  1.00  0.00    -0.234 N
ATOM     33  H62 UNL     1      14.570  40.442  45.869  1.00  0.00     0.174 HD
ATOM     34  H61 UNL     1      14.316  41.393  44.423  1.00  0.00     0.174 HD
ENDBRANCH   9  32
TORSDOF 9
ENDMDL