MODEL 4
REMARK VINA RESULT: -7.468524472      3.566      5.971
REMARK  6 active torsions:
REMARK  status: ('A' for Active; 'I' for Inactive)
REMARK    1  A    between atoms: N1_1  and  C1_4
REMARK    2  A    between atoms: C3_11  and  C4_12
REMARK    3  A    between atoms: N8_22  and  C7_23
REMARK    4  A    between atoms: C7_23  and  C8_24
REMARK    5  A    between atoms: C8_24  and  C9_25
REMARK    6  A    between atoms: C9_25  and  N9_26
ROOT
HETATM    1  C4  UNL     1      16.370  45.740  47.659  1.00  0.00     0.127 A
HETATM    2  N5  UNL     1      16.287  45.298  48.955  1.00  0.00    -0.307 N
ATOM      3  H5  UNL     1      15.372  44.996  49.291  1.00  0.00     0.170 HD
HETATM    4  C5  UNL     1      17.298  45.231  49.807  1.00  0.00     0.279 A
HETATM    5  O1  UNL     1      17.172  44.820  50.980  1.00  0.00    -0.265 OA
HETATM    6  C6  UNL     1      18.533  45.639  49.352  1.00  0.00     0.163 A
HETATM    7  N6  UNL     1      19.768  45.709  49.928  1.00  0.00    -0.278 N
ATOM      8  H6  UNL     1      20.009  45.447  50.884  1.00  0.00     0.189 HD
HETATM    9  N7  UNL     1      20.586  46.182  49.013  1.00  0.00    -0.238 N
ATOM     10  H7  UNL     1      21.584  46.347  49.150  1.00  0.00     0.208 HD
HETATM   11  N8  UNL     1      19.921  46.413  47.880  1.00  0.00    -0.260 N
HETATM   12  C10 UNL     1      18.637  46.080  48.075  1.00  0.00     0.159 A
HETATM   13  N10 UNL     1      17.569  46.129  47.240  1.00  0.00    -0.324 N
ATOM     14  H10 UNL     1      17.687  46.466  46.284  1.00  0.00     0.169 HD
ENDROOT
BRANCH   1  15
HETATM   15  C3  UNL     1      15.166  45.754  46.845  1.00  0.00     0.095 A
HETATM   16  C1  UNL     1      14.026  46.494  47.117  1.00  0.00     0.131 A
HETATM   17  N2  UNL     1      13.096  46.258  46.132  1.00  0.00    -0.284 N
HETATM   18  N3  UNL     1      13.623  45.408  45.279  1.00  0.00    -0.285 N
ATOM     19  H2  UNL     1      12.165  46.668  46.074  1.00  0.00     0.188 HD
HETATM   20  C2  UNL     1      14.885  45.090  45.696  1.00  0.00     0.148 A
ATOM     21  H3  UNL     1      13.165  45.046  44.442  1.00  0.00     0.188 HD
HETATM   22  N4  UNL     1      15.711  44.199  44.989  1.00  0.00    -0.080 NA
BRANCH  16  23
HETATM   23  N1  UNL     1      13.742  47.289  48.061  1.00  0.00    -0.384 N
ATOM     24  H12 UNL     1      13.139  48.110  48.100  1.00  0.00     0.157 HD
ATOM     25  H11 UNL     1      14.156  47.141  48.982  1.00  0.00     0.157 HD
ENDBRANCH  16  23
ENDBRANCH   1  15
BRANCH  11  26
HETATM   26  C7  UNL     1      20.450  46.933  46.632  1.00  0.00     0.154 C
BRANCH  26  27
HETATM   27  C8  UNL     1      20.322  48.454  46.722  1.00  0.00     0.049 C
BRANCH  27  28
HETATM   28  C9  UNL     1      20.885  49.109  45.477  1.00  0.00     0.231 C
BRANCH  28  29
HETATM   29  N9  UNL     1      21.600  50.306  45.795  1.00  0.00    -0.079 N
ATOM     30  H93 UNL     1      21.053  50.920  46.398  1.00  0.00     0.274 HD
ATOM     31  H92 UNL     1      22.379  50.120  46.426  1.00  0.00     0.274 HD
ATOM     32  H91 UNL     1      21.909  50.790  44.952  1.00  0.00     0.274 HD
ENDBRANCH  28  29
ENDBRANCH  27  28
ENDBRANCH  26  27
ENDBRANCH  11  26
TORSDOF 6
ENDMDL