MODEL 2
REMARK VINA RESULT: -6.434605765      2.778      5.636
REMARK  7 active torsions:
REMARK  status: ('A' for Active; 'I' for Inactive)
REMARK    1  A    between atoms: O1_2  and  C2_3
REMARK    2  A    between atoms: C2_3  and  O2_4
REMARK    3  A    between atoms: O2_4  and  C3_5
REMARK    4  A    between atoms: C6_12  and  N3_13
REMARK    5  A    between atoms: C8_22  and  N6_23
REMARK    6  A    between atoms: N6_23  and  C9_26
REMARK    7  A    between atoms: C9_26  and  C10_27
ROOT
HETATM    1  C3  UNL     1      15.596  44.917  46.704  1.00  0.00     0.274 C
HETATM    2  N1  UNL     1      15.786  45.414  48.065  1.00  0.00    -0.353 N
ATOM      3  H1  UNL     1      16.660  45.860  48.344  1.00  0.00     0.162 HD
HETATM    4  C4  UNL     1      14.727  45.260  48.982  1.00  0.00     0.144 A
HETATM    5  C5  UNL     1      13.438  45.314  48.500  1.00  0.00     0.151 A
HETATM    6  N2  UNL     1      12.392  45.175  49.340  1.00  0.00    -0.175 N
ATOM      7  H2  UNL     1      11.435  45.213  48.991  1.00  0.00     0.186 HD
HETATM    8  C6  UNL     1      12.641  44.985  50.659  1.00  0.00     0.680 A
HETATM    9  N4  UNL     1      13.886  44.928  51.170  1.00  0.00    -0.154 N
ATOM     10  H4  UNL     1      14.027  44.784  52.170  1.00  0.00     0.187 HD
HETATM   11  C7  UNL     1      14.942  45.063  50.350  1.00  0.00     0.290 A
HETATM   12  O3  UNL     1      16.138  45.024  50.736  1.00  0.00    -0.265 OA
HETATM   13  N5  UNL     1      13.278  45.523  47.111  1.00  0.00    -0.343 N
ATOM     14  H5  UNL     1      12.347  45.770  46.776  1.00  0.00     0.163 HD
HETATM   15  C8  UNL     1      14.333  45.415  46.133  1.00  0.00     0.335 C
ENDROOT
BRANCH  15  16
HETATM   16  N6  UNL     1      13.781  44.548  45.091  1.00  0.00    -0.046 N
ATOM     17  H62 UNL     1      12.763  44.612  45.059  1.00  0.00     0.280 HD
ATOM     18  H61 UNL     1      13.994  44.908  44.161  1.00  0.00     0.280 HD
BRANCH  16  19
HETATM   19  C9  UNL     1      14.218  43.168  45.234  1.00  0.00     0.278 C
BRANCH  19  20
HETATM   20  C10 UNL     1      12.990  42.310  45.432  1.00  0.00     0.080 C
HETATM   21  N7  UNL     1      12.566  42.048  46.597  1.00  0.00    -0.410 N
ATOM     22  H72 UNL     1      13.070  42.428  47.399  1.00  0.00     0.155 HD
ATOM     23  H71 UNL     1      11.736  41.469  46.730  1.00  0.00     0.155 HD
ENDBRANCH  19  20
ENDBRANCH  16  19
ENDBRANCH  15  16
BRANCH   1  24
HETATM   24  O2  UNL     1      16.716  45.247  45.935  1.00  0.00    -0.339 OA
BRANCH  24  25
HETATM   25  C2  UNL     1      17.760  44.397  45.952  1.00  0.00     0.339 C
BRANCH  25  26
HETATM   26  O1  UNL     1      18.432  44.448  47.162  1.00  0.00    -0.372 OA
HETATM   27  C1  UNL     1      19.280  45.566  47.135  1.00  0.00     0.204 C
ENDBRANCH  25  26
ENDBRANCH  24  25
ENDBRANCH   1  24
BRANCH   8  28
HETATM   28  N3  UNL     1      11.661  44.836  51.451  1.00  0.00    -0.234 N
ATOM     29  H32 UNL     1      10.743  45.163  51.148  1.00  0.00     0.174 HD
ATOM     30  H31 UNL     1      11.825  44.410  52.363  1.00  0.00     0.174 HD
ENDBRANCH   8  28
TORSDOF 7
ENDMDL