MODEL 3
REMARK VINA RESULT: -7.805452123      1.662      6.403
REMARK  6 active torsions:
REMARK  status: ('A' for Active; 'I' for Inactive)
REMARK       I    between atoms: N2_4  and  C1_6
REMARK    1  A    between atoms: N4_8  and  C2_10
REMARK    2  A    between atoms: C2_10  and  C3_11
REMARK    3  A    between atoms: C3_11  and  C4_12
REMARK    4  A    between atoms: C4_12  and  O1_13
REMARK    5  A    between atoms: O1_13  and  C5_14
REMARK    6  A    between atoms: C8_26  and  N10_27
ROOT
HETATM    1  C5  UNL     1      16.960  44.761  47.384  1.00  0.00     0.158 A
HETATM    2  C6  UNL     1      17.081  44.638  46.015  1.00  0.00     0.169 A
HETATM    3  N5  UNL     1      18.281  44.333  45.280  1.00  0.00    -0.078 NA
HETATM    4  N6  UNL     1      15.857  44.861  45.519  1.00  0.00    -0.262 N
ATOM      5  H6  UNL     1      15.631  44.838  44.525  1.00  0.00     0.189 HD
HETATM    6  N7  UNL     1      14.970  45.118  46.477  1.00  0.00    -0.065 N
HETATM    7  C7  UNL     1      13.633  45.397  46.429  1.00  0.00     0.713 A
HETATM    8  N8  UNL     1      13.048  45.439  45.286  1.00  0.00    -0.232 N
ATOM      9  H81 UNL     1      12.050  45.648  45.250  1.00  0.00     0.174 HD
ATOM     10  H82 UNL     1      13.562  45.268  44.422  1.00  0.00     0.174 HD
HETATM   11  N9  UNL     1      12.957  45.622  47.564  1.00  0.00    -0.021 N
ATOM     12  H9  UNL     1      11.960  45.833  47.537  1.00  0.00     0.203 HD
HETATM   13  C8  UNL     1      13.609  45.567  48.736  1.00  0.00     0.692 A
HETATM   14  N11 UNL     1      14.922  45.292  48.770  1.00  0.00    -0.171 N
ATOM     15  H11 UNL     1      15.397  45.256  49.672  1.00  0.00     0.186 HD
HETATM   16  C9  UNL     1      15.636  45.060  47.644  1.00  0.00     0.197 A
ENDROOT
BRANCH   1  17
HETATM   17  O1  UNL     1      17.964  44.614  48.302  1.00  0.00    -0.344 OA
BRANCH  17  18
HETATM   18  C4  UNL     1      18.399  45.527  49.257  1.00  0.00     0.177 C
BRANCH  18  19
HETATM   19  C3  UNL     1      19.855  45.899  49.102  1.00  0.00     0.046 C
BRANCH  19  20
HETATM   20  C2  UNL     1      20.235  46.025  47.634  1.00  0.00     0.124 C
BRANCH  20  21
HETATM   21  N4  UNL     1      20.777  47.357  47.451  1.00  0.00    -0.363 N
HETATM   22  C1  UNL     1      19.990  48.351  47.129  1.00  0.00     0.202 C
HETATM   23  N2  UNL     1      20.489  49.659  46.942  1.00  0.00    -0.280 N
HETATM   24  N3  UNL     1      18.609  48.108  46.965  1.00  0.00    -0.062 NA
HETATM   25  N1  UNL     1      21.321  49.883  45.993  1.00  0.00    -0.343 N
ATOM     26  H2  UNL     1      20.190  50.417  47.556  1.00  0.00     0.189 HD
ATOM     27  H12 UNL     1      21.609  49.114  45.388  1.00  0.00     0.176 HD
ATOM     28  H11 UNL     1      21.681  50.828  45.858  1.00  0.00     0.176 HD
ATOM     29  H4  UNL     1      21.777  47.519  47.573  1.00  0.00     0.162 HD
ENDBRANCH  20  21
ENDBRANCH  19  20
ENDBRANCH  18  19
ENDBRANCH  17  18
ENDBRANCH   1  17
BRANCH  13  30
HETATM   30  N10 UNL     1      12.916  45.791  49.811  1.00  0.00    -0.234 N
ATOM     31 2H10 UNL     1      12.003  46.244  49.789  1.00  0.00     0.174 HD
ATOM     32 1H10 UNL     1      13.323  45.492  50.698  1.00  0.00     0.174 HD
ENDBRANCH  13  30
TORSDOF 6
ENDMDL