MODEL 1
REMARK VINA RESULT: -7.560180499      0.000      0.000
REMARK  7 active torsions:
REMARK  status: ('A' for Active; 'I' for Inactive)
REMARK    1  A    between atoms: N1_1  and  C1_4
REMARK    2  A    between atoms: C2_9  and  C3_10
REMARK    3  A    between atoms: C3_10  and  S1_11
REMARK    4  A    between atoms: S1_11  and  C4_12
REMARK    5  A    between atoms: C4_12  and  C5_13
REMARK    6  A    between atoms: C5_13  and  C6_14
REMARK    7  A    between atoms: C9_21  and  N7_22
ROOT
HETATM    1  C5  UNL     1      17.977  44.790  46.427  1.00  0.00     0.087 C
ENDROOT
BRANCH   1   2
HETATM    2  C4  UNL     1      17.979  45.701  47.657  1.00  0.00     0.082 C
BRANCH   2   3
HETATM    3  S1  UNL     1      19.671  45.960  48.254  1.00  0.00    -0.161 SA
BRANCH   3   4
HETATM    4  C3  UNL     1      20.739  46.121  46.787  1.00  0.00     0.160 C
BRANCH   4   5
HETATM    5  C2  UNL     1      20.759  47.565  46.431  1.00  0.00     0.151 A
HETATM    6  N3  UNL     1      20.560  48.632  47.211  1.00  0.00    -0.279 N
HETATM    7  N2  UNL     1      20.665  49.733  46.496  1.00  0.00    -0.263 N
ATOM      8  H3  UNL     1      20.358  48.599  48.211  1.00  0.00     0.189 HD
HETATM    9  C1  UNL     1      20.939  49.324  45.241  1.00  0.00     0.238 A
ATOM     10  H2  UNL     1      20.562  50.694  46.823  1.00  0.00     0.190 HD
HETATM   11  O1  UNL     1      20.990  48.014  45.228  1.00  0.00    -0.263 OA
BRANCH   9  12
HETATM   12  N1  UNL     1      21.110  50.131  44.258  1.00  0.00    -0.364 N
ATOM     13  H12 UNL     1      20.496  50.885  43.949  1.00  0.00     0.159 HD
ATOM     14  H11 UNL     1      21.926  50.104  43.647  1.00  0.00     0.159 HD
ENDBRANCH   9  12
ENDBRANCH   4   5
ENDBRANCH   3   4
ENDBRANCH   2   3
ENDBRANCH   1   2
BRANCH   1  15
HETATM   15  C6  UNL     1      16.585  44.325  46.170  1.00  0.00     0.084 A
HETATM   16  N4  UNL     1      16.289  43.028  46.283  1.00  0.00    -0.333 N
HETATM   17  C7  UNL     1      15.067  42.532  46.067  1.00  0.00     0.145 A
ATOM     18  H4  UNL     1      17.033  42.383  46.547  1.00  0.00     0.168 HD
HETATM   19  N5  UNL     1      14.894  41.142  46.222  1.00  0.00    -0.081 NA
HETATM   20  C8  UNL     1      14.060  43.394  45.712  1.00  0.00     0.131 A
HETATM   21  N6  UNL     1      12.762  42.887  45.479  1.00  0.00    -0.095 NA
HETATM   22  C9  UNL     1      14.367  44.731  45.597  1.00  0.00     0.128 A
HETATM   23  N8  UNL     1      15.624  45.179  45.827  1.00  0.00    -0.331 N
ATOM     24  H8  UNL     1      15.834  46.173  45.737  1.00  0.00     0.168 HD
BRANCH  22  25
HETATM   25  N7  UNL     1      13.467  45.590  45.266  1.00  0.00    -0.384 N
ATOM     26  H72 UNL     1      13.350  45.808  44.276  1.00  0.00     0.157 HD
ATOM     27  H71 UNL     1      12.886  46.040  45.975  1.00  0.00     0.157 HD
ENDBRANCH  22  25
ENDBRANCH   1  15
TORSDOF 7
ENDMDL