MODEL 1
REMARK VINA RESULT: -7.246466179      0.000      0.000
REMARK  7 active torsions:
REMARK  status: ('A' for Active; 'I' for Inactive)
REMARK    1  A    between atoms: C2_2  and  N1_3
REMARK    2  A    between atoms: C2_2  and  N2_7
REMARK    3  A    between atoms: C3_9  and  C4_10
REMARK    4  A    between atoms: C4_10  and  N3_11
REMARK    5  A    between atoms: C4_10  and  C9_28
REMARK    6  A    between atoms: N4_13  and  C5_15
REMARK    7  A    between atoms: C7_20  and  N7_21
ROOT
HETATM    1  N3  UNL     1      17.404  46.721  47.676  1.00  0.00    -0.316 N
ATOM      2  H3  UNL     1      17.898  47.613  47.702  1.00  0.00     0.181 HD
HETATM    3  N4  UNL     1      16.313  46.709  47.082  1.00  0.00    -0.296 N
ATOM      4  H4  UNL     1      16.005  47.591  46.672  1.00  0.00     0.187 HD
ENDROOT
BRANCH   1   5
HETATM    5  C4  UNL     1      18.044  45.618  48.328  1.00  0.00     0.238 C
BRANCH   5   6
HETATM    6  C3  UNL     1      19.503  45.823  48.237  1.00  0.00     0.095 C
HETATM    7  N2  UNL     1      20.172  45.897  49.309  1.00  0.00    -0.373 N
ATOM      8  H2  UNL     1      19.652  45.810  50.182  1.00  0.00     0.160 HD
BRANCH   7   9
HETATM    9  C2  UNL     1      21.568  46.090  49.418  1.00  0.00     0.277 C
HETATM   10  C1  UNL     1      22.162  45.933  48.028  1.00  0.00     0.063 C
BRANCH   9  11
HETATM   11  N1  UNL     1      21.938  47.351  50.019  1.00  0.00    -0.059 N
ATOM     12  H13 UNL     1      21.992  48.093  49.321  1.00  0.00     0.276 HD
ATOM     13  H12 UNL     1      21.183  47.727  50.592  1.00  0.00     0.276 HD
ATOM     14  H11 UNL     1      22.806  47.276  50.549  1.00  0.00     0.276 HD
ENDBRANCH   9  11
ENDBRANCH   7   9
ENDBRANCH   5   6
BRANCH   5  15
HETATM   15  C9  UNL     1      17.707  45.552  49.782  1.00  0.00     0.203 C
HETATM   16  O2  UNL     1      17.181  46.563  50.316  1.00  0.00    -0.646 OA
HETATM   17  O3  UNL     1      17.944  44.442  50.558  1.00  0.00    -0.646 OA
ENDBRANCH   5  15
ENDBRANCH   1   5
BRANCH   3  18
HETATM   18  C5  UNL     1      15.457  45.604  46.916  1.00  0.00     0.158 A
HETATM   19  C6  UNL     1      14.351  45.527  47.755  1.00  0.00     0.165 A
HETATM   20  N5  UNL     1      14.103  46.527  48.735  1.00  0.00    -0.079 NA
HETATM   21  N6  UNL     1      13.547  44.461  47.577  1.00  0.00    -0.176 N
HETATM   22  C7  UNL     1      13.801  43.524  46.641  1.00  0.00     0.680 A
ATOM     23  H6  UNL     1      12.721  44.359  48.168  1.00  0.00     0.185 HD
HETATM   24  N8  UNL     1      14.868  43.583  45.822  1.00  0.00    -0.154 N
HETATM   25  C8  UNL     1      15.699  44.631  45.963  1.00  0.00     0.291 A
ATOM     26  H8  UNL     1      15.039  42.861  45.122  1.00  0.00     0.187 HD
HETATM   27  O1  UNL     1      16.698  44.696  45.202  1.00  0.00    -0.265 OA
BRANCH  22  28
HETATM   28  N7  UNL     1      13.005  42.524  46.510  1.00  0.00    -0.234 N
ATOM     29  H72 UNL     1      12.049  42.717  46.208  1.00  0.00     0.174 HD
ATOM     30  H71 UNL     1      13.341  41.582  46.707  1.00  0.00     0.174 HD
ENDBRANCH  22  28
ENDBRANCH   3  18
TORSDOF 7
ENDMDL