MODEL 5
REMARK VINA RESULT: -6.885181937      4.516      7.461
REMARK  9 active torsions:
REMARK  status: ('A' for Active; 'I' for Inactive)
REMARK    1  A    between atoms: C1_4  and  C2_5
REMARK    2  A    between atoms: C2_5  and  O1_6
REMARK    3  A    between atoms: O1_6  and  C3_7
REMARK    4  A    between atoms: C4_10  and  N3_11
REMARK    5  A    between atoms: C5_16  and  N5_17
REMARK    6  A    between atoms: C6_20  and  N6_21
REMARK    7  A    between atoms: N7_23  and  N8_25
REMARK    8  A    between atoms: N8_25  and  C7_27
REMARK    9  A    between atoms: C8_33  and  N11_34
ROOT
HETATM    1  C3  UNL     1      14.984  46.770  47.865  1.00  0.00     0.190 A
HETATM    2  N2  UNL     1      15.132  47.154  49.153  1.00  0.00    -0.168 N
ATOM      3  H2  UNL     1      16.069  47.201  49.554  1.00  0.00     0.186 HD
HETATM    4  C4  UNL     1      14.072  47.475  49.919  1.00  0.00     0.679 A
HETATM    5  N4  UNL     1      12.821  47.428  49.436  1.00  0.00    -0.175 N
ATOM      6  H4  UNL     1      12.020  47.671  50.018  1.00  0.00     0.186 HD
HETATM    7  C5  UNL     1      12.662  47.044  48.145  1.00  0.00     0.147 A
HETATM    8  C6  UNL     1      13.714  46.710  47.334  1.00  0.00     0.145 A
ENDROOT
BRANCH   8   9
HETATM    9  N6  UNL     1      13.518  46.311  45.983  1.00  0.00    -0.279 N
HETATM   10  N7  UNL     1      13.344  45.148  45.576  1.00  0.00    -0.240 N
ATOM     11  H7  UNL     1      13.218  45.031  44.571  1.00  0.00     0.208 HD
ATOM     12  H6  UNL     1      13.520  47.050  45.280  1.00  0.00     0.189 HD
BRANCH  10  13
HETATM   13  N8  UNL     1      13.302  43.997  46.344  1.00  0.00    -0.266 N
ATOM     14  H8  UNL     1      12.735  44.007  47.191  1.00  0.00     0.190 HD
BRANCH  13  15
HETATM   15  C7  UNL     1      13.935  42.916  46.054  1.00  0.00     0.189 A
HETATM   16  N9  UNL     1      13.593  41.893  45.252  1.00  0.00    -0.221 N
HETATM   17  O2  UNL     1      14.550  41.009  45.260  1.00  0.00    -0.153 OA
ATOM     18  H9  UNL     1      12.723  41.819  44.723  1.00  0.00     0.198 HD
HETATM   19  N10 UNL     1      15.517  41.389  46.027  1.00  0.00    -0.222 N
HETATM   20  C8  UNL     1      15.179  42.586  46.551  1.00  0.00     0.169 A
ATOM     21  H10 UNL     1      16.382  40.876  46.205  1.00  0.00     0.198 HD
BRANCH  20  22
HETATM   22  N11 UNL     1      15.906  43.273  47.367  1.00  0.00    -0.381 N
ATOM     23 2H11 UNL     1      15.923  44.292  47.425  1.00  0.00     0.157 HD
ATOM     24 1H11 UNL     1      16.561  42.919  48.065  1.00  0.00     0.157 HD
ENDBRANCH  20  22
ENDBRANCH  13  15
ENDBRANCH  10  13
ENDBRANCH   8   9
BRANCH   1  25
HETATM   25  O1  UNL     1      16.107  46.445  47.107  1.00  0.00    -0.328 OA
BRANCH  25  26
HETATM   26  C2  UNL     1      17.394  46.999  47.386  1.00  0.00     0.221 C
BRANCH  26  27
HETATM   27  C1  UNL     1      18.298  45.920  47.803  1.00  0.00     0.079 C
HETATM   28  N1  UNL     1      19.318  45.546  47.124  1.00  0.00    -0.409 N
ATOM     29  H12 UNL     1      19.497  46.036  46.247  1.00  0.00     0.155 HD
ATOM     30  H11 UNL     1      19.947  44.797  47.413  1.00  0.00     0.155 HD
ENDBRANCH  26  27
ENDBRANCH  25  26
ENDBRANCH   1  25
BRANCH   7  31
HETATM   31  N5  UNL     1      11.484  46.986  47.646  1.00  0.00    -0.383 N
ATOM     32  H52 UNL     1      11.098  47.839  47.241  1.00  0.00     0.157 HD
ATOM     33  H51 UNL     1      10.972  46.103  47.668  1.00  0.00     0.157 HD
ENDBRANCH   7  31
BRANCH   4  34
HETATM   34  N3  UNL     1      14.249  47.845  51.165  1.00  0.00    -0.234 N
ATOM     35  H32 UNL     1      15.024  47.438  51.689  1.00  0.00     0.174 HD
ATOM     36  H31 UNL     1      13.619  48.525  51.592  1.00  0.00     0.174 HD
ENDBRANCH   4  34
TORSDOF 9
ENDMDL