MODEL 4
REMARK VINA RESULT: -6.227173753      2.677      4.016
REMARK  9 active torsions:
REMARK  status: ('A' for Active; 'I' for Inactive)
REMARK    1  A    between atoms: N1_1  and  C1_4
REMARK    2  A    between atoms: C4_11  and  S1_12
REMARK    3  A    between atoms: S1_12  and  C5_13
REMARK    4  A    between atoms: C5_13  and  C6_14
REMARK    5  A    between atoms: C6_14  and  C7_15
REMARK    6  A    between atoms: C7_15  and  C8_16
REMARK    7  A    between atoms: C8_16  and  N4_17
REMARK    8  A    between atoms: C9_23  and  N6_24
REMARK    9  A    between atoms: N7_27  and  N8_28
ROOT
HETATM    1  C1  UNL     1      12.274  46.709  47.196  1.00  0.00     0.692 A
HETATM    2  N2  UNL     1      13.314  47.009  48.163  1.00  0.00    -0.183 N
ATOM      3  H2  UNL     1      13.083  47.535  49.006  1.00  0.00     0.184 HD
HETATM    4  C2  UNL     1      14.641  46.579  47.948  1.00  0.00     0.140 A
HETATM    5  C3  UNL     1      14.956  45.860  46.797  1.00  0.00     0.178 A
HETATM    6  N3  UNL     1      16.239  45.437  46.578  1.00  0.00    -0.318 N
ATOM      7  H3  UNL     1      16.455  44.911  45.732  1.00  0.00     0.169 HD
HETATM    8  C4  UNL     1      17.220  45.701  47.456  1.00  0.00     0.147 A
HETATM    9  N5  UNL     1      16.936  46.388  48.564  1.00  0.00    -0.321 N
ATOM     10  H5  UNL     1      17.681  46.588  49.232  1.00  0.00     0.169 HD
HETATM   11  C9  UNL     1      15.659  46.835  48.828  1.00  0.00     0.132 A
HETATM   12  N7  UNL     1      13.948  45.566  45.855  1.00  0.00    -0.169 N
HETATM   13  N9  UNL     1      12.633  45.981  46.048  1.00  0.00    -0.110 N
ATOM     14  H9  UNL     1      11.924  45.756  45.351  1.00  0.00     0.208 HD
ENDROOT
BRANCH   8  15
HETATM   15  S1  UNL     1      18.877  45.103  47.090  1.00  0.00    -0.094 SA
BRANCH  15  16
HETATM   16  C5  UNL     1      20.065  46.508  47.106  1.00  0.00     0.082 C
BRANCH  16  17
HETATM   17  C6  UNL     1      21.453  45.981  47.065  1.00  0.00     0.012 C
BRANCH  17  18
HETATM   18  C7  UNL     1      22.153  45.765  48.358  1.00  0.00     0.028 C
BRANCH  18  19
HETATM   19  C8  UNL     1      21.434  46.170  49.599  1.00  0.00     0.229 C
BRANCH  19  20
HETATM   20  N4  UNL     1      21.888  47.369  50.237  1.00  0.00    -0.079 N
ATOM     21  H43 UNL     1      22.346  47.137  51.117  1.00  0.00     0.274 HD
ATOM     22  H42 UNL     1      22.674  47.758  49.716  1.00  0.00     0.274 HD
ATOM     23  H41 UNL     1      21.187  48.092  50.394  1.00  0.00     0.274 HD
ENDBRANCH  19  20
ENDBRANCH  18  19
ENDBRANCH  17  18
ENDBRANCH  16  17
ENDBRANCH  15  16
ENDBRANCH   8  15
BRANCH  11  24
HETATM   24  N6  UNL     1      15.439  47.489  49.901  1.00  0.00    -0.383 N
ATOM     25  H62 UNL     1      15.313  46.978  50.775  1.00  0.00     0.157 HD
ATOM     26  H61 UNL     1      15.391  48.507  49.888  1.00  0.00     0.157 HD
ENDBRANCH  11  24
BRANCH  12  27
HETATM   27  N8  UNL     1      14.305  44.843  44.711  1.00  0.00    -0.322 N
ATOM     28  H82 UNL     1      14.584  43.865  44.783  1.00  0.00     0.179 HD
ATOM     29  H81 UNL     1      14.276  45.323  43.812  1.00  0.00     0.179 HD
ENDBRANCH  12  27
BRANCH   1  30
HETATM   30  N1  UNL     1      11.081  47.103  47.400  1.00  0.00    -0.233 N
ATOM     31  H12 UNL     1      10.503  47.489  46.653  1.00  0.00     0.174 HD
ATOM     32  H11 UNL     1      10.674  47.038  48.333  1.00  0.00     0.174 HD
ENDBRANCH   1  30
TORSDOF 9
ENDMDL