MODEL 3
REMARK VINA RESULT: -7.434657577      1.700      2.222
REMARK  7 active torsions:
REMARK  status: ('A' for Active; 'I' for Inactive)
REMARK    1  A    between atoms: C2_2  and  C3_3
REMARK    2  A    between atoms: C3_3  and  C4_4
REMARK    3  A    between atoms: C4_4  and  C5_5
REMARK    4  A    between atoms: C5_5  and  C6_6
REMARK    5  A    between atoms: N2_11  and  C8_13
REMARK    6  A    between atoms: C9_17  and  O2_18
REMARK    7  A    between atoms: C10_23  and  N6_24
ROOT
HETATM    1  C8  UNL     1      19.375  46.328  47.147  1.00  0.00     0.339 C
HETATM    2  N3  UNL     1      19.969  45.489  46.103  1.00  0.00    -0.006 N
ATOM      3  H31 UNL     1      19.575  45.720  45.191  1.00  0.00     0.285 HD
ATOM      4  H32 UNL     1      19.645  44.526  46.191  1.00  0.00     0.285 HD
HETATM    5  C9  UNL     1      21.391  45.537  46.059  1.00  0.00     0.440 C
HETATM    6  N4  UNL     1      21.939  45.397  47.365  1.00  0.00    -0.286 N
ATOM      7  H4  UNL     1      22.562  44.630  47.618  1.00  0.00     0.180 HD
HETATM    8  N5  UNL     1      21.564  46.374  48.260  1.00  0.00    -0.105 NA
HETATM    9  C10 UNL     1      20.437  47.159  47.836  1.00  0.00     0.345 C
ENDROOT
BRANCH   1  10
HETATM   10  N2  UNL     1      18.685  45.589  48.118  1.00  0.00    -0.337 N
HETATM   11  C7  UNL     1      17.659  44.867  48.092  1.00  0.00     0.194 A
HETATM   12  O1  UNL     1      17.174  44.245  49.176  1.00  0.00    -0.218 OA
HETATM   13  C11 UNL     1      16.810  44.521  47.078  1.00  0.00     0.123 A
HETATM   14  N1  UNL     1      16.126  43.572  48.891  1.00  0.00    -0.261 N
HETATM   15  C6  UNL     1      15.828  43.692  47.588  1.00  0.00     0.061 A
ATOM     16  H1  UNL     1      15.590  43.021  49.560  1.00  0.00     0.194 HD
HETATM   17  N7  UNL     1      16.859  44.906  45.721  1.00  0.00    -0.096 NA
ATOM     18  H2  UNL     1      19.108  45.652  49.045  1.00  0.00     0.163 HD
BRANCH  15  19
HETATM   19  C5  UNL     1      14.711  43.090  46.812  1.00  0.00     0.061 C
BRANCH  19  20
HETATM   20  C4  UNL     1      15.118  41.811  46.140  1.00  0.00     0.006 C
BRANCH  20  21
HETATM   21  C3  UNL     1      14.147  41.387  45.067  1.00  0.00     0.000 C
BRANCH  21  22
HETATM   22  C2  UNL     1      12.908  42.232  45.043  1.00  0.00    -0.005 C
HETATM   23  C1  UNL     1      11.721  41.439  45.546  1.00  0.00     0.005 C
ENDBRANCH  21  22
ENDBRANCH  20  21
ENDBRANCH  19  20
ENDBRANCH  15  19
ENDBRANCH   1  10
BRANCH   9  24
HETATM   24  N6  UNL     1      20.838  48.318  47.075  1.00  0.00    -0.056 N
ATOM     25  H63 UNL     1      21.577  48.831  47.558  1.00  0.00     0.276 HD
ATOM     26  H62 UNL     1      21.347  48.042  46.235  1.00  0.00     0.276 HD
ATOM     27  H61 UNL     1      20.062  48.936  46.842  1.00  0.00     0.276 HD
ENDBRANCH   9  24
BRANCH   5  28
HETATM   28  O2  UNL     1      21.811  44.407  45.319  1.00  0.00    -0.354 OA
ATOM     29  H2  UNL     1      21.756  43.662  45.905  1.00  0.00     0.214 HD
ENDBRANCH   5  28
TORSDOF 7
ENDMDL