MODEL 1
REMARK VINA RESULT: -8.775693970      0.000      0.000
REMARK  12 active torsions:
REMARK  status: ('A' for Active; 'I' for Inactive)
REMARK    1  A    between atoms: C5_7  and  N2_8
REMARK    2  A    between atoms: C6_13  and  C7_14
REMARK    3  A    between atoms: C7_14  and  N5_15
REMARK    4  A    between atoms: C7_14  and  C12_26
REMARK    5  A    between atoms: N5_15  and  C8_17
REMARK    6  A    between atoms: C12_26  and  N13_40
REMARK    7  A    between atoms: N8_27  and  N9_29
REMARK    8  A    between atoms: N9_29  and  C13_31
REMARK    9  A    between atoms: N13_40  and  O2_42
REMARK   10  A    between atoms: O2_42  and  C17_43
REMARK   11  A    between atoms: C17_43  and  C18_45
REMARK   12  A    between atoms: C18_45  and  O4_47
ROOT
HETATM    1  C13 UNL     1      13.201   8.491   5.747  1.00  0.00     0.166 A
HETATM    2  N10 UNL     1      13.561   7.969   4.576  1.00  0.00    -0.322 N
ATOM      3  H10 UNL     1      14.463   8.203   4.160  1.00  0.00     0.169 HD
HETATM    4  C14 UNL     1      12.746   7.158   3.971  1.00  0.00     0.146 A
HETATM    5  N11 UNL     1      13.029   6.523   2.685  1.00  0.00    -0.080 NA
HETATM    6  C15 UNL     1      11.548   6.883   4.583  1.00  0.00     0.129 A
HETATM    7  C16 UNL     1      10.466   6.017   4.123  1.00  0.00     0.110 C
HETATM    8  N12 UNL     1       9.606   5.328   3.778  1.00  0.00    -0.191 NA
HETATM    9  S1  UNL     1      11.657   7.815   6.008  1.00  0.00    -0.038 SA
ENDROOT
BRANCH   1  10
HETATM   10  N9  UNL     1      13.897   9.325   6.494  1.00  0.00    -0.278 N
ATOM     11  H9  UNL     1      13.447  10.118   6.952  1.00  0.00     0.189 HD
BRANCH  10  12
HETATM   12  N8  UNL     1      15.267   9.093   6.640  1.00  0.00    -0.283 N
HETATM   13  C12 UNL     1      15.734   8.661   7.752  1.00  0.00     0.147 C
ATOM     14  H8  UNL     1      15.897   9.267   5.858  1.00  0.00     0.188 HD
BRANCH  13  15
HETATM   15  C7  UNL     1      14.860   8.392   8.914  1.00  0.00     0.240 C
BRANCH  15  16
HETATM   16  C6  UNL     1      14.196   7.063   8.713  1.00  0.00     0.145 A
HETATM   17  N4  UNL     1      13.078   6.705   9.355  1.00  0.00    -0.270 N
HETATM   18  N3  UNL     1      12.759   5.497   8.985  1.00  0.00    -0.219 N
ATOM     19  H4  UNL     1      12.562   7.281  10.021  1.00  0.00     0.190 HD
HETATM   20  N2  UNL     1      13.655   5.077   8.116  1.00  0.00    -0.172 N
ATOM     21  H3  UNL     1      11.953   4.967   9.312  1.00  0.00     0.210 HD
HETATM   22  N14 UNL     1      14.547   6.037   7.942  1.00  0.00    -0.262 N
ATOM     23  H14 UNL     1      15.360   5.998   7.327  1.00  0.00     0.190 HD
BRANCH  20  24
HETATM   24  C5  UNL     1      13.643   3.782   7.477  1.00  0.00     0.141 A
HETATM   25  C3  UNL     1      14.284   2.622   7.819  1.00  0.00     0.043 A
HETATM   26  N1  UNL     1      14.100   1.588   7.062  1.00  0.00    -0.355 N
HETATM   27  C4  UNL     1      15.175   2.583   9.046  1.00  0.00     0.071 C
HETATM   28  C2  UNL     1      13.315   1.673   6.004  1.00  0.00     0.049 A
ATOM     29  H1  UNL     1      14.562   0.706   7.283  1.00  0.00     0.166 HD
HETATM   30  C1  UNL     1      12.961   0.608   4.994  1.00  0.00     0.076 C
HETATM   31  S2  UNL     1      12.801   3.313   6.071  1.00  0.00    -0.054 SA
ENDBRANCH  20  24
ENDBRANCH  15  16
BRANCH  15  32
HETATM   32  N5  UNL     1      15.668   8.301  10.102  1.00  0.00    -0.207 N
ATOM     33  H5  UNL     1      16.274   7.486  10.188  1.00  0.00     0.179 HD
BRANCH  32  34
HETATM   34  C8  UNL     1      15.697   9.239  11.163  1.00  0.00     0.681 A
HETATM   35  N6  UNL     1      16.766  10.062  11.288  1.00  0.00    -0.156 N
HETATM   36  C9  UNL     1      16.820  10.986  12.289  1.00  0.00     0.260 A
ATOM     37  H6  UNL     1      17.538   9.990  10.626  1.00  0.00     0.187 HD
HETATM   38  O1  UNL     1      17.815  11.744  12.396  1.00  0.00    -0.268 OA
HETATM   39  C10 UNL     1      15.786  11.093  13.188  1.00  0.00     0.092 A
HETATM   40  C11 UNL     1      14.714  10.248  13.042  1.00  0.00     0.111 A
HETATM   41  N7  UNL     1      14.684   9.326  12.025  1.00  0.00    -0.202 N
ATOM     42  H7  UNL     1      13.881   8.705  11.928  1.00  0.00     0.183 HD
ENDBRANCH  32  34
ENDBRANCH  15  32
ENDBRANCH  13  15
BRANCH  13  43
HETATM   43  N13 UNL     1      17.131   8.435   7.866  1.00  0.00    -0.241 N
ATOM     44  H13 UNL     1      17.773   9.221   7.763  1.00  0.00     0.196 HD
BRANCH  43  45
HETATM   45  O2  UNL     1      17.644   7.167   8.115  1.00  0.00    -0.196 OA
BRANCH  45  46
HETATM   46  C17 UNL     1      18.670   6.984   9.037  1.00  0.00     0.309 C
HETATM   47  O3  UNL     1      18.781   7.859   9.933  1.00  0.00    -0.260 OA
BRANCH  46  48
HETATM   48  C18 UNL     1      19.601   5.820   8.983  1.00  0.00     0.215 C
HETATM   49  C19 UNL     1      19.237   4.978   7.764  1.00  0.00     0.050 C
BRANCH  48  50
HETATM   50  O4  UNL     1      20.915   6.202   8.892  1.00  0.00    -0.386 OA
ATOM     51  H4  UNL     1      21.383   5.735   8.210  1.00  0.00     0.210 HD
ENDBRANCH  48  50
ENDBRANCH  46  48
ENDBRANCH  45  46
ENDBRANCH  43  45
ENDBRANCH  13  43
ENDBRANCH  10  12
ENDBRANCH   1  10
TORSDOF 12
ENDMDL