MODEL 3
REMARK VINA RESULT: -8.393566491      1.274      1.513
REMARK  11 active torsions:
REMARK  status: ('A' for Active; 'I' for Inactive)
REMARK    1  A    between atoms: C3_4  and  N2_5
REMARK    2  A    between atoms: N2_5  and  C4_7
REMARK    3  A    between atoms: C4_7  and  O1_8
REMARK    4  A    between atoms: C4_7  and  C5_10
REMARK    5  A    between atoms: N3_12  and  N4_13
REMARK    6  A    between atoms: C11_29  and  S1_30
REMARK    7  A    between atoms: S1_30  and  N9_31
REMARK    8  A    between atoms: C12_37  and  N10_38
REMARK    9  A    between atoms: C13_42  and  C14_43
REMARK   10  A    between atoms: C14_43  and  O6_44
REMARK   11  A    between atoms: O6_44  and  N12_45
ROOT
HETATM    1  N1  UNL     1      23.409   6.530  12.032  1.00  0.00    -0.191 NA
HETATM    2  C1  UNL     1      22.367   6.870  11.676  1.00  0.00     0.105 C
HETATM    3  C2  UNL     1      21.067   7.318  11.220  1.00  0.00     0.115 A
HETATM    4  C3  UNL     1      20.433   8.324  11.867  1.00  0.00     0.127 A
HETATM    5  N7  UNL     1      19.211   8.771  11.466  1.00  0.00    -0.340 N
ATOM      6  H7  UNL     1      18.757   9.531  11.972  1.00  0.00     0.167 HD
HETATM    7  C7  UNL     1      18.603   8.218  10.412  1.00  0.00     0.067 A
HETATM    8  C8  UNL     1      19.237   7.179   9.728  1.00  0.00     0.087 A
HETATM    9  C9  UNL     1      18.588   6.633   8.653  1.00  0.00     0.260 A
HETATM   10  O2  UNL     1      19.131   5.698   8.015  1.00  0.00    -0.267 OA
HETATM   11  N8  UNL     1      17.392   7.099   8.298  1.00  0.00    -0.320 N
ATOM     12  H8  UNL     1      16.936   6.671   7.492  1.00  0.00     0.169 HD
HETATM   13  C10 UNL     1      16.738   8.109   8.938  1.00  0.00     0.081 A
HETATM   14  C11 UNL     1      15.506   8.547   8.536  1.00  0.00     0.149 A
HETATM   15  S2  UNL     1      15.139   9.772   9.631  1.00  0.00    -0.053 SA
HETATM   16  C12 UNL     1      16.603   9.694  10.602  1.00  0.00     0.124 A
HETATM   17  C15 UNL     1      17.317   8.701  10.014  1.00  0.00     0.057 A
HETATM   18  C16 UNL     1      20.480   6.703  10.111  1.00  0.00     0.068 A
HETATM   19  N13 UNL     1      21.095   5.790   9.553  1.00  0.00    -0.397 N
ATOM     20 1H13 UNL     1      20.667   5.340   8.743  1.00  0.00     0.156 HD
ATOM     21 2H13 UNL     1      22.010   5.439   9.834  1.00  0.00     0.156 HD
ENDROOT
BRANCH   4  22
HETATM   22  N2  UNL     1      21.006   8.948  13.019  1.00  0.00    -0.344 N
ATOM     23  H2  UNL     1      20.664   8.698  13.947  1.00  0.00     0.164 HD
BRANCH  22  24
HETATM   24  C4  UNL     1      22.047   9.913  12.889  1.00  0.00     0.273 C
BRANCH  24  25
HETATM   25  O1  UNL     1      22.885   9.923  14.026  1.00  0.00    -0.371 OA
ATOM     26  H1  UNL     1      23.599  10.542  13.925  1.00  0.00     0.212 HD
ENDBRANCH  24  25
BRANCH  24  27
HETATM   27  C5  UNL     1      21.435  11.266  12.729  1.00  0.00     0.094 A
HETATM   28  C6  UNL     1      21.914  12.303  11.960  1.00  0.00     0.168 A
HETATM   29  N3  UNL     1      21.066  13.361  12.087  1.00  0.00    -0.198 N
HETATM   30  N5  UNL     1      20.118  12.957  12.906  1.00  0.00    -0.222 N
HETATM   31  N6  UNL     1      20.312  11.719  13.301  1.00  0.00    -0.283 N
ATOM     32  H5  UNL     1      19.330  13.534  13.198  1.00  0.00     0.210 HD
ATOM     33  H6  UNL     1      19.710  11.193  13.935  1.00  0.00     0.188 HD
BRANCH  29  34
HETATM   34  N4  UNL     1      21.206  14.599  11.464  1.00  0.00    -0.323 N
ATOM     35  H42 UNL     1      20.662  14.990  10.695  1.00  0.00     0.179 HD
ATOM     36  H41 UNL     1      21.897  15.312  11.698  1.00  0.00     0.179 HD
ENDBRANCH  29  34
ENDBRANCH  24  27
ENDBRANCH  22  24
ENDBRANCH   4  22
BRANCH  16  37
HETATM   37  N10 UNL     1      16.735  10.592  11.717  1.00  0.00    -0.173 N
HETATM   38  O5  UNL     1      17.176  11.726  12.088  1.00  0.00    -0.146 OA
HETATM   39  N11 UNL     1      16.869  11.586  13.308  1.00  0.00    -0.224 N
HETATM   40  C13 UNL     1      16.375  10.376  13.026  1.00  0.00     0.161 A
ATOM     41  H11 UNL     1      16.960  12.154  14.150  1.00  0.00     0.198 HD
BRANCH  40  42
HETATM   42  C14 UNL     1      15.728   9.291  13.798  1.00  0.00     0.288 C
BRANCH  42  43
HETATM   43  O6  UNL     1      16.575   8.894  14.856  1.00  0.00    -0.214 OA
BRANCH  43  44
HETATM   44  N12 UNL     1      17.929   8.746  14.739  1.00  0.00     0.005 N
HETATM   45  O7  UNL     1      18.764   9.630  15.003  1.00  0.00    -0.511 OA
HETATM   46  O8  UNL     1      18.407   7.536  14.299  1.00  0.00    -0.511 OA
ENDBRANCH  43  44
ENDBRANCH  42  43
ENDBRANCH  40  42
ENDBRANCH  16  37
BRANCH  14  47
HETATM   47  S1  UNL     1      14.481   7.983   7.191  1.00  0.00     0.265 S
HETATM   48  O3  UNL     1      15.030   6.699   6.667  1.00  0.00    -0.200 OA
HETATM   49  O4  UNL     1      13.117   7.681   7.806  1.00  0.00    -0.200 OA
BRANCH  47  50
HETATM   50  N9  UNL     1      14.308   9.169   5.978  1.00  0.00    -0.324 N
ATOM     51  H92 UNL     1      14.667  10.120   6.072  1.00  0.00     0.169 HD
ATOM     52  H91 UNL     1      13.807   8.814   5.163  1.00  0.00     0.169 HD
ENDBRANCH  47  50
ENDBRANCH  14  47
TORSDOF 11
ENDMDL