MODEL 2
REMARK VINA RESULT: -7.142489999      3.389     10.532
REMARK  15 active torsions:
REMARK  status: ('A' for Active; 'I' for Inactive)
REMARK    1  A    between atoms: O1_2  and  N1_3
REMARK    2  A    between atoms: C2_5  and  O2_6
REMARK    3  A    between atoms: C2_5  and  C6_17
REMARK    4  A    between atoms: O2_6  and  C3_7
REMARK    5  A    between atoms: C3_7  and  N3_11
REMARK       I    between atoms: N3_11  and  C4_13
REMARK    6  A    between atoms: C4_13  and  O4_15
REMARK    7  A    between atoms: C6_17  and  O6_19
REMARK    8  A    between atoms: O6_19  and  C7_20
REMARK    9  A    between atoms: C7_20  and  C8_21
REMARK   10  A    between atoms: C9_24  and  S1_25
REMARK   11  A    between atoms: S1_25  and  S2_26
REMARK   12  A    between atoms: S2_26  and  C10_27
REMARK   13  A    between atoms: C11_28  and  C12_29
REMARK   14  A    between atoms: C13_32  and  C14_33
REMARK   15  A    between atoms: C14_33  and  O9_35
ROOT
HETATM    1  C8  UNL     1      19.514   6.226   9.625  1.00  0.00     0.312 C
HETATM    2  N4  UNL     1      18.457   7.166   9.207  1.00  0.00    -0.341 N
ATOM      3  H4  UNL     1      18.339   8.073   9.658  1.00  0.00     0.163 HD
HETATM    4  C9  UNL     1      17.698   6.790   8.254  1.00  0.00     0.150 C
HETATM    5  N7  UNL     1      17.920   5.508   7.673  1.00  0.00    -0.347 N
ATOM      6  H7  UNL     1      17.153   5.040   7.189  1.00  0.00     0.163 HD
HETATM    7  C16 UNL     1      19.201   4.860   7.753  1.00  0.00     0.359 C
HETATM    8  N8  UNL     1      20.139   5.735   8.421  1.00  0.00    -0.036 N
ATOM      9  H81 UNL     1      21.038   5.288   8.599  1.00  0.00     0.281 HD
ATOM     10  H82 UNL     1      20.477   6.485   7.818  1.00  0.00     0.281 HD
ENDROOT
BRANCH   1  11
HETATM   11  C7  UNL     1      20.455   6.998  10.481  1.00  0.00     0.233 C
BRANCH  11  12
HETATM   12  O6  UNL     1      20.154   6.824  11.831  1.00  0.00    -0.311 OA
BRANCH  12  13
HETATM   13  C6  UNL     1      20.943   7.215  12.896  1.00  0.00     0.337 C
HETATM   14  O5  UNL     1      20.766   6.723  14.033  1.00  0.00    -0.255 OA
BRANCH  13  15
HETATM   15  C2  UNL     1      21.986   8.198  12.708  1.00  0.00     0.247 C
HETATM   16  N1  UNL     1      23.198   7.845  12.578  1.00  0.00    -0.240 N
ATOM     17  H1  UNL     1      23.875   8.598  12.448  1.00  0.00     0.196 HD
BRANCH  16  18
HETATM   18  O1  UNL     1      23.699   6.589  12.593  1.00  0.00    -0.283 OA
HETATM   19  C1  UNL     1      24.129   6.046  11.345  1.00  0.00     0.237 C
ENDBRANCH  16  18
BRANCH  15  20
HETATM   20  O2  UNL     1      21.652   9.543  12.668  1.00  0.00    -0.255 OA
BRANCH  20  21
HETATM   21  C3  UNL     1      20.424   9.992  13.187  1.00  0.00     0.228 C
HETATM   22  N2  UNL     1      20.475  10.529  14.344  1.00  0.00    -0.365 N
ATOM     23  H22 UNL     1      21.354  10.624  14.853  1.00  0.00     0.159 HD
ATOM     24  H21 UNL     1      19.585  10.855  14.721  1.00  0.00     0.159 HD
BRANCH  21  25
HETATM   25  N3  UNL     1      19.194   9.860  12.475  1.00  0.00    -0.268 N
HETATM   26  C4  UNL     1      18.515  11.006  12.015  1.00  0.00     0.367 C
HETATM   27  O3  UNL     1      19.007  12.135  12.239  1.00  0.00    -0.238 OA
ATOM     28  H3  UNL     1      18.805   8.933  12.300  1.00  0.00     0.174 HD
BRANCH  26  29
HETATM   29  O4  UNL     1      17.315  10.942  11.316  1.00  0.00    -0.309 OA
HETATM   30  C5  UNL     1      16.619   9.734  11.101  1.00  0.00     0.215 C
ENDBRANCH  26  29
ENDBRANCH  21  25
ENDBRANCH  20  21
ENDBRANCH  15  20
ENDBRANCH  13  15
ENDBRANCH  12  13
ENDBRANCH  11  12
ENDBRANCH   1  11
BRANCH   4  31
HETATM   31  S1  UNL     1      16.399   7.885   7.701  1.00  0.00    -0.016 SA
BRANCH  31  32
HETATM   32  S2  UNL     1      14.479   7.017   7.947  1.00  0.00    -0.041 SA
BRANCH  32  33
HETATM   33  C10 UNL     1      13.990   6.047   6.581  1.00  0.00     0.078 C
HETATM   34  C11 UNL     1      13.381   6.399   5.488  1.00  0.00     0.062 C
HETATM   35  C13 UNL     1      13.098   5.329   4.544  1.00  0.00     0.228 C
HETATM   36  N6  UNL     1      14.064   4.259   4.646  1.00  0.00    -0.153 NA
HETATM   37  S3  UNL     1      14.278   4.297   6.433  1.00  0.00    -0.016 SA
BRANCH  34  38
HETATM   38  C12 UNL     1      12.984   7.800   5.226  1.00  0.00     0.265 C
HETATM   39  N5  UNL     1      13.888   8.711   4.639  1.00  0.00    -0.057 NA
HETATM   40  O7  UNL     1      11.842   8.250   5.506  1.00  0.00    -0.271 OA
ENDBRANCH  34  38
BRANCH  35  41
HETATM   41  C14 UNL     1      11.763   4.705   4.749  1.00  0.00     0.283 C
HETATM   42  O8  UNL     1      10.892   5.154   5.518  1.00  0.00    -0.263 OA
BRANCH  41  43
HETATM   43  O9  UNL     1      11.492   3.553   4.025  1.00  0.00    -0.325 OA
HETATM   44  C15 UNL     1      10.999   2.372   4.583  1.00  0.00     0.213 C
ENDBRANCH  41  43
ENDBRANCH  35  41
ENDBRANCH  32  33
ENDBRANCH  31  32
ENDBRANCH   4  31
TORSDOF 15
ENDMDL