MODEL 2
REMARK VINA RESULT: -8.829578926      2.874      3.746
REMARK  10 active torsions:
REMARK  status: ('A' for Active; 'I' for Inactive)
REMARK    1  A    between atoms: N1_2  and  S1_4
REMARK    2  A    between atoms: S1_4  and  O3_7
REMARK    3  A    between atoms: O3_7  and  N2_8
REMARK    4  A    between atoms: C2_9  and  N3_10
REMARK    5  A    between atoms: N4_12  and  C3_14
REMARK    6  A    between atoms: N5_18  and  O4_19
REMARK    7  A    between atoms: C12_32  and  N9_33
REMARK    8  A    between atoms: N10_35  and  C13_37
REMARK    9  A    between atoms: C14_40  and  N12_41
REMARK   10  A    between atoms: C15_46  and  N14_47
ROOT
HETATM    1  N2  UNL     1      16.057   8.645   7.854  1.00  0.00     0.011 N
HETATM    2  C2  UNL     1      15.070   7.962   7.253  1.00  0.00     0.728 C
HETATM    3  N6  UNL     1      15.060   6.624   6.986  1.00  0.00    -0.184 N
ATOM      4  H6  UNL     1      14.271   6.306   6.423  1.00  0.00     0.184 HD
HETATM    5  C8  UNL     1      15.920   5.658   7.345  1.00  0.00     0.104 A
HETATM    6  C9  UNL     1      15.739   4.303   7.157  1.00  0.00     0.091 A
HETATM    7  N7  UNL     1      14.605   3.673   6.546  1.00  0.00    -0.099 NA
HETATM    8  C10 UNL     1      16.867   3.707   7.676  1.00  0.00     0.117 A
HETATM    9  N8  UNL     1      17.718   4.626   8.167  1.00  0.00    -0.360 N
ATOM     10  H8  UNL     1      18.617   4.415   8.600  1.00  0.00     0.165 HD
HETATM   11  C11 UNL     1      17.214   5.862   8.005  1.00  0.00     0.095 A
HETATM   12  C12 UNL     1      17.801   7.054   8.384  1.00  0.00     0.148 C
HETATM   13  C17 UNL     1      17.305   8.329   8.226  1.00  0.00     0.320 C
HETATM   14  O6  UNL     1      18.089   9.298   8.451  1.00  0.00    -0.262 OA
ENDROOT
BRANCH  12  15
HETATM   15  N9  UNL     1      19.057   6.943   9.005  1.00  0.00    -0.292 N
HETATM   16  N10 UNL     1      19.307   7.419  10.150  1.00  0.00    -0.283 N
ATOM     17  H10 UNL     1      18.586   7.913  10.675  1.00  0.00     0.188 HD
ATOM     18  H9  UNL     1      19.802   6.454   8.509  1.00  0.00     0.187 HD
BRANCH  16  19
HETATM   19  C13 UNL     1      20.615   7.253  10.695  1.00  0.00     0.157 A
HETATM   20  N11 UNL     1      21.547   6.505  10.051  1.00  0.00    -0.174 N
HETATM   21  C14 UNL     1      22.781   6.326  10.528  1.00  0.00     0.679 A
ATOM     22  H11 UNL     1      21.294   6.062   9.167  1.00  0.00     0.186 HD
HETATM   23  N13 UNL     1      23.134   6.895  11.681  1.00  0.00    -0.176 N
HETATM   24  C15 UNL     1      22.250   7.647  12.363  1.00  0.00     0.136 A
ATOM     25  H13 UNL     1      24.076   6.760  12.047  1.00  0.00     0.186 HD
HETATM   26  C16 UNL     1      20.989   7.838  11.889  1.00  0.00     0.101 A
HETATM   27  S2  UNL     1      19.829   8.843  12.815  1.00  0.00    -0.044 SA
BRANCH  21  28
HETATM   28  N12 UNL     1      23.671   5.610   9.908  1.00  0.00    -0.234 N
ATOM     29 2H12 UNL     1      23.463   4.623   9.752  1.00  0.00     0.174 HD
ATOM     30 1H12 UNL     1      24.556   6.000   9.581  1.00  0.00     0.174 HD
ENDBRANCH  21  28
BRANCH  24  31
HETATM   31  N14 UNL     1      22.656   8.176  13.485  1.00  0.00    -0.384 N
ATOM     32 2H14 UNL     1      23.643   8.219  13.737  1.00  0.00     0.157 HD
ATOM     33 1H14 UNL     1      21.941   8.550  14.110  1.00  0.00     0.157 HD
ENDBRANCH  24  31
ENDBRANCH  16  19
ENDBRANCH  12  15
BRANCH   1  34
HETATM   34  O3  UNL     1      15.720   9.953   8.157  1.00  0.00    -0.109 OA
BRANCH  34  35
HETATM   35  S1  UNL     1      15.002  10.298   9.647  1.00  0.00     0.379 S
HETATM   36  O1  UNL     1      15.679  11.457  10.326  1.00  0.00    -0.174 OA
HETATM   37  O2  UNL     1      13.545  10.699   9.480  1.00  0.00    -0.174 OA
BRANCH  35  38
HETATM   38  N1  UNL     1      15.108   8.867  10.635  1.00  0.00    -0.300 N
HETATM   39  C1  UNL     1      16.125   9.071  11.655  1.00  0.00     0.161 C
ATOM     40  H1  UNL     1      14.547   8.023  10.517  1.00  0.00     0.173 HD
ENDBRANCH  35  38
ENDBRANCH  34  35
ENDBRANCH   1  34
BRANCH   2  41
HETATM   41  N3  UNL     1      13.953   8.725   6.874  1.00  0.00    -0.129 N
HETATM   42  N4  UNL     1      12.788   8.406   7.221  1.00  0.00    -0.281 N
ATOM     43  H4  UNL     1      12.022   9.004   6.911  1.00  0.00     0.187 HD
ATOM     44  H3  UNL     1      14.091   9.559   6.303  1.00  0.00     0.205 HD
BRANCH  42  45
HETATM   45  C3  UNL     1      12.462   7.273   8.013  1.00  0.00     0.118 A
HETATM   46  C4  UNL     1      12.420   7.422   9.376  1.00  0.00     0.038 A
HETATM   47  C5  UNL     1      12.107   6.341  10.163  1.00  0.00     0.022 A
HETATM   48  C6  UNL     1      11.836   5.119   9.589  1.00  0.00     0.127 A
HETATM   49  N5  UNL     1      11.874   4.967   8.262  1.00  0.00    -0.197 N
HETATM   50  C7  UNL     1      12.184   6.034   7.480  1.00  0.00     0.299 A
HETATM   51  O5  UNL     1      12.225   5.913   6.233  1.00  0.00    -0.263 OA
BRANCH  49  52
HETATM   52  O4  UNL     1      11.607   3.753   7.666  1.00  0.00    -0.280 OA
ATOM     53  H4  UNL     1      11.430   3.684   6.736  1.00  0.00     0.245 HD
ENDBRANCH  49  52
ENDBRANCH  42  45
ENDBRANCH   2  41
TORSDOF 10
ENDMDL