MODEL 5
REMARK VINA RESULT: -8.002679638      1.172      2.568
REMARK  18 active torsions:
REMARK  status: ('A' for Active; 'I' for Inactive)
REMARK    1  A    between atoms: O1_2  and  C2_3
REMARK    2  A    between atoms: C2_3  and  O2_4
REMARK    3  A    between atoms: C5_7  and  C6_8
REMARK    4  A    between atoms: C7_9  and  O3_10
REMARK    5  A    between atoms: C9_13  and  O4_14
REMARK    6  A    between atoms: O4_14  and  C10_15
REMARK    7  A    between atoms: C10_15  and  O6_17
REMARK    8  A    between atoms: O6_17  and  N1_18
REMARK    9  A    between atoms: C12_24  and  O7_25
REMARK   10  A    between atoms: C12_24  and  N4_27
REMARK   11  A    between atoms: N4_27  and  O8_29
REMARK   12  A    between atoms: N5_32  and  O9_34
REMARK   13  A    between atoms: C15_37  and  O10_38
REMARK   14  A    between atoms: C16_40  and  O11_41
REMARK   15  A    between atoms: C17_43  and  C18_44
REMARK   16  A    between atoms: C17_43  and  O13_47
REMARK   17  A    between atoms: C18_44  and  O12_45
REMARK   18  A    between atoms: O13_47  and  C19_48
ROOT
HETATM    1  N1  UNL     1      24.134   6.572   9.958  1.00  0.00    -0.188 N
ATOM      2  H1  UNL     1      24.362   6.994   9.058  1.00  0.00     0.217 HD
HETATM    3  N2  UNL     1      24.649   5.483  10.295  1.00  0.00    -0.216 N
ATOM      4  H2  UNL     1      24.391   5.101  11.205  1.00  0.00     0.201 HD
HETATM    5  C11 UNL     1      25.542   4.759   9.530  1.00  0.00     0.199 C
HETATM    6  N3  UNL     1      26.285   4.150   8.867  1.00  0.00    -0.170 NA
ENDROOT
BRANCH   1   7
HETATM    7  O6  UNL     1      23.260   7.190  10.813  1.00  0.00    -0.158 OA
BRANCH   7   8
HETATM    8  C10 UNL     1      21.968   6.754  10.930  1.00  0.00     0.435 C
HETATM    9  O5  UNL     1      21.472   6.048   9.989  1.00  0.00    -0.227 OA
BRANCH   8  10
HETATM   10  O4  UNL     1      21.143   7.021  12.003  1.00  0.00    -0.252 OA
BRANCH  10  11
HETATM   11  C9  UNL     1      20.306   8.157  11.977  1.00  0.00     0.136 A
HETATM   12  C8  UNL     1      19.187   8.275  11.296  1.00  0.00     0.049 A
HETATM   13  C7  UNL     1      18.267   7.608  10.381  1.00  0.00     0.093 A
HETATM   14  C14 UNL     1      18.637   9.594  11.545  1.00  0.00     0.044 A
HETATM   15  C6  UNL     1      17.268   8.426  10.104  1.00  0.00     0.041 A
HETATM   16  C15 UNL     1      17.499   9.670  10.833  1.00  0.00     0.092 A
HETATM   17  C13 UNL     1      19.529  10.296  12.458  1.00  0.00     0.109 A
HETATM   18  C12 UNL     1      20.642   9.362  12.755  1.00  0.00     0.249 A
HETATM   19  N5  UNL     1      19.403  11.511  12.937  1.00  0.00    -0.267 N
ATOM     20  H5  UNL     1      20.125  11.857  13.570  1.00  0.00     0.194 HD
BRANCH  13  21
HETATM   21  O3  UNL     1      18.387   6.328   9.868  1.00  0.00    -0.359 OA
ATOM     22  H3  UNL     1      17.668   5.710   9.804  1.00  0.00     0.217 HD
ENDBRANCH  13  21
BRANCH  15  23
HETATM   23  C5  UNL     1      16.106   8.186   9.229  1.00  0.00    -0.009 C
HETATM   24  C4  UNL     1      16.049   8.180   7.916  1.00  0.00     0.055 C
HETATM   25  C2  UNL     1      14.703   7.901   7.391  1.00  0.00     0.221 C
HETATM   26  C17 UNL     1      13.810   7.984   8.601  1.00  0.00     0.181 C
HETATM   27  C16 UNL     1      14.758   7.889   9.777  1.00  0.00     0.195 C
BRANCH  25  28
HETATM   28  O1  UNL     1      14.324   9.001   6.556  1.00  0.00    -0.354 OA
HETATM   29  C1  UNL     1      13.930   8.588   5.307  1.00  0.00     0.206 C
ENDBRANCH  25  28
BRANCH  25  30
HETATM   30  O2  UNL     1      14.612   6.745   6.676  1.00  0.00    -0.354 OA
HETATM   31  C3  UNL     1      15.510   5.758   6.897  1.00  0.00     0.206 C
ENDBRANCH  25  30
BRANCH  26  32
HETATM   32  C18 UNL     1      13.168   9.368   8.699  1.00  0.00     0.212 C
BRANCH  32  33
HETATM   33  O12 UNL     1      12.858   9.702   9.994  1.00  0.00    -0.398 OA
ATOM     34  H12 UNL     1      12.392  10.528  10.047  1.00  0.00     0.209 HD
ENDBRANCH  32  33
ENDBRANCH  26  32
BRANCH  26  35
HETATM   35  O13 UNL     1      12.845   6.982   8.566  1.00  0.00    -0.299 OA
BRANCH  35  36
HETATM   36  C19 UNL     1      11.496   7.133   8.333  1.00  0.00     0.255 C
HETATM   37  C20 UNL     1      10.945   7.049   6.959  1.00  0.00     0.126 C
HETATM   38  O14 UNL     1      10.740   7.344   9.308  1.00  0.00    -0.266 OA
ENDBRANCH  35  36
ENDBRANCH  26  35
BRANCH  27  39
HETATM   39  O11 UNL     1      14.767   6.620  10.343  1.00  0.00    -0.388 OA
ATOM     40  H11 UNL     1      14.227   6.041   9.817  1.00  0.00     0.210 HD
ENDBRANCH  27  39
ENDBRANCH  15  23
BRANCH  16  41
HETATM   41  O10 UNL     1      16.730  10.826  10.861  1.00  0.00    -0.359 OA
ATOM     42  H10 UNL     1      16.040  11.072  11.466  1.00  0.00     0.217 HD
ENDBRANCH  16  41
BRANCH  18  43
HETATM   43  O7  UNL     1      20.736   9.103  14.122  1.00  0.00    -0.359 OA
ATOM     44  H7  UNL     1      20.912   8.189  14.308  1.00  0.00     0.213 HD
ENDBRANCH  18  43
BRANCH  18  45
HETATM   45  N4  UNL     1      21.884   9.872  12.233  1.00  0.00    -0.258 N
ATOM     46  H4  UNL     1      21.882  10.519  11.444  1.00  0.00     0.191 HD
BRANCH  45  47
HETATM   47  O8  UNL     1      22.921   9.531  12.733  1.00  0.00    -0.291 OA
ATOM     48  H8  UNL     1      23.732   9.648  12.254  1.00  0.00     0.244 HD
ENDBRANCH  45  47
ENDBRANCH  18  45
BRANCH  19  49
HETATM   49  O9  UNL     1      18.362  12.335  12.636  1.00  0.00    -0.290 OA
ATOM     50  H9  UNL     1      18.264  12.771  11.797  1.00  0.00     0.244 HD
ENDBRANCH  19  49
ENDBRANCH  10  11
ENDBRANCH   8  10
ENDBRANCH   7   8
ENDBRANCH   1   7
TORSDOF 18
ENDMDL