MODEL 2
REMARK VINA RESULT: -8.537522409      1.320      1.672
REMARK  14 active torsions:
REMARK  status: ('A' for Active; 'I' for Inactive)
REMARK    1  A    between atoms: O1_2  and  C2_3
REMARK    2  A    between atoms: C2_3  and  C3_5
REMARK    3  A    between atoms: C3_5  and  C4_7
REMARK    4  A    between atoms: C6_10  and  O5_11
REMARK    5  A    between atoms: C8_14  and  O6_15
REMARK    6  A    between atoms: C10_18  and  O7_19
REMARK    7  A    between atoms: O7_19  and  C11_20
REMARK    8  A    between atoms: C15_25  and  C16_26
REMARK    9  A    between atoms: C16_26  and  O9_27
REMARK   10  A    between atoms: O9_27  and  C17_28
REMARK   11  A    between atoms: C17_28  and  N1_29
REMARK   12  A    between atoms: C17_28  and  C21_36
REMARK   13  A    between atoms: C23_42  and  N6_43
REMARK   14  A    between atoms: N6_43  and  O10_44
ROOT
HETATM    1  N1  UNL     1      13.521   8.966   8.388  1.00  0.00    -0.321 N
ATOM      2  H1  UNL     1      12.921   8.188   8.662  1.00  0.00     0.169 HD
HETATM    3  C18 UNL     1      13.636   9.822   9.296  1.00  0.00     0.197 C
HETATM    4  C19 UNL     1      14.465  10.994   9.074  1.00  0.00     0.129 C
HETATM    5  N2  UNL     1      15.148  11.909   8.882  1.00  0.00    -0.189 NA
HETATM    6  C20 UNL     1      12.949   9.645  10.547  1.00  0.00     0.129 C
HETATM    7  N3  UNL     1      12.374   9.519  11.564  1.00  0.00    -0.189 NA
ENDROOT
BRANCH   1   8
HETATM    8  C17 UNL     1      14.019   8.823   7.091  1.00  0.00     0.150 C
BRANCH   8   9
HETATM    9  O9  UNL     1      15.406   8.914   6.977  1.00  0.00    -0.307 OA
BRANCH   9  10
HETATM   10  C16 UNL     1      16.328   8.239   7.719  1.00  0.00     0.153 C
BRANCH  10  11
HETATM   11  C15 UNL     1      16.988   7.305   8.127  1.00  0.00    -0.005 C
HETATM   12  C4  UNL     1      16.689   5.839   7.706  1.00  0.00     0.174 C
HETATM   13  C5  UNL     1      17.940   5.125   7.464  1.00  0.00     0.176 C
HETATM   14  O4  UNL     1      17.889   4.022   6.901  1.00  0.00    -0.294 OA
HETATM   15  C6  UNL     1      19.273   5.603   7.825  1.00  0.00     0.225 C
HETATM   16  C7  UNL     1      19.172   6.528   8.978  1.00  0.00     0.022 A
HETATM   17  C8  UNL     1      20.168   6.544   9.917  1.00  0.00     0.078 A
HETATM   18  C14 UNL     1      18.058   7.357   9.100  1.00  0.00    -0.012 A
HETATM   19  C9  UNL     1      20.079   7.391  11.011  1.00  0.00     0.074 A
HETATM   20  C10 UNL     1      18.974   8.223  11.149  1.00  0.00     0.082 A
HETATM   21  C13 UNL     1      18.001   8.179  10.190  1.00  0.00     0.050 A
BRANCH  12  22
HETATM   22  C3  UNL     1      15.861   5.207   8.704  1.00  0.00     0.239 C
HETATM   23  O3  UNL     1      16.446   4.681   9.716  1.00  0.00    -0.285 OA
BRANCH  22  24
HETATM   24  C2  UNL     1      14.436   5.106   8.674  1.00  0.00     0.330 C
HETATM   25  O2  UNL     1      13.718   5.980   9.227  1.00  0.00    -0.256 OA
BRANCH  24  26
HETATM   26  O1  UNL     1      13.757   4.061   8.051  1.00  0.00    -0.320 OA
HETATM   27  C1  UNL     1      14.415   2.860   7.748  1.00  0.00     0.213 C
ENDBRANCH  24  26
ENDBRANCH  22  24
ENDBRANCH  12  22
BRANCH  15  28
HETATM   28  O5  UNL     1      20.077   4.487   8.157  1.00  0.00    -0.383 OA
ATOM     29  H5  UNL     1      19.856   4.209   9.039  1.00  0.00     0.211 HD
ENDBRANCH  15  28
BRANCH  17  30
HETATM   30  O6  UNL     1      21.280   5.722   9.809  1.00  0.00    -0.360 OA
ATOM     31  H6  UNL     1      22.010   5.790  10.414  1.00  0.00     0.217 HD
ENDBRANCH  17  30
BRANCH  20  32
HETATM   32  O7  UNL     1      18.868   9.084  12.252  1.00  0.00    -0.279 OA
BRANCH  32  33
HETATM   33  C11 UNL     1      19.321  10.382  12.223  1.00  0.00     0.260 C
HETATM   34  C12 UNL     1      20.664  10.762  12.772  1.00  0.00     0.126 C
HETATM   35  O8  UNL     1      18.630  11.307  11.738  1.00  0.00    -0.265 OA
ENDBRANCH  32  33
ENDBRANCH  20  32
ENDBRANCH  10  11
ENDBRANCH   9  10
ENDBRANCH   8   9
BRANCH   8  36
HETATM   36  C21 UNL     1      13.346   7.826   6.247  1.00  0.00     0.196 C
HETATM   37  N4  UNL     1      12.768   8.489   5.049  1.00  0.00    -0.363 N
HETATM   38  C22 UNL     1      11.873   7.319   4.905  1.00  0.00     0.110 C
ATOM     39  H4  UNL     1      12.921   9.363   4.547  1.00  0.00     0.161 HD
HETATM   40  N5  UNL     1      11.123   6.350   4.682  1.00  0.00    -0.336 N
HETATM   41  C24 UNL     1      11.951   7.394   6.463  1.00  0.00     0.286 C
HETATM   42  C23 UNL     1      10.661   5.617   5.804  1.00  0.00     0.408 C
ATOM     43  H5  UNL     1      10.854   6.094   3.732  1.00  0.00     0.164 HD
HETATM   44  N7  UNL     1      11.667   6.043   6.816  1.00  0.00    -0.024 N
ATOM     45  H72 UNL     1      11.371   5.914   7.783  1.00  0.00     0.282 HD
ATOM     46  H71 UNL     1      12.488   5.441   6.872  1.00  0.00     0.282 HD
BRANCH  42  47
HETATM   47  N6  UNL     1      10.859   4.181   5.528  1.00  0.00    -0.048 NA
BRANCH  47  48
HETATM   48  O10 UNL     1      11.118   3.567   6.739  1.00  0.00    -0.293 OA
ATOM     49  H10 UNL     1      10.948   2.639   6.623  1.00  0.00     0.238 HD
ENDBRANCH  47  48
ENDBRANCH  42  47
ENDBRANCH   8  36
ENDBRANCH   1   8
TORSDOF 14
ENDMDL