MODEL 1
REMARK VINA RESULT: -8.226949618      0.000      0.000
REMARK  13 active torsions:
REMARK  status: ('A' for Active; 'I' for Inactive)
REMARK    1  A    between atoms: C1_2  and  C2_4
REMARK    2  A    between atoms: C2_4  and  N1_5
REMARK    3  A    between atoms: C3_6  and  N2_7
REMARK    4  A    between atoms: C5_11  and  N3_12
REMARK    5  A    between atoms: C6_15  and  N4_16
REMARK    6  A    between atoms: C7_17  and  C8_18
REMARK       I    between atoms: C8_18  and  N5_20
REMARK    7  A    between atoms: N5_20  and  C9_22
REMARK    8  A    between atoms: C10_25  and  O8_26
REMARK    9  A    between atoms: C12_30  and  O9_31
REMARK   10  A    between atoms: C13_34  and  O10_35
REMARK   11  A    between atoms: C14_37  and  C15_38
REMARK   12  A    between atoms: C15_38  and  N8_39
REMARK   13  A    between atoms: N8_39  and  O11_41
ROOT
HETATM    1  N4  UNL     1      15.224   4.266  10.158  1.00  0.00    -0.129 N
HETATM    2  C7  UNL     1      15.175   3.008   9.717  1.00  0.00     0.177 A
HETATM    3  C12 UNL     1      15.359   2.168  10.837  1.00  0.00     0.199 A
HETATM    4  N7  UNL     1      15.511   2.951  11.906  1.00  0.00    -0.100 N
HETATM    5  C13 UNL     1      15.716   2.947  13.254  1.00  0.00     0.194 A
HETATM    6  C14 UNL     1      15.760   4.253  13.665  1.00  0.00     0.118 A
HETATM    7  N9  UNL     1      15.579   5.031  12.550  1.00  0.00    -0.185 N
ATOM      8  H9  UNL     1      15.561   6.050  12.527  1.00  0.00     0.184 HD
HETATM    9  C16 UNL     1      15.430   4.222  11.499  1.00  0.00     0.701 A
ENDROOT
BRANCH   1  10
HETATM   10  C6  UNL     1      15.056   5.445   9.366  1.00  0.00     0.159 A
HETATM   11  C5  UNL     1      16.098   6.265   9.016  1.00  0.00     0.140 A
HETATM   12  C4  UNL     1      15.915   7.404   8.253  1.00  0.00     0.093 A
HETATM   13  C3  UNL     1      14.629   7.755   7.810  1.00  0.00     0.181 A
HETATM   14  N1  UNL     1      13.625   6.953   8.158  1.00  0.00    -0.283 N
HETATM   15  C17 UNL     1      13.813   5.828   8.912  1.00  0.00     0.280 A
HETATM   16  O12 UNL     1      12.820   5.092   9.218  1.00  0.00    -0.265 OA
BRANCH  11  17
HETATM   17  N3  UNL     1      17.418   5.971   9.464  1.00  0.00    -0.113 N
HETATM   18  O5  UNL     1      18.179   5.316   8.762  1.00  0.00    -0.532 OA
HETATM   19  O6  UNL     1      17.820   6.439  10.701  1.00  0.00    -0.532 OA
ENDBRANCH  11  17
BRANCH  13  20
HETATM   20  N2  UNL     1      14.460   8.908   7.012  1.00  0.00    -0.098 N
HETATM   21  O3  UNL     1      14.424  10.026   7.619  1.00  0.00    -0.531 OA
HETATM   22  O4  UNL     1      14.328   9.006   5.669  1.00  0.00    -0.531 OA
ENDBRANCH  13  20
BRANCH  14  23
HETATM   23  C2  UNL     1      12.268   7.261   7.771  1.00  0.00     0.247 C
BRANCH  23  24
HETATM   24  C1  UNL     1      11.481   7.877   8.838  1.00  0.00     0.192 C
HETATM   25  O1  UNL     1      10.257   7.605   8.922  1.00  0.00    -0.647 OA
HETATM   26  O2  UNL     1      12.019   8.741   9.756  1.00  0.00    -0.647 OA
ENDBRANCH  23  24
ENDBRANCH  14  23
ENDBRANCH   1  10
BRANCH   2  27
HETATM   27  C8  UNL     1      14.975   2.535   8.357  1.00  0.00     0.279 C
HETATM   28  O7  UNL     1      15.760   2.914   7.419  1.00  0.00    -0.265 OA
HETATM   29  N5  UNL     1      13.932   1.657   7.993  1.00  0.00    -0.301 N
ATOM     30  H5  UNL     1      13.509   1.040   8.687  1.00  0.00     0.171 HD
BRANCH  29  31
HETATM   31  C9  UNL     1      13.510   1.646   6.741  1.00  0.00     0.153 A
HETATM   32  N6  UNL     1      13.729   0.725   5.806  1.00  0.00    -0.317 N
HETATM   33  C10 UNL     1      13.224   0.907   4.622  1.00  0.00     0.148 A
ATOM     34  H6  UNL     1      14.282  -0.106   6.015  1.00  0.00     0.170 HD
HETATM   35  C11 UNL     1      12.491   2.042   4.402  1.00  0.00     0.109 A
HETATM   36  S1  UNL     1      12.561   2.808   5.926  1.00  0.00    -0.061 SA
BRANCH  33  37
HETATM   37  O8  UNL     1      13.403  -0.022   3.557  1.00  0.00    -0.346 OA
ATOM     38  H8  UNL     1      13.946   0.163   2.799  1.00  0.00     0.219 HD
ENDBRANCH  33  37
ENDBRANCH  29  31
ENDBRANCH   2  27
BRANCH   3  39
HETATM   39  O9  UNL     1      15.370   0.775  10.775  1.00  0.00    -0.343 OA
ATOM     40  H9  UNL     1      14.879   0.212  11.363  1.00  0.00     0.219 HD
ENDBRANCH   3  39
BRANCH   5  41
HETATM   41  O10 UNL     1      15.857   1.846  14.068  1.00  0.00    -0.344 OA
ATOM     42  H10 UNL     1      16.641   1.572  14.529  1.00  0.00     0.219 HD
ENDBRANCH   5  41
BRANCH   6  43
HETATM   43  C15 UNL     1      15.951   4.845  14.978  1.00  0.00     0.148 C
BRANCH  43  44
HETATM   44  N8  UNL     1      16.241   4.284  16.062  1.00  0.00    -0.278 N
ATOM     45  H8  UNL     1      17.048   4.719  16.510  1.00  0.00     0.193 HD
BRANCH  44  46
HETATM   46  O11 UNL     1      15.770   3.278  16.771  1.00  0.00    -0.290 OA
ATOM     47  H11 UNL     1      15.180   3.173  17.509  1.00  0.00     0.244 HD
ENDBRANCH  44  46
ENDBRANCH  43  44
ENDBRANCH   6  43
TORSDOF 13
ENDMDL