MODEL 5
REMARK VINA RESULT: -8.533464862      3.945      6.864
REMARK  13 active torsions:
REMARK  status: ('A' for Active; 'I' for Inactive)
REMARK    1  A    between atoms: O1_2  and  C2_3
REMARK    2  A    between atoms: C4_5  and  C5_6
REMARK    3  A    between atoms: C5_6  and  O2_7
REMARK    4  A    between atoms: O2_7  and  N1_8
REMARK    5  A    between atoms: N1_8  and  C6_10
REMARK    6  A    between atoms: C7_11  and  C8_12
REMARK    7  A    between atoms: C15_24  and  C16_25
REMARK    8  A    between atoms: N3_28  and  N4_29
REMARK    9  A    between atoms: C17_32  and  N5_33
REMARK   10  A    between atoms: C18_38  and  O8_39
REMARK   11  A    between atoms: C20_43  and  O10_44
REMARK   12  A    between atoms: C20_43  and  O11_46
REMARK   13  A    between atoms: C22_48  and  O12_49
ROOT
HETATM    1  C6  UNL     1      13.371   5.670   7.998  1.00  0.00     0.124 A
HETATM    2  C7  UNL     1      14.635   5.661   7.429  1.00  0.00     0.109 A
HETATM    3  O7  UNL     1      14.720   4.532   6.780  1.00  0.00    -0.301 OA
HETATM    4  C15 UNL     1      13.656   3.798   6.857  1.00  0.00     0.157 A
HETATM    5  C18 UNL     1      12.763   4.497   7.634  1.00  0.00     0.135 A
ENDROOT
BRANCH   1   6
HETATM    6  N1  UNL     1      12.835   6.713   8.775  1.00  0.00    -0.256 N
ATOM      7  H1  UNL     1      13.163   6.847   9.731  1.00  0.00     0.195 HD
BRANCH   6   8
HETATM    8  O2  UNL     1      11.893   7.541   8.273  1.00  0.00    -0.249 OA
BRANCH   8   9
HETATM    9  C5  UNL     1      11.775   7.951   6.954  1.00  0.00     0.182 C
BRANCH   9  10
HETATM   10  C4  UNL     1      11.234   7.122   6.092  1.00  0.00     0.042 C
HETATM   11  C3  UNL     1       9.958   6.487   6.358  1.00  0.00     0.052 C
HETATM   12  C2  UNL     1       9.424   5.647   5.498  1.00  0.00     0.081 C
HETATM   13  C22 UNL     1      10.073   5.292   4.240  1.00  0.00     0.245 C
HETATM   14  C20 UNL     1      10.961   6.366   3.713  1.00  0.00     0.262 C
HETATM   15  C19 UNL     1      11.876   6.786   4.839  1.00  0.00     0.226 C
HETATM   16  O9  UNL     1      13.102   6.853   4.730  1.00  0.00    -0.286 OA
BRANCH  12  17
HETATM   17  O1  UNL     1       8.174   5.099   5.865  1.00  0.00    -0.357 OA
HETATM   18  C1  UNL     1       7.249   4.662   4.885  1.00  0.00     0.209 C
ENDBRANCH  12  17
BRANCH  13  19
HETATM   19  O12 UNL     1      10.932   4.194   4.540  1.00  0.00    -0.383 OA
ATOM     20  H12 UNL     1      11.815   4.502   4.378  1.00  0.00     0.210 HD
ENDBRANCH  13  19
BRANCH  14  21
HETATM   21  O10 UNL     1      10.215   7.525   3.417  1.00  0.00    -0.357 OA
ATOM     22  H10 UNL     1      10.812   8.067   2.913  1.00  0.00     0.213 HD
ENDBRANCH  14  21
BRANCH  14  23
HETATM   23  O11 UNL     1      11.740   5.997   2.616  1.00  0.00    -0.351 OA
HETATM   24  C21 UNL     1      10.994   6.191   1.460  1.00  0.00     0.206 C
ENDBRANCH  14  23
ENDBRANCH   9  10
ENDBRANCH   8   9
ENDBRANCH   6   8
ENDBRANCH   1   6
BRANCH   2  25
HETATM   25  C8  UNL     1      15.617   6.710   7.573  1.00  0.00     0.063 C
HETATM   26  C9  UNL     1      16.574   6.817   8.444  1.00  0.00     0.117 C
HETATM   27  C10 UNL     1      17.457   8.011   8.387  1.00  0.00     0.302 C
HETATM   28  C14 UNL     1      16.869   5.839   9.474  1.00  0.00     0.302 C
HETATM   29  O3  UNL     1      17.246   8.878   7.521  1.00  0.00    -0.259 OA
HETATM   30  O4  UNL     1      18.473   8.100   9.299  1.00  0.00    -0.280 OA
HETATM   31  C11 UNL     1      18.966   6.949   9.919  1.00  0.00     0.175 C
HETATM   32  C12 UNL     1      19.835   7.296  11.120  1.00  0.00     0.080 C
HETATM   33  C13 UNL     1      19.871   6.173   8.956  1.00  0.00     0.080 C
HETATM   34  O5  UNL     1      17.944   6.078  10.331  1.00  0.00    -0.280 OA
HETATM   35  O6  UNL     1      16.214   4.794   9.633  1.00  0.00    -0.259 OA
ENDBRANCH   2  25
BRANCH   5  36
HETATM   36  O8  UNL     1      11.468   4.067   7.980  1.00  0.00    -0.356 OA
ATOM     37  H8  UNL     1      10.807   3.712   7.399  1.00  0.00     0.218 HD
ENDBRANCH   5  36
BRANCH   4  38
HETATM   38  C16 UNL     1      13.431   2.482   6.242  1.00  0.00     0.174 A
HETATM   39  N2  UNL     1      13.597   2.225   4.929  1.00  0.00    -0.247 N
HETATM   40  N3  UNL     1      13.317   0.972   4.683  1.00  0.00    -0.025 N
ATOM     41  H2  UNL     1      13.898   2.906   4.232  1.00  0.00     0.191 HD
HETATM   42  C17 UNL     1      12.956   0.401   5.875  1.00  0.00     0.713 A
HETATM   43  N6  UNL     1      13.032   1.345   6.820  1.00  0.00    -0.170 N
ATOM     44  H6  UNL     1      12.822   1.217   7.810  1.00  0.00     0.186 HD
BRANCH  40  45
HETATM   45  N4  UNL     1      13.332   0.225   3.515  1.00  0.00    -0.309 N
ATOM     46  H42 UNL     1      13.726   0.609   2.655  1.00  0.00     0.179 HD
ATOM     47  H41 UNL     1      13.005  -0.717   3.298  1.00  0.00     0.179 HD
ENDBRANCH  40  45
BRANCH  42  48
HETATM   48  N5  UNL     1      12.602  -0.809   6.067  1.00  0.00    -0.231 N
ATOM     49  H52 UNL     1      12.646  -1.554   5.372  1.00  0.00     0.174 HD
ATOM     50  H51 UNL     1      12.233  -1.209   6.930  1.00  0.00     0.174 HD
ENDBRANCH  42  48
ENDBRANCH   4  38
TORSDOF 13
ENDMDL