MODEL 4
REMARK VINA RESULT: -7.982558135      2.894      4.176
REMARK  15 active torsions:
REMARK  status: ('A' for Active; 'I' for Inactive)
REMARK    1  A    between atoms: C2_2  and  O2_4
REMARK    2  A    between atoms: O2_4  and  C3_5
REMARK    3  A    between atoms: C3_5  and  O3_6
REMARK    4  A    between atoms: O3_6  and  C4_7
REMARK       I    between atoms: C4_7  and  N1_9
REMARK    5  A    between atoms: N1_9  and  N2_11
REMARK    6  A    between atoms: N2_11  and  C6_12
REMARK    7  A    between atoms: N2_11  and  N11_43
REMARK    8  A    between atoms: C6_12  and  S1_17
REMARK    9  A    between atoms: N3_13  and  O5_15
REMARK   10  A    between atoms: S1_17  and  S2_18
REMARK   11  A    between atoms: S2_18  and  C7_19
REMARK   12  A    between atoms: N5_21  and  N6_22
REMARK   13  A    between atoms: C8_26  and  O6_27
REMARK   14  A    between atoms: O6_27  and  C9_28
REMARK   15  A    between atoms: C14_38  and  N10_39
ROOT
HETATM    1  C7  UNL     1      15.574   7.488   8.921  1.00  0.00     0.215 C
HETATM    2  N4  UNL     1      15.152   8.858   8.972  1.00  0.00    -0.108 NA
HETATM    3  N5  UNL     1      15.810   9.598   8.011  1.00  0.00    -0.054 NA
HETATM    4  N7  UNL     1      16.306   8.683   7.110  1.00  0.00    -0.093 NA
HETATM    5  C8  UNL     1      16.772   7.567   7.954  1.00  0.00     0.264 C
ENDROOT
BRANCH   1   6
HETATM    6  S2  UNL     1      14.347   6.432   8.100  1.00  0.00    -0.062 SA
BRANCH   6   7
HETATM    7  S1  UNL     1      12.868   7.712   7.258  1.00  0.00    -0.014 SA
BRANCH   7   8
HETATM    8  C6  UNL     1      13.002   7.594   5.485  1.00  0.00     0.220 C
HETATM    9  N3  UNL     1      13.630   8.426   4.749  1.00  0.00    -0.244 N
ATOM     10  H3  UNL     1      13.646   8.270   3.741  1.00  0.00     0.196 HD
BRANCH   8  11
HETATM   11  N2  UNL     1      12.363   6.495   4.840  1.00  0.00    -0.104 N
BRANCH  11  12
HETATM   12  N1  UNL     1      12.066   5.302   5.493  1.00  0.00    -0.212 N
HETATM   13  C4  UNL     1      12.966   4.217   5.371  1.00  0.00     0.385 C
HETATM   14  O4  UNL     1      14.021   4.305   4.682  1.00  0.00    -0.236 OA
HETATM   15  C5  UNL     1      10.877   5.142   6.286  1.00  0.00     0.186 C
BRANCH  13  16
HETATM   16  O3  UNL     1      12.717   3.006   6.012  1.00  0.00    -0.276 OA
BRANCH  16  17
HETATM   17  C3  UNL     1      13.778   2.395   6.739  1.00  0.00     0.360 C
BRANCH  17  18
HETATM   18  O2  UNL     1      13.755   2.852   8.087  1.00  0.00    -0.295 OA
BRANCH  18  19
HETATM   19  C2  UNL     1      14.879   2.620   8.865  1.00  0.00     0.256 C
HETATM   20  C1  UNL     1      16.221   3.166   8.474  1.00  0.00     0.126 C
HETATM   21  O1  UNL     1      14.795   1.942   9.922  1.00  0.00    -0.266 OA
ENDBRANCH  18  19
ENDBRANCH  17  18
ENDBRANCH  16  17
ENDBRANCH  13  16
ENDBRANCH  11  12
BRANCH  11  22
HETATM   22  N11 UNL     1      11.991   6.561   3.474  1.00  0.00    -0.014 N
HETATM   23  O8  UNL     1      12.845   6.578   2.568  1.00  0.00    -0.515 OA
HETATM   24  O9  UNL     1      10.638   6.604   3.218  1.00  0.00    -0.515 OA
ENDBRANCH  11  22
ENDBRANCH   8  11
BRANCH   9  25
HETATM   25  O5  UNL     1      14.288   9.529   5.254  1.00  0.00    -0.288 OA
ATOM     26  H5  UNL     1      14.899   9.480   5.980  1.00  0.00     0.244 HD
ENDBRANCH   9  25
ENDBRANCH   7   8
ENDBRANCH   6   7
ENDBRANCH   1   6
BRANCH   5  27
HETATM   27  O6  UNL     1      17.925   7.917   8.603  1.00  0.00    -0.355 OA
BRANCH  27  28
HETATM   28  C9  UNL     1      18.109   7.327   9.847  1.00  0.00     0.170 C
HETATM   29  C10 UNL     1      18.959   6.061   9.718  1.00  0.00     0.122 C
HETATM   30  C11 UNL     1      20.333   6.566  10.065  1.00  0.00     0.179 C
HETATM   31  O7  UNL     1      21.441   6.115   9.718  1.00  0.00    -0.291 OA
HETATM   32  C12 UNL     1      20.151   7.732  10.920  1.00  0.00     0.092 A
HETATM   33  N8  UNL     1      21.021   8.367  11.743  1.00  0.00    -0.349 N
HETATM   34  C15 UNL     1      18.840   8.184  10.800  1.00  0.00     0.045 A
HETATM   35  C13 UNL     1      20.644   9.441  12.458  1.00  0.00     0.182 A
ATOM     36  H8  UNL     1      21.978   8.025  11.820  1.00  0.00     0.167 HD
HETATM   37  N9  UNL     1      19.399   9.881  12.353  1.00  0.00    -0.338 N
HETATM   38  C14 UNL     1      18.491   9.280  11.544  1.00  0.00     0.111 A
ATOM     39  H9  UNL     1      19.114  10.696  12.897  1.00  0.00     0.168 HD
BRANCH  38  40
HETATM   40  N10 UNL     1      17.272   9.757  11.482  1.00  0.00    -0.385 N
ATOM     41 2H10 UNL     1      17.031  10.616  11.976  1.00  0.00     0.157 HD
ATOM     42 1H10 UNL     1      16.568   9.261  10.933  1.00  0.00     0.157 HD
ENDBRANCH  38  40
ENDBRANCH  27  28
ENDBRANCH   5  27
BRANCH   3  43
HETATM   43  N6  UNL     1      16.775  10.457   8.532  1.00  0.00    -0.333 NA
ATOM     44  H62 UNL     1      16.490  11.436   8.547  1.00  0.00     0.173 HD
ATOM     45  H61 UNL     1      17.659  10.434   8.024  1.00  0.00     0.173 HD
ENDBRANCH   3  43
TORSDOF 15
ENDMDL