MODEL 4
REMARK VINA RESULT: -9.060620454      3.915      5.283
REMARK  14 active torsions:
REMARK  status: ('A' for Active; 'I' for Inactive)
REMARK    1  A    between atoms: O1_2  and  C2_3
REMARK    2  A    between atoms: C2_3  and  C3_5
REMARK    3  A    between atoms: C4_7  and  C5_8
REMARK    4  A    between atoms: C8_19  and  C9_20
REMARK    5  A    between atoms: C9_20  and  O7_21
REMARK    6  A    between atoms: C9_20  and  O8_23
REMARK    7  A    between atoms: O8_23  and  C10_24
REMARK    8  A    between atoms: C12_26  and  O9_27
REMARK    9  A    between atoms: C15_32  and  N4_33
REMARK       I    between atoms: N4_33  and  C16_35
REMARK   10  A    between atoms: C16_35  and  C17_37
REMARK   11  A    between atoms: C17_37  and  N5_39
REMARK   12  A    between atoms: C17_37  and  C19_43
REMARK   13  A    between atoms: C19_43  and  O12_44
REMARK   14  A    between atoms: C22_49  and  O14_50
ROOT
HETATM    1  C10 UNL     1      16.959  10.069  11.400  1.00  0.00     0.117 A
HETATM    2  C11 UNL     1      17.392  10.001  10.097  1.00  0.00     0.078 A
HETATM    3  C12 UNL     1      16.543   9.714   9.051  1.00  0.00     0.085 A
HETATM    4  C13 UNL     1      15.206   9.484   9.312  1.00  0.00     0.086 A
HETATM    5  C14 UNL     1      14.320   9.195   8.308  1.00  0.00     0.216 A
HETATM    6  O10 UNL     1      14.666   9.123   7.114  1.00  0.00    -0.285 OA
HETATM    7  C15 UNL     1      12.966   8.969   8.622  1.00  0.00     0.109 A
HETATM    8  C20 UNL     1      12.651   9.061   9.935  1.00  0.00     0.176 A
HETATM    9  O13 UNL     1      13.536   9.345  10.894  1.00  0.00    -0.316 OA
HETATM   10  C21 UNL     1      14.779   9.553  10.611  1.00  0.00     0.128 A
HETATM   11  C22 UNL     1      15.637   9.844  11.674  1.00  0.00     0.135 A
ENDROOT
BRANCH   1  12
HETATM   12  O8  UNL     1      17.865  10.366  12.437  1.00  0.00    -0.284 OA
BRANCH  12  13
HETATM   13  C9  UNL     1      18.695   9.421  12.931  1.00  0.00     0.202 C
BRANCH  13  14
HETATM   14  C8  UNL     1      19.761   8.643  12.373  1.00  0.00     0.130 A
HETATM   15  C3  UNL     1      19.618   7.449  11.747  1.00  0.00     0.173 A
HETATM   16  O3  UNL     1      20.729   6.834  11.270  1.00  0.00    -0.284 OA
HETATM   17  C4  UNL     1      21.930   7.285  11.356  1.00  0.00     0.185 A
HETATM   18  N3  UNL     1      22.093   8.462  11.970  1.00  0.00    -0.301 N
HETATM   19  C7  UNL     1      21.080   9.163  12.480  1.00  0.00     0.265 A
ATOM     20  H3  UNL     1      23.037   8.842  12.052  1.00  0.00     0.171 HD
HETATM   21  O6  UNL     1      21.262  10.266  13.051  1.00  0.00    -0.267 OA
BRANCH  15  22
HETATM   22  C2  UNL     1      18.362   6.785  11.553  1.00  0.00     0.318 C
HETATM   23  O2  UNL     1      17.539   6.471  12.389  1.00  0.00    -0.257 OA
BRANCH  22  24
HETATM   24  O1  UNL     1      18.008   6.435  10.230  1.00  0.00    -0.321 OA
HETATM   25  C1  UNL     1      16.676   6.065   9.905  1.00  0.00     0.213 C
ENDBRANCH  22  24
ENDBRANCH  15  22
BRANCH  17  26
HETATM   26  C5  UNL     1      23.037   6.530  10.804  1.00  0.00     0.175 A
HETATM   27  N1  UNL     1      23.298   6.259   9.519  1.00  0.00    -0.269 N
HETATM   28  N2  UNL     1      24.428   5.531   9.485  1.00  0.00     0.030 NA
ATOM     29  H1  UNL     1      22.743   6.551   8.716  1.00  0.00     0.185 HD
HETATM   30  O4  UNL     1      24.853   5.357  10.696  1.00  0.00    -0.180 OA
HETATM   31  C6  UNL     1      24.039   5.946  11.539  1.00  0.00     0.335 A
HETATM   32  O5  UNL     1      24.132   5.989  12.812  1.00  0.00    -0.256 OA
ENDBRANCH  17  26
ENDBRANCH  13  14
BRANCH  13  33
HETATM   33  O7  UNL     1      18.451   9.180  14.193  1.00  0.00    -0.340 OA
ATOM     34  H7  UNL     1      17.529   9.167  14.421  1.00  0.00     0.220 HD
ENDBRANCH  13  33
ENDBRANCH  12  13
ENDBRANCH   1  12
BRANCH  11  35
HETATM   35  O14 UNL     1      15.148   9.901  12.977  1.00  0.00    -0.356 OA
ATOM     36  H14 UNL     1      14.252   9.661  13.179  1.00  0.00     0.218 HD
ENDBRANCH  11  35
BRANCH   3  37
HETATM   37  O9  UNL     1      16.973   9.642   7.731  1.00  0.00    -0.360 OA
ATOM     38  H9  UNL     1      16.512   9.145   7.065  1.00  0.00     0.217 HD
ENDBRANCH   3  37
BRANCH   7  39
HETATM   39  N4  UNL     1      12.043   8.672   7.618  1.00  0.00    -0.320 N
HETATM   40  C16 UNL     1      11.698   7.450   7.031  1.00  0.00     0.260 C
HETATM   41  O11 UNL     1      12.213   6.355   7.350  1.00  0.00    -0.270 OA
ATOM     42  H4  UNL     1      11.537   9.478   7.252  1.00  0.00     0.169 HD
BRANCH  40  43
HETATM   43  C17 UNL     1      10.639   7.471   5.948  1.00  0.00     0.220 C
HETATM   44  C18 UNL     1      11.089   6.657   4.760  1.00  0.00     0.059 C
BRANCH  43  45
HETATM   45  N5  UNL     1      10.374   8.836   5.542  1.00  0.00    -0.060 N
ATOM     46  H53 UNL     1      11.201   9.427   5.625  1.00  0.00     0.275 HD
ATOM     47  H52 UNL     1      10.234   8.915   4.535  1.00  0.00     0.275 HD
ATOM     48  H51 UNL     1       9.583   9.209   6.068  1.00  0.00     0.275 HD
ENDBRANCH  43  45
BRANCH  43  49
HETATM   49  C19 UNL     1       9.344   6.891   6.484  1.00  0.00     0.212 C
BRANCH  49  50
HETATM   50  O12 UNL     1       9.221   7.341   7.797  1.00  0.00    -0.398 OA
ATOM     51  H12 UNL     1       8.291   7.420   7.970  1.00  0.00     0.209 HD
ENDBRANCH  49  50
ENDBRANCH  43  49
ENDBRANCH  40  43
ENDBRANCH   7  39
TORSDOF 14
ENDMDL