MODEL 5
REMARK VINA RESULT: -6.729709595      6.124      9.167
REMARK  8 active torsions:
REMARK  status: ('A' for Active; 'I' for Inactive)
REMARK    1  A    between atoms: N1_2  and  C2_4
REMARK    2  A    between atoms: C4_8  and  N3_9
REMARK    3  A    between atoms: N3_9  and  C5_11
REMARK    4  A    between atoms: C5_11  and  C6_12
REMARK    5  A    between atoms: C6_12  and  C7_13
REMARK    6  A    between atoms: C7_13  and  N4_14
REMARK    7  A    between atoms: N5_20  and  S1_21
REMARK    8  A    between atoms: S1_21  and  C13_24
ROOT
HETATM    1  C6  UNL     1      87.401  58.906  11.694  1.00  0.00     0.050 C
ENDROOT
BRANCH   1   2
HETATM    2  C5  UNL     1      87.136  58.767  13.142  1.00  0.00     0.123 C
BRANCH   2   3
HETATM    3  N3  UNL     1      85.724  59.071  13.350  1.00  0.00    -0.373 N
ATOM      4  H3  UNL     1      85.043  58.454  12.908  1.00  0.00     0.161 HD
BRANCH   3   5
HETATM    5  C4  UNL     1      85.272  60.045  14.040  1.00  0.00     0.144 A
HETATM    6  C3  UNL     1      84.093  60.695  13.658  1.00  0.00     0.091 A
HETATM    7  N2  UNL     1      83.460  60.279  12.562  1.00  0.00    -0.339 N
HETATM    8  C21 UNL     1      83.568  61.745  14.372  1.00  0.00     0.012 A
HETATM    9  C2  UNL     1      82.329  60.874  12.161  1.00  0.00     0.107 A
ATOM     10  H2  UNL     1      83.839  59.500  12.024  1.00  0.00     0.167 HD
HETATM   11  C23 UNL     1      81.762  61.934  12.847  1.00  0.00    -0.017 A
HETATM   12  C22 UNL     1      82.400  62.377  13.978  1.00  0.00     0.026 A
HETATM   13  C24 UNL     1      80.489  62.571  12.358  1.00  0.00     0.052 C
HETATM   14  C20 UNL     1      84.257  62.149  15.503  1.00  0.00     0.121 A
HETATM   15  N8  UNL     1      85.384  61.519  15.859  1.00  0.00    -0.309 N
HETATM   16  N7  UNL     1      85.867  60.495  15.136  1.00  0.00    -0.284 N
ATOM     17  H8  UNL     1      85.885  61.821  16.695  1.00  0.00     0.186 HD
ATOM     18  H7  UNL     1      86.729  60.045  15.443  1.00  0.00     0.188 HD
BRANCH   9  19
HETATM   19  N1  UNL     1      81.701  60.486  11.104  1.00  0.00    -0.380 N
HETATM   20  C1  UNL     1      82.373  59.853   9.994  1.00  0.00     0.147 C
ATOM     21  H1  UNL     1      80.693  60.632  11.050  1.00  0.00     0.160 HD
ENDBRANCH   9  19
ENDBRANCH   3   5
ENDBRANCH   2   3
ENDBRANCH   1   2
BRANCH   1  22
HETATM   22  C7  UNL     1      86.248  59.050  10.757  1.00  0.00     0.275 C
BRANCH  22  23
HETATM   23  N4  UNL     1      86.581  59.121   9.431  1.00  0.00     0.098 N
HETATM   24  C8  UNL     1      85.653  58.566   8.490  1.00  0.00     0.276 C
HETATM   25  C9  UNL     1      85.447  59.971   7.940  1.00  0.00     0.072 C
HETATM   26  C10 UNL     1      86.775  60.238   8.637  1.00  0.00     0.163 C
HETATM   27  C11 UNL     1      87.898  59.993   7.617  1.00  0.00     0.057 C
HETATM   28  C19 UNL     1      86.853  61.603   9.173  1.00  0.00     0.057 C
HETATM   29  C12 UNL     1      87.983  61.141   6.639  1.00  0.00     0.110 C
HETATM   30  N5  UNL     1      88.145  62.408   7.277  1.00  0.00    -0.210 NA
HETATM   31  C18 UNL     1      88.122  62.318   8.701  1.00  0.00     0.110 C
BRANCH  30  32
HETATM   32  S1  UNL     1      87.194  63.668   6.644  1.00  0.00     0.215 S
HETATM   33  O1  UNL     1      87.529  64.038   5.229  1.00  0.00    -0.211 OA
HETATM   34  O2  UNL     1      85.754  63.241   6.705  1.00  0.00    -0.211 OA
BRANCH  32  35
HETATM   35  C13 UNL     1      87.353  65.173   7.596  1.00  0.00     0.127 C
HETATM   36  C14 UNL     1      88.214  66.098   6.757  1.00  0.00     0.049 C
HETATM   37  C15 UNL     1      88.164  67.525   7.192  1.00  0.00     0.233 C
HETATM   38  N6  UNL     1      86.875  67.970   7.633  1.00  0.00    -0.075 N
HETATM   39  C16 UNL     1      85.819  67.082   7.224  1.00  0.00     0.233 C
ATOM     40  H62 UNL     1      86.863  68.116   8.642  1.00  0.00     0.277 HD
ATOM     41  H61 UNL     1      86.692  68.926   7.328  1.00  0.00     0.277 HD
HETATM   42  C17 UNL     1      86.007  65.764   7.930  1.00  0.00     0.049 C
ENDBRANCH  32  35
ENDBRANCH  30  32
ENDBRANCH  22  23
ENDBRANCH   1  22
TORSDOF 8
ENDMDL