MODEL 3
REMARK VINA RESULT: -5.532161077      2.060      2.648
REMARK  6 active torsions:
REMARK  status: ('A' for Active; 'I' for Inactive)
REMARK    1  A    between atoms: C4_8  and  C5_9
REMARK    2  A    between atoms: C5_9  and  C6_10
REMARK    3  A    between atoms: C6_10  and  C7_11
REMARK    4  A    between atoms: C7_11  and  C8_12
REMARK    5  A    between atoms: C8_12  and  C9_13
REMARK    6  A    between atoms: C9_13  and  N3_14
ROOT
HETATM    1  C1  UNL     1      74.287  62.559  15.165  1.00  0.00     0.153 C
HETATM    2  N1  UNL     1      74.971  63.780  15.548  1.00  0.00    -0.348 N
HETATM    3  C2  UNL     1      76.112  64.192  14.734  1.00  0.00     0.227 C
HETATM    4  C3  UNL     1      77.002  63.030  14.483  1.00  0.00     0.235 C
HETATM    5  O1  UNL     1      77.033  62.160  15.421  1.00  0.00    -0.272 OA
HETATM    6  N2  UNL     1      77.782  62.829  13.329  1.00  0.00    -0.355 N
ATOM      7  H2  UNL     1      77.740  61.903  12.903  1.00  0.00     0.162 HD
HETATM    8  C4  UNL     1      78.634  63.796  12.688  1.00  0.00     0.086 C
HETATM    9  C13 UNL     1      77.887  65.085  12.366  1.00  0.00     0.051 C
HETATM   10  C14 UNL     1      78.778  65.922  11.446  1.00  0.00     0.169 C
HETATM   11  O2  UNL     1      78.368  67.267  11.603  1.00  0.00    -0.389 OA
HETATM   12  C15 UNL     1      78.965  68.043  10.605  1.00  0.00     0.193 C
HETATM   13  C16 UNL     1      78.876  69.498  10.998  1.00  0.00     0.193 C
HETATM   14  O3  UNL     1      77.610  70.025  10.722  1.00  0.00    -0.387 OA
HETATM   15  C17 UNL     1      77.358  71.030  11.662  1.00  0.00     0.195 C
HETATM   16  C18 UNL     1      75.905  71.402  11.725  1.00  0.00     0.258 C
HETATM   17  N4  UNL     1      75.249  70.662  12.787  1.00  0.00    -0.073 N
ATOM     18  H41 UNL     1      75.910  70.346  13.496  1.00  0.00     0.277 HD
ATOM     19  H42 UNL     1      74.921  69.750  12.471  1.00  0.00     0.277 HD
HETATM   20  C19 UNL     1      74.174  71.462  13.359  1.00  0.00     0.232 C
HETATM   21  C20 UNL     1      73.910  71.085  14.792  1.00  0.00     0.029 C
HETATM   22  C21 UNL     1      72.444  70.764  15.006  1.00  0.00     0.029 C
HETATM   23  C22 UNL     1      72.088  69.446  14.378  1.00  0.00     0.232 C
HETATM   24  N5  UNL     1      73.201  68.551  14.425  1.00  0.00    -0.075 N
ATOM     25  H51 UNL     1      74.089  69.053  14.418  1.00  0.00     0.277 HD
ATOM     26  H52 UNL     1      73.307  68.037  13.550  1.00  0.00     0.277 HD
HETATM   27  C23 UNL     1      73.101  67.660  15.558  1.00  0.00     0.232 C
HETATM   28  C24 UNL     1      74.200  66.627  15.424  1.00  0.00     0.036 C
HETATM   29  C25 UNL     1      74.487  65.979  16.761  1.00  0.00     0.105 C
HETATM   30  C26 UNL     1      74.508  64.498  16.675  1.00  0.00     0.219 C
HETATM   31  O4  UNL     1      74.087  63.846  17.665  1.00  0.00    -0.273 OA
ENDROOT
BRANCH   8  32
HETATM   32  C5  UNL     1      79.188  63.275  11.410  1.00  0.00     0.025 C
BRANCH  32  33
HETATM   33  C6  UNL     1      80.503  62.541  11.558  1.00  0.00     0.002 C
BRANCH  33  34
HETATM   34  C7  UNL     1      81.243  62.866  12.820  1.00  0.00     0.002 C
BRANCH  34  35
HETATM   35  C8  UNL     1      81.796  61.676  13.543  1.00  0.00     0.028 C
BRANCH  35  36
HETATM   36  C9  UNL     1      83.183  61.777  14.048  1.00  0.00     0.236 C
BRANCH  36  37
HETATM   37  N3  UNL     1      84.091  60.736  13.713  1.00  0.00    -0.079 N
HETATM   38  C10 UNL     1      84.983  60.326  14.758  1.00  0.00     0.271 C
HETATM   39  C11 UNL     1      83.251  59.537  13.442  1.00  0.00     0.271 C
HETATM   40  C12 UNL     1      84.861  60.956  12.508  1.00  0.00     0.271 C
ENDBRANCH  36  37
ENDBRANCH  35  36
ENDBRANCH  34  35
ENDBRANCH  33  34
ENDBRANCH  32  33
ENDBRANCH   8  32
TORSDOF 6
ENDMDL