MODEL 3
REMARK VINA RESULT: -5.392168584      1.933      2.410
REMARK  8 active torsions:
REMARK  status: ('A' for Active; 'I' for Inactive)
REMARK    1  A    between atoms: C2_2  and  C3_3
REMARK    2  A    between atoms: C4_4  and  C5_5
REMARK       I    between atoms: C5_5  and  N1_7
REMARK    3  A    between atoms: C18_22  and  C19_23
REMARK    4  A    between atoms: C19_23  and  C20_24
REMARK    5  A    between atoms: C20_24  and  O3_25
REMARK    6  A    between atoms: C22_28  and  N2_29
REMARK    7  A    between atoms: N2_29  and  S2_31
REMARK    8  A    between atoms: S2_31  and  N3_32
ROOT
HETATM    1  C3  UNL     1      78.829  61.996  10.636  1.00  0.00    -0.032 C
HETATM    2  C4  UNL     1      78.551  62.447  11.900  1.00  0.00     0.046 C
HETATM    3  C11 UNL     1      79.396  62.278  12.979  1.00  0.00    -0.028 C
HETATM    4  C12 UNL     1      78.843  62.609  14.278  1.00  0.00     0.050 C
HETATM    5  C13 UNL     1      80.729  61.834  12.998  1.00  0.00     0.027 A
HETATM    6  S1  UNL     1      81.815  62.113  14.284  1.00  0.00    -0.093 SA
HETATM    7  C14 UNL     1      83.188  61.341  13.651  1.00  0.00    -0.007 A
HETATM    8  C15 UNL     1      82.770  60.879  12.448  1.00  0.00    -0.027 A
HETATM    9  C16 UNL     1      81.475  61.128  12.085  1.00  0.00     0.040 A
HETATM   10  C17 UNL     1      80.939  60.680  10.855  1.00  0.00     0.191 C
HETATM   11  O2  UNL     1      81.668  59.886  10.194  1.00  0.00    -0.287 OA
HETATM   12  C18 UNL     1      79.730  60.980  10.252  1.00  0.00     0.002 C
HETATM   13  C21 UNL     1      83.962  60.166  11.815  1.00  0.00     0.067 C
HETATM   14  C22 UNL     1      85.141  60.446  12.658  1.00  0.00     0.103 C
HETATM   15  C23 UNL     1      84.616  61.022  13.947  1.00  0.00     0.073 C
ENDROOT
BRANCH   2  16
HETATM   16  C5  UNL     1      77.347  63.138  12.209  1.00  0.00     0.254 C
HETATM   17  O1  UNL     1      76.365  62.339  12.488  1.00  0.00    -0.267 OA
HETATM   18  N1  UNL     1      77.038  64.499  12.260  1.00  0.00    -0.348 N
HETATM   19  C6  UNL     1      75.665  64.893  12.626  1.00  0.00     0.126 C
HETATM   20  C10 UNL     1      77.902  65.612  11.969  1.00  0.00     0.126 C
HETATM   21  C7  UNL     1      75.642  65.654  13.931  1.00  0.00     0.020 C
HETATM   22  C8  UNL     1      76.836  66.577  14.043  1.00  0.00     0.003 C
HETATM   23  C9  UNL     1      77.456  66.837  12.686  1.00  0.00     0.020 C
ENDBRANCH   2  16
BRANCH   1  24
HETATM   24  C2  UNL     1      78.152  62.691   9.549  1.00  0.00     0.036 C
HETATM   25  C1  UNL     1      78.981  63.801   8.984  1.00  0.00     0.010 C
ENDBRANCH   1  24
BRANCH  12  26
HETATM   26  C19 UNL     1      79.364  60.146   9.117  1.00  0.00     0.069 C
BRANCH  26  27
HETATM   27  C20 UNL     1      78.476  58.978   9.488  1.00  0.00     0.168 C
BRANCH  27  28
HETATM   28  O3  UNL     1      79.298  57.871   9.809  1.00  0.00    -0.401 OA
ATOM     29  H3  UNL     1      79.291  57.266   9.077  1.00  0.00     0.209 HD
ENDBRANCH  27  28
ENDBRANCH  26  27
ENDBRANCH  12  26
BRANCH  14  30
HETATM   30  N2  UNL     1      86.148  61.273  12.049  1.00  0.00    -0.298 N
ATOM     31  H2  UNL     1      85.970  62.251  11.821  1.00  0.00     0.174 HD
BRANCH  30  32
HETATM   32  S2  UNL     1      87.632  60.548  11.730  1.00  0.00     0.313 S
HETATM   33  O4  UNL     1      87.393  59.164  11.164  1.00  0.00    -0.183 OA
HETATM   34  O5  UNL     1      88.479  61.274  10.732  1.00  0.00    -0.183 OA
BRANCH  32  35
HETATM   35  N3  UNL     1      88.624  60.327  13.145  1.00  0.00    -0.312 N
ATOM     36  H32 UNL     1      89.556  60.732  13.225  1.00  0.00     0.170 HD
ATOM     37  H31 UNL     1      88.183  59.763  13.872  1.00  0.00     0.170 HD
ENDBRANCH  32  35
ENDBRANCH  30  32
ENDBRANCH  14  30
TORSDOF 8
ENDMDL