MODEL 3
REMARK VINA RESULT: -7.905975362      1.824      2.552
REMARK  7 active torsions:
REMARK  status: ('A' for Active; 'I' for Inactive)
REMARK    1  A    between atoms: N3_10  and  C6_12
REMARK    2  A    between atoms: C6_12  and  C7_13
REMARK    3  A    between atoms: C7_13  and  C8_14
REMARK    4  A    between atoms: C11_17  and  C12_18
REMARK    5  A    between atoms: C12_18  and  C13_19
REMARK    6  A    between atoms: C13_19  and  N4_20
REMARK    7  A    between atoms: C20_27  and  O1_28
REMARK       I    between atoms: N5_32  and  C23_34
ROOT
HETATM    1  C1  UNL     1      87.563  58.776  13.172  1.00  0.00     0.021 C
HETATM    2  C2  UNL     1      86.676  59.476  13.610  1.00  0.00    -0.040 C
HETATM    3  C3  UNL     1      85.599  60.294  14.132  1.00  0.00     0.178 A
HETATM    4  N1  UNL     1      85.694  60.839  15.342  1.00  0.00    -0.330 N
ATOM      5  H1  UNL     1      86.531  60.676  15.901  1.00  0.00     0.168 HD
HETATM    6  C4  UNL     1      84.705  61.600  15.838  1.00  0.00     0.200 A
HETATM    7  N2  UNL     1      83.602  61.804  15.081  1.00  0.00    -0.188 N
ATOM      8  H2  UNL     1      82.847  62.380  15.451  1.00  0.00     0.185 HD
HETATM    9  C5  UNL     1      83.475  61.267  13.852  1.00  0.00     0.682 A
HETATM   10  N3  UNL     1      82.455  61.438  13.113  1.00  0.00    -0.225 N
ATOM     11  H3  UNL     1      82.480  60.978  12.203  1.00  0.00     0.177 HD
HETATM   12  N9  UNL     1      84.483  60.515  13.392  1.00  0.00    -0.164 N
HETATM   13  C27 UNL     1      84.379  59.922  12.075  1.00  0.00     0.177 C
ENDROOT
BRANCH  10  14
HETATM   14  C6  UNL     1      81.278  62.195  13.402  1.00  0.00     0.142 C
BRANCH  14  15
HETATM   15  C7  UNL     1      80.915  62.984  12.168  1.00  0.00     0.058 C
BRANCH  15  16
HETATM   16  C8  UNL     1      79.736  63.868  12.376  1.00  0.00    -0.057 A
HETATM   17  C9  UNL     1      78.459  63.357  12.328  1.00  0.00     0.008 A
HETATM   18  C10 UNL     1      77.363  64.173  12.521  1.00  0.00     0.014 A
HETATM   19  C11 UNL     1      77.469  65.540  12.772  1.00  0.00    -0.012 A
HETATM   20  C25 UNL     1      78.741  66.042  12.819  1.00  0.00     0.014 A
HETATM   21  C26 UNL     1      79.851  65.210  12.623  1.00  0.00     0.008 A
BRANCH  19  22
HETATM   22  C12 UNL     1      76.243  66.318  12.963  1.00  0.00     0.040 C
HETATM   23  N5  UNL     1      75.330  66.162  13.775  1.00  0.00    -0.331 N
HETATM   24  C23 UNL     1      74.950  65.341  14.803  1.00  0.00     0.201 C
ATOM     25  H5  UNL     1      74.622  66.883  13.635  1.00  0.00     0.168 HD
HETATM   26  N6  UNL     1      74.186  64.169  14.550  1.00  0.00    -0.062 NA
HETATM   27  N7  UNL     1      75.258  65.607  16.025  1.00  0.00    -0.267 N
HETATM   28  C24 UNL     1      74.896  64.804  17.103  1.00  0.00     0.184 C
ATOM     29  H7  UNL     1      75.797  66.452  16.213  1.00  0.00     0.180 HD
HETATM   30  N8  UNL     1      74.595  64.142  18.015  1.00  0.00    -0.172 NA
BRANCH  22  31
HETATM   31  C13 UNL     1      76.046  67.505  12.009  1.00  0.00     0.181 C
BRANCH  31  32
HETATM   32  N4  UNL     1      76.442  67.157  10.668  1.00  0.00    -0.375 N
HETATM   33  C14 UNL     1      75.751  66.220   9.839  1.00  0.00     0.123 C
HETATM   34  C15 UNL     1      76.600  65.255   9.100  1.00  0.00     0.024 C
HETATM   35  C16 UNL     1      77.982  65.701   8.799  1.00  0.00     0.042 C
HETATM   36  C17 UNL     1      78.331  67.065   9.199  1.00  0.00    -0.031 A
HETATM   37  C18 UNL     1      79.462  67.641   8.625  1.00  0.00     0.012 A
HETATM   38  C22 UNL     1      77.599  67.806  10.113  1.00  0.00     0.039 A
HETATM   39  C19 UNL     1      79.806  68.939   8.999  1.00  0.00     0.037 A
HETATM   40  C20 UNL     1      79.074  69.667   9.907  1.00  0.00     0.067 A
HETATM   41  C21 UNL     1      77.942  69.091  10.480  1.00  0.00     0.066 A
BRANCH  40  42
HETATM   42  O1  UNL     1      79.470  70.959  10.238  1.00  0.00    -0.361 OA
ATOM     43  H1  UNL     1      80.342  71.113  10.583  1.00  0.00     0.217 HD
ENDBRANCH  40  42
ENDBRANCH  31  32
ENDBRANCH  22  31
ENDBRANCH  19  22
ENDBRANCH  15  16
ENDBRANCH  14  15
ENDBRANCH  10  14
TORSDOF 7
ENDMDL