MODEL 5
REMARK VINA RESULT: -7.907761872      1.120      1.202
REMARK  7 active torsions:
REMARK  status: ('A' for Active; 'I' for Inactive)
REMARK    1  A    between atoms: C1_2  and  C2_3
REMARK       I    between atoms: C1_2  and  N8_37
REMARK    2  A    between atoms: C2_3  and  C3_4
REMARK    3  A    between atoms: C3_4  and  C4_5
REMARK    4  A    between atoms: C7_10  and  C8_11
REMARK    5  A    between atoms: C8_11  and  N2_12
REMARK    6  A    between atoms: N2_12  and  C9_14
REMARK    7  A    between atoms: C12_23  and  C13_24
REMARK       I    between atoms: C13_24  and  N6_26
ROOT
HETATM    1  C9  UNL     1      83.217  61.001  14.455  1.00  0.00     0.122 A
HETATM    2  N3  UNL     1      83.520  61.760  15.524  1.00  0.00    -0.338 N
ATOM      3  H3  UNL     1      82.794  62.341  15.941  1.00  0.00     0.168 HD
HETATM    4  C10 UNL     1      84.764  61.775  16.063  1.00  0.00     0.183 A
HETATM    5  N4  UNL     1      85.735  61.009  15.519  1.00  0.00    -0.338 N
ATOM      6  H4  UNL     1      86.668  61.027  15.931  1.00  0.00     0.168 HD
HETATM    7  C11 UNL     1      85.508  60.224  14.451  1.00  0.00     0.127 A
HETATM    8  N5  UNL     1      86.465  59.459  13.901  1.00  0.00    -0.323 N
ATOM      9  H5  UNL     1      87.397  59.479  14.316  1.00  0.00     0.169 HD
HETATM   10  C12 UNL     1      86.262  58.665  12.829  1.00  0.00     0.179 A
HETATM   11  N7  UNL     1      85.023  58.666  12.312  1.00  0.00    -0.304 N
ATOM     12  H7  UNL     1      84.832  58.077  11.501  1.00  0.00     0.171 HD
HETATM   13  C18 UNL     1      84.016  59.413  12.818  1.00  0.00     0.264 A
HETATM   14  O4  UNL     1      82.864  59.409  12.329  1.00  0.00    -0.267 OA
HETATM   15  C19 UNL     1      84.236  60.221  13.914  1.00  0.00     0.120 A
ENDROOT
BRANCH   1  16
HETATM   16  N2  UNL     1      82.017  60.992  13.944  1.00  0.00    -0.370 N
ATOM     17  H2  UNL     1      81.567  60.123  13.659  1.00  0.00     0.161 HD
BRANCH  16  18
HETATM   18  C8  UNL     1      81.354  62.269  13.801  1.00  0.00     0.178 C
BRANCH  18  19
HETATM   19  C7  UNL     1      80.726  62.403  12.451  1.00  0.00     0.033 A
HETATM   20  C4  UNL     1      79.736  63.315  12.139  1.00  0.00    -0.032 A
HETATM   21  C5  UNL     1      79.434  63.114  10.811  1.00  0.00     0.026 A
HETATM   22  C6  UNL     1      80.245  62.096  10.365  1.00  0.00     0.089 A
HETATM   23  N1  UNL     1      81.036  61.662  11.373  1.00  0.00    -0.367 N
ATOM     24  H1  UNL     1      81.732  60.918  11.325  1.00  0.00     0.165 HD
BRANCH  20  25
HETATM   25  C3  UNL     1      79.119  64.314  13.010  1.00  0.00     0.050 C
BRANCH  25  26
HETATM   26  C2  UNL     1      77.668  64.146  13.289  1.00  0.00     0.108 C
BRANCH  26  27
HETATM   27  C1  UNL     1      77.274  62.893  13.936  1.00  0.00     0.222 C
HETATM   28  O1  UNL     1      76.801  61.914  13.307  1.00  0.00    -0.273 OA
HETATM   29  N8  UNL     1      77.408  62.715  15.345  1.00  0.00    -0.334 N
HETATM   30  C20 UNL     1      76.447  62.825  16.167  1.00  0.00    -0.011 C
ATOM     31  H8  UNL     1      78.331  62.487  15.713  1.00  0.00     0.168 HD
HETATM   32  C21 UNL     1      76.672  62.625  17.612  1.00  0.00     0.052 C
HETATM   33  C25 UNL     1      75.089  63.154  15.701  1.00  0.00     0.052 C
HETATM   34  C22 UNL     1      75.288  62.680  18.265  1.00  0.00     0.006 C
HETATM   35  C23 UNL     1      74.344  61.759  17.566  1.00  0.00     0.001 C
HETATM   36  C24 UNL     1      74.174  62.020  16.098  1.00  0.00     0.006 C
ENDBRANCH  26  27
ENDBRANCH  25  26
ENDBRANCH  20  25
ENDBRANCH  18  19
ENDBRANCH  16  18
ENDBRANCH   1  16
BRANCH  10  37
HETATM   37  C13 UNL     1      87.340  57.848  12.268  1.00  0.00     0.288 C
HETATM   38  O2  UNL     1      87.054  56.647  11.939  1.00  0.00    -0.264 OA
HETATM   39  N6  UNL     1      88.648  58.362  12.093  1.00  0.00    -0.342 N
HETATM   40  C14 UNL     1      89.059  59.704  12.438  1.00  0.00     0.152 C
HETATM   41  C17 UNL     1      89.673  57.502  11.529  1.00  0.00     0.152 C
HETATM   42  C15 UNL     1      90.537  59.790  12.022  1.00  0.00     0.187 C
HETATM   43  O3  UNL     1      91.290  58.835  12.682  1.00  0.00    -0.388 OA
HETATM   44  C16 UNL     1      90.847  57.543  12.489  1.00  0.00     0.187 C
ENDBRANCH  10  37
TORSDOF 7
ENDMDL