MODEL 3
REMARK VINA RESULT: -7.065846289      1.290      1.500
REMARK  9 active torsions:
REMARK  status: ('A' for Active; 'I' for Inactive)
REMARK    1  A    between atoms: C2_2  and  S1_3
REMARK    2  A    between atoms: S1_3  and  C3_6
REMARK    3  A    between atoms: C6_9  and  S2_10
REMARK    4  A    between atoms: S2_10  and  N1_13
REMARK    5  A    between atoms: N1_13  and  C7_15
REMARK    6  A    between atoms: C10_22  and  N4_23
REMARK    7  A    between atoms: N4_23  and  C11_25
REMARK    8  A    between atoms: C15_31  and  C16_32
REMARK    9  A    between atoms: C16_32  and  O5_33
ROOT
HETATM    1  C7  UNL     1      83.952  61.333  14.012  1.00  0.00     0.160 A
HETATM    2  N2  UNL     1      84.140  62.392  14.810  1.00  0.00    -0.347 N
ATOM      3  H2  UNL     1      83.849  63.325  14.521  1.00  0.00     0.167 HD
HETATM    4  C8  UNL     1      84.729  62.185  16.012  1.00  0.00     0.107 A
HETATM    5  C9  UNL     1      85.140  60.951  16.454  1.00  0.00     0.107 A
HETATM    6  N3  UNL     1      84.925  59.917  15.607  1.00  0.00    -0.348 N
ATOM      7  H3  UNL     1      85.217  58.985  15.903  1.00  0.00     0.167 HD
HETATM    8  C10 UNL     1      84.352  60.046  14.410  1.00  0.00     0.151 A
ENDROOT
BRANCH   1   9
HETATM    9  N1  UNL     1      83.415  61.406  12.872  1.00  0.00    -0.263 N
ATOM     10  H1  UNL     1      83.997  61.797  12.131  1.00  0.00     0.180 HD
BRANCH   9  11
HETATM   11  S2  UNL     1      81.859  60.940  12.413  1.00  0.00     0.264 S
HETATM   12  O3  UNL     1      81.101  60.205  13.503  1.00  0.00    -0.200 OA
HETATM   13  O4  UNL     1      82.038  59.977  11.224  1.00  0.00    -0.200 OA
BRANCH  11  14
HETATM   14  C6  UNL     1      80.843  62.248  11.863  1.00  0.00     0.080 A
HETATM   15  C5  UNL     1      80.707  63.365  12.637  1.00  0.00     0.027 A
HETATM   16  C4  UNL     1      79.909  64.445  12.247  1.00  0.00     0.025 A
HETATM   17  C3  UNL     1      79.241  64.391  11.057  1.00  0.00     0.059 A
HETATM   18  C22 UNL     1      79.372  63.273  10.276  1.00  0.00     0.025 A
HETATM   19  C21 UNL     1      80.159  62.214  10.664  1.00  0.00     0.027 A
BRANCH  17  20
HETATM   20  S1  UNL     1      78.248  65.754  10.591  1.00  0.00     0.175 S
HETATM   21  O1  UNL     1      76.804  65.371  10.775  1.00  0.00    -0.223 OA
HETATM   22  O2  UNL     1      78.506  66.176   9.171  1.00  0.00    -0.223 OA
BRANCH  20  23
HETATM   23  C2  UNL     1      78.578  67.162  11.629  1.00  0.00     0.141 C
HETATM   24  C1  UNL     1      79.668  67.999  11.039  1.00  0.00     0.021 C
ENDBRANCH  20  23
ENDBRANCH  17  20
ENDBRANCH  11  14
ENDBRANCH   9  11
ENDBRANCH   1   9
BRANCH   8  25
HETATM   25  N4  UNL     1      84.159  59.038  13.622  1.00  0.00    -0.338 N
ATOM     26  H4  UNL     1      83.222  58.677  13.448  1.00  0.00     0.167 HD
BRANCH  25  27
HETATM   27  C11 UNL     1      85.297  58.452  13.007  1.00  0.00     0.056 A
HETATM   28  C12 UNL     1      85.262  57.244  12.467  1.00  0.00     0.032 A
HETATM   29  C13 UNL     1      83.951  56.517  12.536  1.00  0.00     0.070 C
HETATM   30  N5  UNL     1      86.394  56.648  11.849  1.00  0.00    -0.367 N
HETATM   31  C14 UNL     1      87.540  57.251  11.775  1.00  0.00     0.098 A
ATOM     32  H5  UNL     1      86.303  55.714  11.449  1.00  0.00     0.165 HD
HETATM   33  C15 UNL     1      87.641  58.576  12.347  1.00  0.00    -0.002 A
HETATM   34  C20 UNL     1      86.603  59.140  12.922  1.00  0.00     0.043 A
BRANCH  33  35
HETATM   35  C16 UNL     1      88.921  59.310  12.292  1.00  0.00     0.107 A
HETATM   36  C17 UNL     1      90.097  58.462  12.156  1.00  0.00     0.012 A
HETATM   37  C18 UNL     1      90.362  58.868  10.953  1.00  0.00    -0.024 A
HETATM   38  C19 UNL     1      89.229  59.768  10.923  1.00  0.00     0.074 A
BRANCH  35  39
HETATM   39  O5  UNL     1      89.031  60.324  13.256  1.00  0.00    -0.381 OA
ATOM     40  H5  UNL     1      89.821  60.844  13.174  1.00  0.00     0.211 HD
ENDBRANCH  35  39
ENDBRANCH  33  35
ENDBRANCH  25  27
ENDBRANCH   8  25
TORSDOF 9
ENDMDL