MODEL 4
REMARK VINA RESULT: -6.296902073      6.853     11.270
REMARK  6 active torsions:
REMARK  status: ('A' for Active; 'I' for Inactive)
REMARK    1  A    between atoms: C2_2  and  N1_3
REMARK    2  A    between atoms: C2_2  and  C12_22
REMARK       I    between atoms: N1_3  and  C3_5
REMARK    3  A    between atoms: C3_5  and  C4_7
REMARK    4  A    between atoms: C4_7  and  C5_8
REMARK    5  A    between atoms: C4_7  and  N2_12
REMARK    6  A    between atoms: C5_8  and  C6_9
REMARK       I    between atoms: N2_12  and  C7_14
REMARK       I    between atoms: C7_14  and  N3_16
REMARK       I    between atoms: C12_22  and  N4_24
ROOT
HETATM    1  C1  UNL     1      80.428  58.238  11.573  1.00  0.00     0.042 C
HETATM    2  C2  UNL     1      80.645  59.719  11.782  1.00  0.00     0.172 C
ENDROOT
BRANCH   2   3
HETATM    3  N1  UNL     1      82.017  59.892  12.237  1.00  0.00    -0.346 N
HETATM    4  C3  UNL     1      82.362  60.539  13.431  1.00  0.00     0.241 C
HETATM    5  O1  UNL     1      81.412  60.996  14.126  1.00  0.00    -0.271 OA
ATOM      6  H1  UNL     1      82.768  59.522  11.655  1.00  0.00     0.163 HD
BRANCH   4   7
HETATM    7  C4  UNL     1      83.737  60.718  13.919  1.00  0.00     0.188 C
BRANCH   7   8
HETATM    8  C5  UNL     1      83.961  62.019  14.664  1.00  0.00     0.148 C
BRANCH   8   9
HETATM    9  C6  UNL     1      84.632  61.770  15.948  1.00  0.00     0.175 C
HETATM   10  O2  UNL     1      85.057  62.771  16.585  1.00  0.00    -0.648 OA
HETATM   11  O3  UNL     1      84.820  60.503  16.490  1.00  0.00    -0.648 OA
ENDBRANCH   8   9
ENDBRANCH   7   8
BRANCH   7  12
HETATM   12  N2  UNL     1      84.667  60.822  12.767  1.00  0.00    -0.329 N
HETATM   13  C7  UNL     1      85.801  60.004  12.756  1.00  0.00     0.319 C
HETATM   14  O4  UNL     1      85.989  59.201  13.737  1.00  0.00    -0.247 OA
HETATM   15  N3  UNL     1      86.732  60.040  11.701  1.00  0.00    -0.330 N
HETATM   16  C8  UNL     1      86.557  60.929  10.590  1.00  0.00     0.153 C
HETATM   17  C11 UNL     1      87.886  59.164  11.724  1.00  0.00     0.153 C
HETATM   18  C9  UNL     1      87.915  61.559  10.275  1.00  0.00     0.187 C
HETATM   19  O5  UNL     1      88.937  60.642  10.240  1.00  0.00    -0.388 OA
HETATM   20  C10 UNL     1      89.116  60.003  11.470  1.00  0.00     0.187 C
ATOM     21  H2  UNL     1      84.484  61.474  12.004  1.00  0.00     0.165 HD
ENDBRANCH   7  12
ENDBRANCH   4   7
ENDBRANCH   2   3
BRANCH   2  22
HETATM   22  C12 UNL     1      80.324  60.535  10.595  1.00  0.00     0.244 C
HETATM   23  O6  UNL     1      81.255  60.578   9.709  1.00  0.00    -0.271 OA
HETATM   24  N4  UNL     1      79.178  61.244  10.319  1.00  0.00    -0.331 N
HETATM   25  C13 UNL     1      78.483  62.096  10.905  1.00  0.00     0.013 C
ATOM     26  H4  UNL     1      78.800  61.012   9.400  1.00  0.00     0.168 HD
HETATM   27  C14 UNL     1      78.786  62.620  12.243  1.00  0.00     0.055 C
HETATM   28  C24 UNL     1      77.256  62.629  10.217  1.00  0.00     0.220 C
HETATM   29  C15 UNL     1      80.039  63.416  12.359  1.00  0.00     0.006 C
HETATM   30  C16 UNL     1      79.977  64.827  11.895  1.00  0.00     0.000 C
HETATM   31  C17 UNL     1      79.200  65.671  12.896  1.00  0.00     0.000 C
HETATM   32  C18 UNL     1      78.549  66.782  12.149  1.00  0.00     0.000 C
HETATM   33  C19 UNL     1      77.317  67.358  12.749  1.00  0.00     0.000 C
HETATM   34  C20 UNL     1      76.577  66.540  13.729  1.00  0.00     0.000 C
HETATM   35  C21 UNL     1      75.690  65.475  13.254  1.00  0.00     0.002 C
HETATM   36  C22 UNL     1      75.441  65.352  11.804  1.00  0.00     0.026 C
HETATM   37  C23 UNL     1      75.644  63.922  11.282  1.00  0.00     0.168 C
HETATM   38  O7  UNL     1      76.896  63.865  10.678  1.00  0.00    -0.386 OA
ENDBRANCH   2  22
TORSDOF 6
ENDMDL