MODEL 3
REMARK VINA RESULT: -7.548643735      3.994      9.874
REMARK  8 active torsions:
REMARK  status: ('A' for Active; 'I' for Inactive)
REMARK    1  A    between atoms: C3_5  and  N2_6
REMARK    2  A    between atoms: C4_10  and  C5_11
REMARK    3  A    between atoms: N3_14  and  C8_15
REMARK    4  A    between atoms: C8_15  and  C9_16
REMARK    5  A    between atoms: C12_19  and  C13_20
REMARK    6  A    between atoms: C16_23  and  S2_24
REMARK    7  A    between atoms: S2_24  and  N4_25
REMARK    8  A    between atoms: C20_33  and  S3_34
ROOT
HETATM    1  C9  UNL     1      77.755  64.115  12.043  1.00  0.00    -0.014 A
HETATM    2  C10 UNL     1      78.858  64.207  11.144  1.00  0.00     0.011 A
HETATM    3  C11 UNL     1      80.029  63.544  11.331  1.00  0.00     0.013 A
HETATM    4  C12 UNL     1      80.164  62.739  12.449  1.00  0.00    -0.024 A
HETATM    5  C19 UNL     1      79.106  62.650  13.311  1.00  0.00     0.039 A
HETATM    6  C20 UNL     1      77.884  63.328  13.134  1.00  0.00     0.089 A
ENDROOT
BRANCH   1   7
HETATM    7  C8  UNL     1      76.586  64.929  11.748  1.00  0.00     0.188 C
BRANCH   7   8
HETATM    8  N3  UNL     1      76.643  66.324  12.088  1.00  0.00    -0.299 N
HETATM    9  C7  UNL     1      77.218  67.343  11.486  1.00  0.00     0.113 A
HETATM   10  C6  UNL     1      76.959  68.473  12.225  1.00  0.00     0.051 A
HETATM   11  C5  UNL     1      76.186  68.082  13.321  1.00  0.00     0.068 A
HETATM   12  N5  UNL     1      76.024  66.786  13.195  1.00  0.00    -0.297 N
ATOM     13  H5  UNL     1      75.498  66.205  13.847  1.00  0.00     0.187 HD
BRANCH  11  14
HETATM   14  C4  UNL     1      75.727  69.020  14.349  1.00  0.00     0.058 A
HETATM   15  C2  UNL     1      75.037  68.862  15.517  1.00  0.00     0.027 A
HETATM   16  C1  UNL     1      74.622  67.458  15.957  1.00  0.00     0.070 C
HETATM   17  N1  UNL     1      74.764  69.926  16.223  1.00  0.00    -0.340 N
HETATM   18  C3  UNL     1      75.165  71.113  15.785  1.00  0.00     0.143 A
ATOM     19  H1  UNL     1      74.249  69.846  17.100  1.00  0.00     0.168 HD
HETATM   20  S1  UNL     1      75.955  70.738  14.327  1.00  0.00    -0.050 SA
BRANCH  18  21
HETATM   21  N2  UNL     1      74.975  72.278  16.368  1.00  0.00    -0.380 N
ATOM     22  H22 UNL     1      74.279  72.559  17.059  1.00  0.00     0.158 HD
ATOM     23  H21 UNL     1      75.513  73.132  16.223  1.00  0.00     0.158 HD
ENDBRANCH  18  21
ENDBRANCH  11  14
ENDBRANCH   7   8
ENDBRANCH   1   7
BRANCH   6  24
HETATM   24  S3  UNL     1      76.686  63.053  14.309  1.00  0.00     0.138 S
HETATM   25  O3  UNL     1      75.654  62.022  13.867  1.00  0.00    -0.591 OA
HETATM   26  O4  UNL     1      77.322  62.390  15.525  1.00  0.00    -0.591 OA
HETATM   27  O5  UNL     1      75.904  64.399  14.906  1.00  0.00    -0.591 OA
ENDBRANCH   6  24
BRANCH   4  28
HETATM   28  C13 UNL     1      81.400  62.022  12.711  1.00  0.00    -0.026 A
HETATM   29  C14 UNL     1      82.222  62.233  13.793  1.00  0.00     0.014 A
HETATM   30  C15 UNL     1      83.383  61.525  14.000  1.00  0.00     0.026 A
HETATM   31  C16 UNL     1      83.773  60.548  13.102  1.00  0.00     0.079 A
HETATM   32  C17 UNL     1      82.961  60.313  11.997  1.00  0.00     0.026 A
HETATM   33  C18 UNL     1      81.803  61.039  11.817  1.00  0.00     0.014 A
BRANCH  31  34
HETATM   34  S2  UNL     1      85.233  59.630  13.361  1.00  0.00     0.256 S
HETATM   35  O1  UNL     1      85.025  58.209  12.927  1.00  0.00    -0.201 OA
HETATM   36  O2  UNL     1      86.410  60.253  12.672  1.00  0.00    -0.201 OA
BRANCH  34  37
HETATM   37  N4  UNL     1      85.561  59.596  15.055  1.00  0.00    -0.324 N
ATOM     38  H42 UNL     1      84.860  59.466  15.785  1.00  0.00     0.169 HD
ATOM     39  H41 UNL     1      86.564  59.725  15.191  1.00  0.00     0.169 HD
ENDBRANCH  34  37
ENDBRANCH  31  34
ENDBRANCH   4  28
TORSDOF 8
ENDMDL