MODEL 5
REMARK VINA RESULT: -6.985250704      1.074      1.909
REMARK  6 active torsions:
REMARK  status: ('A' for Active; 'I' for Inactive)
REMARK    1  A    between atoms: N1_5  and  S1_6
REMARK    2  A    between atoms: S1_6  and  N2_9
REMARK    3  A    between atoms: N2_9  and  C5_11
REMARK    4  A    between atoms: N3_14  and  C8_15
REMARK    5  A    between atoms: C13_23  and  C14_24
REMARK       I    between atoms: C14_24  and  N5_26
REMARK    6  A    between atoms: N5_26  and  C15_28
ROOT
HETATM    1  C1  UNL     1      78.634  65.090   9.470  1.00  0.00     0.010 C
HETATM    2  C2  UNL     1      78.229  65.620  10.830  1.00  0.00    -0.015 C
HETATM    3  C3  UNL     1      79.383  65.870  11.726  1.00  0.00     0.025 C
HETATM    4  C4  UNL     1      79.782  64.765  12.646  1.00  0.00     0.138 C
HETATM    5  N1  UNL     1      78.679  64.061  13.220  1.00  0.00    -0.281 N
HETATM    6  C13 UNL     1      77.493  64.772  12.978  1.00  0.00     0.189 C
HETATM    7  C25 UNL     1      77.213  64.737  11.499  1.00  0.00     0.040 C
ENDROOT
BRANCH   5   8
HETATM    8  S1  UNL     1      78.756  62.397  13.071  1.00  0.00     0.318 S
HETATM    9  O1  UNL     1      77.534  61.623  13.435  1.00  0.00    -0.183 OA
HETATM   10  O2  UNL     1      78.985  62.060  11.585  1.00  0.00    -0.183 OA
BRANCH   8  11
HETATM   11  N2  UNL     1      80.137  61.832  13.964  1.00  0.00    -0.296 N
ATOM     12  H2  UNL     1      80.179  61.838  14.983  1.00  0.00     0.174 HD
BRANCH  11  13
HETATM   13  C5  UNL     1      81.201  61.359  13.151  1.00  0.00     0.124 C
HETATM   14  C6  UNL     1      81.193  59.825  13.207  1.00  0.00     0.058 C
HETATM   15  C7  UNL     1      82.658  59.404  13.233  1.00  0.00     0.277 C
HETATM   16  N3  UNL     1      83.358  60.629  13.029  1.00  0.00     0.121 N
HETATM   17  C12 UNL     1      82.588  61.657  13.695  1.00  0.00     0.300 C
BRANCH  16  18
HETATM   18  C8  UNL     1      84.739  60.638  13.376  1.00  0.00     0.419 C
HETATM   19  C9  UNL     1      85.615  60.728  12.163  1.00  0.00     0.067 C
HETATM   20  C10 UNL     1      86.329  59.394  12.143  1.00  0.00     0.031 C
HETATM   21  C11 UNL     1      86.349  58.969  13.593  1.00  0.00     0.235 C
HETATM   22  N4  UNL     1      85.185  59.571  14.208  1.00  0.00    -0.043 N
ATOM     23  H42 UNL     1      85.358  59.868  15.168  1.00  0.00     0.279 HD
ATOM     24  H41 UNL     1      84.450  58.891  14.402  1.00  0.00     0.279 HD
ENDBRANCH  16  18
ENDBRANCH  11  13
ENDBRANCH   8  11
ENDBRANCH   5   8
BRANCH   6  25
HETATM   25  C14 UNL     1      76.347  64.541  13.850  1.00  0.00     0.242 C
HETATM   26  O3  UNL     1      75.206  64.866  13.494  1.00  0.00    -0.271 OA
HETATM   27  N5  UNL     1      76.529  63.943  15.109  1.00  0.00    -0.350 N
ATOM     28  H5  UNL     1      77.480  63.687  15.374  1.00  0.00     0.163 HD
BRANCH  27  29
HETATM   29  C15 UNL     1      75.477  63.664  16.056  1.00  0.00     0.034 C
HETATM   30  C16 UNL     1      74.860  64.892  16.660  1.00  0.00     0.035 C
HETATM   31  C17 UNL     1      73.830  64.431  17.682  1.00  0.00    -0.012 C
HETATM   32  C18 UNL     1      72.752  63.601  17.003  1.00  0.00     0.009 C
HETATM   33  C22 UNL     1      74.457  63.611  18.762  1.00  0.00     0.009 C
HETATM   34  C19 UNL     1      73.375  62.375  16.366  1.00  0.00    -0.012 C
HETATM   35  C20 UNL     1      73.960  61.532  17.452  1.00  0.00     0.009 C
HETATM   36  C24 UNL     1      74.403  62.858  15.363  1.00  0.00     0.035 C
HETATM   37  C21 UNL     1      75.023  62.347  18.149  1.00  0.00    -0.012 C
HETATM   38  C23 UNL     1      76.046  62.746  17.136  1.00  0.00     0.035 C
ENDBRANCH  27  29
ENDBRANCH   6  25
TORSDOF 6
ENDMDL