MODEL 4
REMARK VINA RESULT: -5.101836229      1.902      2.368
REMARK  5 active torsions:
REMARK  status: ('A' for Active; 'I' for Inactive)
REMARK    1  A    between atoms: C2_2  and  C3_3
REMARK    2  A    between atoms: C3_3  and  C4_4
REMARK    3  A    between atoms: C4_4  and  C5_5
REMARK    4  A    between atoms: C5_5  and  C6_6
REMARK    5  A    between atoms: C18_23  and  C19_24
REMARK       I    between atoms: C19_24  and  N3_26
ROOT
HETATM    1  C4  UNL     1      76.778  63.027  12.835  1.00  0.00     0.061 C
HETATM    2  C8  UNL     1      75.900  62.292  11.804  1.00  0.00     0.038 C
HETATM    3  C9  UNL     1      76.657  61.489  10.822  1.00  0.00     0.003 C
HETATM    4  C10 UNL     1      76.850  60.040  11.199  1.00  0.00     0.000 C
HETATM    5  C11 UNL     1      77.146  59.286   9.916  1.00  0.00     0.002 C
HETATM    6  C12 UNL     1      78.059  58.111  10.144  1.00  0.00     0.020 C
HETATM    7  C13 UNL     1      79.478  58.594  10.374  1.00  0.00     0.122 C
HETATM    8  N1  UNL     1      80.144  58.747   9.101  1.00  0.00    -0.361 N
ATOM      9  H1  UNL     1      80.028  58.012   8.402  1.00  0.00     0.162 HD
HETATM   10  C14 UNL     1      80.946  59.861   8.774  1.00  0.00     0.226 C
HETATM   11  O1  UNL     1      80.888  60.413   7.646  1.00  0.00    -0.273 OA
HETATM   12  C15 UNL     1      81.928  60.472   9.742  1.00  0.00     0.205 C
HETATM   13  C16 UNL     1      82.472  59.373  10.564  1.00  0.00     0.229 C
HETATM   14  O2  UNL     1      82.636  58.259  10.007  1.00  0.00    -0.273 OA
HETATM   15  N2  UNL     1      82.825  59.488  11.941  1.00  0.00    -0.342 N
HETATM   16  C17 UNL     1      82.828  58.359  12.840  1.00  0.00     0.153 C
HETATM   17  C18 UNL     1      83.215  60.775  12.526  1.00  0.00     0.188 C
HETATM   18  C21 UNL     1      82.245  61.049  13.649  1.00  0.00     0.146 C
HETATM   19  C22 UNL     1      81.485  62.291  13.415  1.00  0.00     0.261 C
HETATM   20  O4  UNL     1      81.776  63.113  12.521  1.00  0.00    -0.265 OA
HETATM   21  O5  UNL     1      80.407  62.539  14.233  1.00  0.00    -0.319 OA
HETATM   22  C23 UNL     1      79.445  61.591  14.642  1.00  0.00     0.205 C
HETATM   23  C24 UNL     1      78.078  62.294  14.641  1.00  0.00     0.195 C
HETATM   24  O6  UNL     1      77.448  61.953  13.478  1.00  0.00    -0.378 OA
ENDROOT
BRANCH  17  25
HETATM   25  C19 UNL     1      84.596  60.704  13.056  1.00  0.00     0.247 C
HETATM   26  O3  UNL     1      84.738  60.124  14.206  1.00  0.00    -0.271 OA
HETATM   27  N3  UNL     1      85.754  61.182  12.479  1.00  0.00    -0.302 N
HETATM   28  C20 UNL     1      86.335  61.048  11.382  1.00  0.00     0.203 C
ATOM     29  H3  UNL     1      86.265  61.802  13.107  1.00  0.00     0.171 HD
HETATM   30  N4  UNL     1      87.574  61.708  11.099  1.00  0.00    -0.066 NA
HETATM   31  N5  UNL     1      85.791  60.229  10.366  1.00  0.00    -0.066 NA
ENDBRANCH  17  25
BRANCH   1  32
HETATM   32  C3  UNL     1      77.796  63.858  12.211  1.00  0.00     0.038 C
BRANCH  32  33
HETATM   33  C2  UNL     1      77.868  65.315  12.391  1.00  0.00    -0.002 C
HETATM   34  C1  UNL     1      79.340  65.617  12.792  1.00  0.00     0.005 C
ENDBRANCH  32  33
ENDBRANCH   1  32
BRANCH   1  35
HETATM   35  C5  UNL     1      75.829  63.577  13.827  1.00  0.00     0.038 C
BRANCH  35  36
HETATM   36  C6  UNL     1      74.410  63.762  13.447  1.00  0.00    -0.002 C
HETATM   37  C7  UNL     1      74.211  65.301  13.317  1.00  0.00     0.005 C
ENDBRANCH  35  36
ENDBRANCH   1  35
TORSDOF 5
ENDMDL