MODEL 4
REMARK VINA RESULT: -8.724893483      2.890     10.859
REMARK  17 active torsions:
REMARK  status: ('A' for Active; 'I' for Inactive)
REMARK    1  A    between atoms: C2_2  and  C3_3
REMARK    2  A    between atoms: C5_5  and  C6_6
REMARK    3  A    between atoms: C6_6  and  C7_7
REMARK    4  A    between atoms: C9_9  and  O1_10
REMARK    5  A    between atoms: C11_13  and  C12_14
REMARK    6  A    between atoms: C12_14  and  C13_15
REMARK    7  A    between atoms: C14_16  and  C15_17
REMARK    8  A    between atoms: C15_17  and  C16_18
REMARK    9  A    between atoms: C17_19  and  C18_20
REMARK   10  A    between atoms: C18_20  and  S1_21
REMARK   11  A    between atoms: S1_21  and  C19_22
REMARK   12  A    between atoms: C19_22  and  O2_23
REMARK   13  A    between atoms: C19_22  and  C23_28
REMARK   14  A    between atoms: O2_23  and  O3_24
REMARK   15  A    between atoms: O3_24  and  C20_25
REMARK   16  A    between atoms: C23_28  and  O4_29
REMARK   17  A    between atoms: C23_28  and  C24_31
ROOT
HETATM    1  C13 UNL     1      12.862  16.761  10.390  1.00  0.00    -0.026 C
HETATM    2  C14 UNL     1      13.210  17.852   9.785  1.00  0.00    -0.027 C
ENDROOT
BRANCH   2   3
HETATM    3  C15 UNL     1      14.593  18.291   9.569  1.00  0.00     0.053 C
BRANCH   3   4
HETATM    4  C16 UNL     1      15.039  19.249  10.613  1.00  0.00    -0.026 C
HETATM    5  C17 UNL     1      16.105  19.960  10.505  1.00  0.00    -0.020 C
BRANCH   5   6
HETATM    6  C18 UNL     1      17.040  19.965   9.390  1.00  0.00     0.103 C
BRANCH   6   7
HETATM    7  S1  UNL     1      17.456  21.682   8.946  1.00  0.00    -0.124 SA
BRANCH   7   8
HETATM    8  C19 UNL     1      16.004  22.341   8.010  1.00  0.00     0.278 C
BRANCH   8   9
HETATM    9  O2  UNL     1      16.479  22.831   6.842  1.00  0.00    -0.218 OA
BRANCH   9  10
HETATM   10  O3  UNL     1      17.311  23.810   6.951  1.00  0.00    -0.235 OA
BRANCH  10  11
HETATM   11  C20 UNL     1      17.344  24.716   5.922  1.00  0.00     0.152 C
HETATM   12  C21 UNL     1      18.527  25.642   6.119  1.00  0.00     0.042 C
HETATM   13  C22 UNL     1      17.436  23.983   4.598  1.00  0.00     0.042 C
ENDBRANCH  10  11
ENDBRANCH   9  10
ENDBRANCH   8   9
BRANCH   8  14
HETATM   14  C23 UNL     1      15.237  23.211   8.888  1.00  0.00     0.090 C
BRANCH  14  15
HETATM   15  O4  UNL     1      15.732  24.388   9.181  1.00  0.00    -0.361 OA
ATOM     16  H4  UNL     1      16.527  24.663   8.741  1.00  0.00     0.217 HD
ENDBRANCH  14  15
BRANCH  14  17
HETATM   17  C24 UNL     1      13.968  22.915   9.482  1.00  0.00    -0.039 C
HETATM   18  C25 UNL     1      13.086  22.021   9.137  1.00  0.00     0.021 C
HETATM   19  C26 UNL     1      13.546  23.749  10.703  1.00  0.00     0.050 C
ENDBRANCH  14  17
ENDBRANCH   8  14
ENDBRANCH   7   8
ENDBRANCH   6   7
ENDBRANCH   5   6
ENDBRANCH   3   4
ENDBRANCH   2   3
BRANCH   1  20
HETATM   20  C12 UNL     1      13.807  15.790  10.956  1.00  0.00     0.065 C
BRANCH  20  21
HETATM   21  C11 UNL     1      13.636  15.655  12.440  1.00  0.00    -0.052 A
HETATM   22  C10 UNL     1      14.592  16.208  13.255  1.00  0.00     0.044 A
HETATM   23  C9  UNL     1      14.396  16.068  14.627  1.00  0.00     0.066 A
HETATM   24  C8  UNL     1      13.270  15.392  15.099  1.00  0.00     0.044 A
HETATM   25  C7  UNL     1      12.338  14.853  14.257  1.00  0.00    -0.052 A
HETATM   26  C27 UNL     1      12.531  14.991  12.892  1.00  0.00     0.015 A
BRANCH  23  27
HETATM   27  O1  UNL     1      15.328  16.605  15.480  1.00  0.00    -0.361 OA
ATOM     28  H1  UNL     1      16.196  16.230  15.574  1.00  0.00     0.217 HD
ENDBRANCH  23  27
BRANCH  25  29
HETATM   29  C6  UNL     1      11.119  14.128  14.715  1.00  0.00     0.066 C
BRANCH  29  30
HETATM   30  C5  UNL     1      10.662  13.259  13.607  1.00  0.00    -0.015 C
HETATM   31  C3  UNL     1       9.424  12.886  13.388  1.00  0.00    -0.066 C
HETATM   32  C4  UNL     1       9.167  11.996  12.199  1.00  0.00     0.048 C
BRANCH  31  33
HETATM   33  C2  UNL     1       8.290  13.273  14.214  1.00  0.00    -0.004 C
HETATM   34  C1  UNL     1       7.071  13.398  13.693  1.00  0.00     0.012 C
ENDBRANCH  31  33
ENDBRANCH  29  30
ENDBRANCH  25  29
ENDBRANCH  20  21
ENDBRANCH   1  20
TORSDOF 17
ENDMDL