MODEL 1
REMARK VINA RESULT: -8.100456036      0.000      0.000
REMARK  14 active torsions:
REMARK  status: ('A' for Active; 'I' for Inactive)
REMARK    1  A    between atoms: C2_2  and  C3_3
REMARK    2  A    between atoms: C3_3  and  C4_4
REMARK    3  A    between atoms: C3_3  and  O5_31
REMARK    4  A    between atoms: C4_4  and  O1_5
REMARK    5  A    between atoms: O1_5  and  C5_6
REMARK    6  A    between atoms: C6_7  and  C7_8
REMARK    7  A    between atoms: C6_7  and  C12_13
REMARK    8  A    between atoms: C7_8  and  C8_9
REMARK    9  A    between atoms: C8_9  and  C9_10
REMARK   10  A    between atoms: C12_13  and  C14_15
REMARK   11  A    between atoms: C14_15  and  C15_16
REMARK   12  A    between atoms: C15_16  and  C16_17
REMARK   13  A    between atoms: C16_17  and  C17_18
REMARK   14  A    between atoms: C25_27  and  C26_28
ROOT
HETATM    1  C12 UNL     1      14.341  18.501   9.985  1.00  0.00     0.012 C
HETATM    2  C13 UNL     1      12.992  19.027   9.688  1.00  0.00     0.015 C
ENDROOT
BRANCH   1   3
HETATM    3  C6  UNL     1      14.208  17.112  10.534  1.00  0.00    -0.054 C
HETATM    4  C5  UNL     1      13.066  16.610  10.901  1.00  0.00     0.138 C
BRANCH   4   5
HETATM    5  O1  UNL     1      13.031  15.287  11.384  1.00  0.00    -0.360 OA
BRANCH   5   6
HETATM    6  C4  UNL     1      12.250  14.992  12.522  1.00  0.00     0.206 C
BRANCH   6   7
HETATM    7  C3  UNL     1      13.021  14.039  13.415  1.00  0.00     0.144 C
BRANCH   7   8
HETATM    8  C2  UNL     1      13.711  14.769  14.540  1.00  0.00     0.029 C
HETATM    9  C1  UNL     1      15.131  15.143  14.231  1.00  0.00     0.007 C
ENDBRANCH   7   8
BRANCH   7  10
HETATM   10  O5  UNL     1      12.203  13.067  13.932  1.00  0.00    -0.389 OA
HETATM   11  C27 UNL     1      11.116  12.872  13.105  1.00  0.00     0.202 C
ENDBRANCH   7  10
ENDBRANCH   6   7
ENDBRANCH   5   6
ENDBRANCH   4   5
BRANCH   3  12
HETATM   12  C7  UNL     1      15.448  16.288  10.629  1.00  0.00     0.037 C
BRANCH  12  13
HETATM   13  C8  UNL     1      16.296  16.418   9.391  1.00  0.00     0.008 C
BRANCH  13  14
HETATM   14  C9  UNL     1      17.749  16.388   9.848  1.00  0.00    -0.023 C
HETATM   15  C10 UNL     1      17.895  16.742  11.300  1.00  0.00     0.009 C
HETATM   16  C11 UNL     1      18.573  17.305   8.973  1.00  0.00     0.009 C
ENDBRANCH  13  14
ENDBRANCH  12  13
ENDBRANCH   3  12
ENDBRANCH   1   3
BRANCH   1  17
HETATM   17  C14 UNL     1      15.235  19.232  10.896  1.00  0.00     0.009 C
BRANCH  17  18
HETATM   18  C15 UNL     1      16.338  20.067  10.356  1.00  0.00     0.004 C
BRANCH  18  19
HETATM   19  C16 UNL     1      16.492  20.161   8.894  1.00  0.00     0.038 C
BRANCH  19  20
HETATM   20  C17 UNL     1      16.879  21.607   8.510  1.00  0.00     0.062 C
HETATM   21  C18 UNL     1      18.322  21.483   8.031  1.00  0.00     0.046 C
HETATM   22  O2  UNL     1      16.876  22.432   9.593  1.00  0.00    -0.374 OA
HETATM   23  C19 UNL     1      16.181  23.599   9.297  1.00  0.00     0.141 C
HETATM   24  C20 UNL     1      14.754  23.338   9.805  1.00  0.00     0.011 C
HETATM   25  C25 UNL     1      16.068  23.677   7.805  1.00  0.00     0.123 C
HETATM   26  C21 UNL     1      14.202  24.722  10.163  1.00  0.00     0.012 C
HETATM   27  C22 UNL     1      13.873  22.778   8.735  1.00  0.00     0.007 C
HETATM   28  C23 UNL     1      14.528  21.838   7.780  1.00  0.00     0.009 C
HETATM   29  C24 UNL     1      15.967  22.188   7.475  1.00  0.00     0.037 C
BRANCH  25  30
HETATM   30  C26 UNL     1      17.138  24.380   7.119  1.00  0.00     0.180 C
HETATM   31  O3  UNL     1      18.068  24.917   7.761  1.00  0.00    -0.648 OA
HETATM   32  O4  UNL     1      17.112  24.449   5.735  1.00  0.00    -0.648 OA
ENDBRANCH  25  30
ENDBRANCH  19  20
ENDBRANCH  18  19
ENDBRANCH  17  18
ENDBRANCH   1  17
TORSDOF 14
ENDMDL