MODEL 5
REMARK VINA RESULT: -8.525947049      3.356      6.426
REMARK  13 active torsions:
REMARK  status: ('A' for Active; 'I' for Inactive)
REMARK    1  A    between atoms: C2_2  and  C3_3
REMARK    2  A    between atoms: C3_3  and  C4_4
REMARK    3  A    between atoms: C4_4  and  C5_5
REMARK    4  A    between atoms: C7_7  and  C8_8
REMARK    5  A    between atoms: C8_8  and  C9_9
REMARK    6  A    between atoms: C9_9  and  C10_10
REMARK    7  A    between atoms: C12_12  and  C13_13
REMARK    8  A    between atoms: C13_13  and  C14_14
REMARK    9  A    between atoms: C14_14  and  C15_15
REMARK   10  A    between atoms: C15_15  and  C17_17
REMARK   11  A    between atoms: C23_24  and  C24_25
REMARK   12  A    between atoms: C24_25  and  C25_26
REMARK   13  A    between atoms: C25_26  and  N1_27
ROOT
HETATM    1  C17 UNL     1      15.718  17.987  10.265  1.00  0.00     0.117 C
HETATM    2  C18 UNL     1      16.303  16.840   9.472  1.00  0.00     0.052 C
HETATM    3  C19 UNL     1      14.536  18.620   9.641  1.00  0.00     0.212 C
HETATM    4  O1  UNL     1      14.753  19.854   9.070  1.00  0.00    -0.348 OA
HETATM    5  C20 UNL     1      15.764  20.590   9.657  1.00  0.00     0.219 C
HETATM    6  C21 UNL     1      16.971  20.547   8.749  1.00  0.00     0.076 C
HETATM    7  C22 UNL     1      17.074  21.702   7.809  1.00  0.00     0.037 C
HETATM    8  C23 UNL     1      16.656  23.018   8.438  1.00  0.00     0.123 C
HETATM    9  O2  UNL     1      15.346  22.851   8.891  1.00  0.00    -0.380 OA
HETATM   10  C27 UNL     1      15.328  22.000   9.994  1.00  0.00     0.239 C
HETATM   11  O3  UNL     1      16.176  20.015  10.882  1.00  0.00    -0.197 OA
HETATM   12  O4  UNL     1      16.758  18.872  10.536  1.00  0.00    -0.224 OA
ENDROOT
BRANCH   1  13
HETATM   13  C15 UNL     1      15.305  17.417  11.636  1.00  0.00     0.021 C
HETATM   14  C16 UNL     1      14.297  16.348  11.445  1.00  0.00     0.013 C
BRANCH  13  15
HETATM   15  C14 UNL     1      16.557  17.074  12.341  1.00  0.00     0.011 C
BRANCH  15  16
HETATM   16  C13 UNL     1      16.464  16.337  13.624  1.00  0.00     0.028 C
BRANCH  16  17
HETATM   17  C12 UNL     1      17.587  15.409  13.880  1.00  0.00    -0.024 C
HETATM   18  C10 UNL     1      18.240  15.250  14.994  1.00  0.00    -0.087 C
HETATM   19  C11 UNL     1      19.361  14.250  15.058  1.00  0.00     0.043 C
BRANCH  18  20
HETATM   20  C9  UNL     1      17.951  15.997  16.211  1.00  0.00     0.037 C
BRANCH  20  21
HETATM   21  C8  UNL     1      19.183  16.030  17.118  1.00  0.00     0.031 C
BRANCH  21  22
HETATM   22  C7  UNL     1      19.482  17.426  17.386  1.00  0.00    -0.024 C
HETATM   23  C5  UNL     1      20.363  18.140  16.728  1.00  0.00    -0.087 C
HETATM   24  C6  UNL     1      20.527  19.615  17.088  1.00  0.00     0.043 C
BRANCH  23  25
HETATM   25  C4  UNL     1      21.149  17.594  15.633  1.00  0.00     0.033 C
BRANCH  25  26
HETATM   26  C3  UNL     1      22.108  18.510  14.946  1.00  0.00     0.004 C
BRANCH  26  27
HETATM   27  C2  UNL     1      22.701  18.053  13.667  1.00  0.00    -0.004 C
HETATM   28  C1  UNL     1      23.329  19.231  12.903  1.00  0.00     0.005 C
ENDBRANCH  26  27
ENDBRANCH  25  26
ENDBRANCH  23  25
ENDBRANCH  21  22
ENDBRANCH  20  21
ENDBRANCH  18  20
ENDBRANCH  16  17
ENDBRANCH  15  16
ENDBRANCH  13  15
ENDBRANCH   1  13
BRANCH   8  29
HETATM   29  C24 UNL     1      16.659  24.061   7.356  1.00  0.00     0.051 C
BRANCH  29  30
HETATM   30  C25 UNL     1      17.211  23.527   6.058  1.00  0.00     0.115 C
BRANCH  30  31
HETATM   31  N1  UNL     1      17.266  24.483   5.005  1.00  0.00    -0.425 N
HETATM   32  C26 UNL     1      17.698  25.788   5.357  1.00  0.00     0.139 C
ATOM     33  H1  UNL     1      17.008  24.243   4.048  1.00  0.00     0.152 HD
ENDBRANCH  30  31
ENDBRANCH  29  30
ENDBRANCH   8  29
TORSDOF 13
ENDMDL