MODEL 4
REMARK VINA RESULT: -8.262804636      2.143      3.800
REMARK  15 active torsions:
REMARK  status: ('A' for Active; 'I' for Inactive)
REMARK    1  A    between atoms: C2_2  and  C16_17
REMARK    2  A    between atoms: C3_3  and  C4_4
REMARK    3  A    between atoms: C4_4  and  C5_5
REMARK    4  A    between atoms: C5_5  and  C6_6
REMARK    5  A    between atoms: C6_6  and  C8_8
REMARK    6  A    between atoms: C8_8  and  C9_9
REMARK    7  A    between atoms: C9_9  and  C10_10
REMARK    8  A    between atoms: C11_11  and  C13_13
REMARK    9  A    between atoms: C13_13  and  C14_14
REMARK   10  A    between atoms: C16_17  and  C17_18
REMARK   11  A    between atoms: C17_18  and  C18_19
REMARK   12  A    between atoms: C19_20  and  C21_22
REMARK   13  A    between atoms: C21_22  and  C22_23
REMARK   14  A    between atoms: C22_23  and  C23_24
REMARK   15  A    between atoms: C28_31  and  O4_32
ROOT
HETATM    1  C16 UNL     1      14.574  15.768  11.125  1.00  0.00     0.037 C
ENDROOT
BRANCH   1   2
HETATM    2  C2  UNL     1      13.265  15.806  11.749  1.00  0.00    -0.087 C
HETATM    3  C1  UNL     1      12.101  16.275  10.869  1.00  0.00     0.043 C
HETATM    4  C3  UNL     1      12.975  15.465  12.973  1.00  0.00    -0.024 C
BRANCH   4   5
HETATM    5  C4  UNL     1      13.955  14.995  13.959  1.00  0.00     0.028 C
BRANCH   5   6
HETATM    6  C5  UNL     1      14.324  16.076  14.978  1.00  0.00     0.008 C
BRANCH   6   7
HETATM    7  C6  UNL     1      15.779  16.396  14.945  1.00  0.00    -0.018 C
HETATM    8  C7  UNL     1      16.019  17.591  14.043  1.00  0.00     0.010 C
BRANCH   7   9
HETATM    9  C8  UNL     1      16.537  15.232  14.364  1.00  0.00     0.008 C
BRANCH   9  10
HETATM   10  C9  UNL     1      17.617  14.707  15.302  1.00  0.00     0.028 C
BRANCH  10  11
HETATM   11  C10 UNL     1      18.872  15.384  14.964  1.00  0.00    -0.024 C
HETATM   12  C11 UNL     1      19.474  16.253  15.725  1.00  0.00    -0.085 C
HETATM   13  C12 UNL     1      20.774  16.888  15.260  1.00  0.00     0.043 C
BRANCH  12  14
HETATM   14  C13 UNL     1      19.000  16.683  17.042  1.00  0.00     0.067 C
BRANCH  14  15
HETATM   15  C14 UNL     1      19.773  17.946  17.432  1.00  0.00     0.149 A
HETATM   16  C15 UNL     1      19.414  18.539  18.735  1.00  0.00     0.200 A
HETATM   17  O1  UNL     1      19.003  19.145  17.557  1.00  0.00    -0.381 OA
ENDBRANCH  14  15
ENDBRANCH  12  14
ENDBRANCH  10  11
ENDBRANCH   9  10
ENDBRANCH   7   9
ENDBRANCH   6   7
ENDBRANCH   5   6
ENDBRANCH   4   5
ENDBRANCH   1   2
BRANCH   1  18
HETATM   18  C17 UNL     1      14.706  16.737   9.959  1.00  0.00     0.031 C
BRANCH  18  19
HETATM   19  C18 UNL     1      15.446  17.950  10.444  1.00  0.00    -0.024 C
HETATM   20  C19 UNL     1      14.934  19.170  10.330  1.00  0.00    -0.087 C
HETATM   21  C20 UNL     1      13.588  19.295   9.700  1.00  0.00     0.043 C
BRANCH  20  22
HETATM   22  C21 UNL     1      15.672  20.375  10.814  1.00  0.00     0.036 C
BRANCH  22  23
HETATM   23  C22 UNL     1      16.767  20.732   9.848  1.00  0.00     0.045 C
BRANCH  23  24
HETATM   24  C23 UNL     1      16.524  21.969   9.052  1.00  0.00     0.094 C
HETATM   25  C24 UNL     1      15.845  21.575   7.754  1.00  0.00     0.049 C
HETATM   26  O2  UNL     1      15.621  22.867   9.703  1.00  0.00    -0.307 OA
HETATM   27  C25 UNL     1      15.735  24.059   8.961  1.00  0.00     0.266 C
HETATM   28  O3  UNL     1      14.850  24.942   8.828  1.00  0.00    -0.265 OA
HETATM   29  C26 UNL     1      17.078  24.126   8.344  1.00  0.00     0.113 C
HETATM   30  C27 UNL     1      17.068  24.264   6.859  1.00  0.00     0.023 C
HETATM   31  C28 UNL     1      17.712  22.841   8.836  1.00  0.00     0.166 C
BRANCH  31  32
HETATM   32  O4  UNL     1      18.620  22.328   7.919  1.00  0.00    -0.392 OA
ATOM     33  H4  UNL     1      19.399  21.962   8.320  1.00  0.00     0.210 HD
ENDBRANCH  31  32
ENDBRANCH  23  24
ENDBRANCH  22  23
ENDBRANCH  20  22
ENDBRANCH  18  19
ENDBRANCH   1  18
TORSDOF 15
ENDMDL