MODEL 4
REMARK VINA RESULT: -8.467502786      4.485      8.197
REMARK  16 active torsions:
REMARK  status: ('A' for Active; 'I' for Inactive)
REMARK    1  A    between atoms: C2_2  and  C3_3
REMARK    2  A    between atoms: C3_3  and  C4_4
REMARK    3  A    between atoms: C4_4  and  C5_5
REMARK    4  A    between atoms: C5_5  and  C6_6
REMARK    5  A    between atoms: C6_6  and  O1_7
REMARK    6  A    between atoms: C6_6  and  C9_11
REMARK    7  A    between atoms: O1_7  and  C7_8
REMARK    8  A    between atoms: C9_11  and  C11_13
REMARK    9  A    between atoms: C12_14  and  C13_15
REMARK   10  A    between atoms: C13_15  and  C14_16
REMARK   11  A    between atoms: C16_18  and  C17_19
REMARK   12  A    between atoms: C17_19  and  C18_20
REMARK   13  A    between atoms: C18_20  and  C19_21
REMARK   14  A    between atoms: C21_23  and  C22_24
REMARK   15  A    between atoms: C23_25  and  C24_26
REMARK   16  A    between atoms: C24_26  and  C25_27
ROOT
HETATM    1  C11 UNL     1      14.606  16.067  14.200  1.00  0.00    -0.024 C
HETATM    2  C12 UNL     1      15.374  15.519  15.107  1.00  0.00    -0.026 C
ENDROOT
BRANCH   1   3
HETATM    3  C9  UNL     1      14.678  15.942  12.726  1.00  0.00     0.033 C
HETATM    4  C10 UNL     1      15.583  17.019  12.149  1.00  0.00     0.017 C
BRANCH   3   5
HETATM    5  C6  UNL     1      13.305  15.948  12.092  1.00  0.00     0.139 C
BRANCH   5   6
HETATM    6  C5  UNL     1      12.707  14.542  12.132  1.00  0.00     0.037 C
BRANCH   6   7
HETATM    7  C4  UNL     1      11.349  14.547  12.728  1.00  0.00     0.054 C
BRANCH   7   8
HETATM    8  C3  UNL     1      10.888  13.354  13.467  1.00  0.00     0.186 C
HETATM    9  O5  UNL     1      10.554  12.257  12.635  1.00  0.00    -0.210 OA
HETATM   10  O6  UNL     1       9.254  12.475  12.604  1.00  0.00    -0.154 OA
HETATM   11  C26 UNL     1       9.401  13.341  13.652  1.00  0.00     0.326 C
HETATM   12  O7  UNL     1       8.626  13.905  14.451  1.00  0.00    -0.259 OA
BRANCH   8  13
HETATM   13  C2  UNL     1      11.651  12.841  14.633  1.00  0.00     0.047 C
HETATM   14  C1  UNL     1      12.009  13.856  15.657  1.00  0.00     0.009 C
ENDBRANCH   8  13
ENDBRANCH   7   8
ENDBRANCH   6   7
ENDBRANCH   5   6
BRANCH   5  15
HETATM   15  O1  UNL     1      13.486  16.374  10.754  1.00  0.00    -0.316 OA
BRANCH  15  16
HETATM   16  C7  UNL     1      12.714  17.342  10.139  1.00  0.00     0.255 C
HETATM   17  C8  UNL     1      13.257  18.605   9.578  1.00  0.00     0.126 C
HETATM   18  O2  UNL     1      11.477  17.144  10.049  1.00  0.00    -0.266 OA
ENDBRANCH  15  16
ENDBRANCH   5  15
ENDBRANCH   3   5
ENDBRANCH   1   3
BRANCH   2  19
HETATM   19  C13 UNL     1      16.497  14.645  14.804  1.00  0.00     0.060 C
BRANCH  19  20
HETATM   20  C14 UNL     1      17.791  15.129  15.366  1.00  0.00    -0.084 C
HETATM   21  C15 UNL     1      19.041  14.617  14.754  1.00  0.00     0.043 C
HETATM   22  C16 UNL     1      17.833  15.982  16.377  1.00  0.00    -0.024 C
BRANCH  22  23
HETATM   23  C17 UNL     1      19.188  16.430  16.897  1.00  0.00     0.031 C
BRANCH  23  24
HETATM   24  C18 UNL     1      19.351  17.840  16.518  1.00  0.00     0.037 C
BRANCH  24  25
HETATM   25  C19 UNL     1      20.652  18.474  16.534  1.00  0.00    -0.084 C
HETATM   26  C20 UNL     1      21.724  17.630  15.796  1.00  0.00     0.043 C
HETATM   27  C21 UNL     1      21.102  19.588  17.028  1.00  0.00     0.002 C
BRANCH  27  28
HETATM   28  C22 UNL     1      20.474  20.634  17.758  1.00  0.00    -0.003 C
HETATM   29  C23 UNL     1      20.259  20.589  19.050  1.00  0.00    -0.016 C
BRANCH  29  30
HETATM   30  C24 UNL     1      20.609  19.499  19.955  1.00  0.00     0.140 C
BRANCH  30  31
HETATM   31  C25 UNL     1      19.489  18.517  20.106  1.00  0.00     0.176 C
HETATM   32  O3  UNL     1      18.308  18.812  19.766  1.00  0.00    -0.648 OA
HETATM   33  O4  UNL     1      19.717  17.259  20.623  1.00  0.00    -0.648 OA
ENDBRANCH  30  31
ENDBRANCH  29  30
ENDBRANCH  27  28
ENDBRANCH  24  25
ENDBRANCH  23  24
ENDBRANCH  22  23
ENDBRANCH  19  20
ENDBRANCH   2  19
TORSDOF 16
ENDMDL