MODEL 5
REMARK VINA RESULT: -9.132962237      1.304      2.503
REMARK  16 active torsions:
REMARK  status: ('A' for Active; 'I' for Inactive)
REMARK    1  A    between atoms: C2_2  and  C4_4
REMARK    2  A    between atoms: C4_4  and  C26_30
REMARK    3  A    between atoms: C5_5  and  C6_6
REMARK    4  A    between atoms: C6_6  and  C7_7
REMARK    5  A    between atoms: C7_7  and  C8_8
REMARK    6  A    between atoms: C11_11  and  C12_12
REMARK    7  A    between atoms: C12_12  and  C13_13
REMARK    8  A    between atoms: C13_13  and  C15_15
REMARK    9  A    between atoms: C17_17  and  C18_18
REMARK   10  A    between atoms: C18_18  and  C19_19
REMARK   11  A    between atoms: C20_20  and  C22_22
REMARK   12  A    between atoms: C22_22  and  C23_23
REMARK   13  A    between atoms: C23_23  and  C24_24
REMARK   14  A    between atoms: C24_24  and  O2_26
REMARK   15  A    between atoms: C26_30  and  O5_31
REMARK   16  A    between atoms: C26_30  and  C27_33
ROOT
HETATM    1  C8  UNL     1      13.073  15.288  13.744  1.00  0.00     0.114 C
HETATM    2  C9  UNL     1      13.519  15.964  15.003  1.00  0.00     0.054 C
HETATM    3  C10 UNL     1      14.010  15.709  12.659  1.00  0.00     0.049 C
HETATM    4  C11 UNL     1      13.266  15.973  11.604  1.00  0.00     0.087 C
HETATM    5  O3  UNL     1      11.942  15.731  12.015  1.00  0.00    -0.201 OA
HETATM    6  O4  UNL     1      11.876  15.894  13.343  1.00  0.00    -0.221 OA
ENDROOT
BRANCH   4   7
HETATM    7  C12 UNL     1      13.770  16.425  10.297  1.00  0.00     0.105 C
BRANCH   7   8
HETATM    8  C13 UNL     1      13.160  17.693   9.862  1.00  0.00    -0.056 C
HETATM    9  C14 UNL     1      11.975  17.749   9.312  1.00  0.00     0.020 C
BRANCH   8  10
HETATM   10  C15 UNL     1      13.899  18.956  10.046  1.00  0.00    -0.060 C
HETATM   11  C16 UNL     1      13.190  20.216   9.832  1.00  0.00     0.048 C
HETATM   12  C17 UNL     1      15.152  18.881  10.395  1.00  0.00    -0.016 C
BRANCH  12  13
HETATM   13  C18 UNL     1      16.033  20.045  10.619  1.00  0.00     0.055 C
BRANCH  13  14
HETATM   14  C19 UNL     1      16.673  20.326   9.287  1.00  0.00    -0.020 C
HETATM   15  C20 UNL     1      16.609  21.495   8.713  1.00  0.00    -0.087 C
HETATM   16  C21 UNL     1      15.879  22.624   9.375  1.00  0.00     0.043 C
BRANCH  15  17
HETATM   17  C22 UNL     1      17.261  21.714   7.395  1.00  0.00     0.043 C
BRANCH  17  18
HETATM   18  C23 UNL     1      16.560  22.846   6.720  1.00  0.00     0.115 C
BRANCH  18  19
HETATM   19  C24 UNL     1      17.525  23.842   6.214  1.00  0.00     0.258 C
HETATM   20  O1  UNL     1      17.267  24.447   5.145  1.00  0.00    -0.265 OA
BRANCH  19  21
HETATM   21  O2  UNL     1      18.688  24.109   6.898  1.00  0.00    -0.326 OA
HETATM   22  C25 UNL     1      19.207  25.424   6.895  1.00  0.00     0.213 C
ENDBRANCH  19  21
ENDBRANCH  18  19
ENDBRANCH  17  18
ENDBRANCH  15  17
ENDBRANCH  13  14
ENDBRANCH  12  13
ENDBRANCH   8  10
ENDBRANCH   7   8
ENDBRANCH   4   7
BRANCH   1  23
HETATM   23  C7  UNL     1      12.994  13.813  13.768  1.00  0.00     0.049 C
BRANCH  23  24
HETATM   24  C6  UNL     1      12.472  13.133  14.972  1.00  0.00     0.031 C
BRANCH  24  25
HETATM   25  C5  UNL     1      11.081  13.310  15.335  1.00  0.00    -0.016 C
HETATM   26  C4  UNL     1       9.997  13.227  14.592  1.00  0.00    -0.028 C
BRANCH  26  27
HETATM   27  C2  UNL     1       8.710  13.469  15.279  1.00  0.00    -0.063 C
HETATM   28  C1  UNL     1       7.593  13.616  14.609  1.00  0.00     0.019 C
HETATM   29  C3  UNL     1       8.658  13.571  16.767  1.00  0.00     0.048 C
ENDBRANCH  26  27
BRANCH  26  30
HETATM   30  C26 UNL     1       9.992  12.953  13.158  1.00  0.00     0.151 C
BRANCH  30  31
HETATM   31  O5  UNL     1       9.779  14.035  12.327  1.00  0.00    -0.391 OA
ATOM     32  H5  UNL     1       9.399  14.808  12.730  1.00  0.00     0.210 HD
ENDBRANCH  30  31
BRANCH  30  33
HETATM   33  C27 UNL     1       9.164  11.762  12.737  1.00  0.00     0.032 C
HETATM   34  C28 UNL     1       8.513  12.158  11.404  1.00  0.00     0.008 C
ENDBRANCH  30  33
ENDBRANCH  26  30
ENDBRANCH  24  25
ENDBRANCH  23  24
ENDBRANCH   1  23
TORSDOF 16
ENDMDL