MODEL 1
REMARK VINA RESULT: -9.511668945      0.000      0.000
REMARK  15 active torsions:
REMARK  status: ('A' for Active; 'I' for Inactive)
REMARK    1  A    between atoms: C2_2  and  O1_3
REMARK    2  A    between atoms: O1_3  and  C3_4
REMARK    3  A    between atoms: C3_4  and  C4_5
REMARK    4  A    between atoms: C4_5  and  C5_6
REMARK    5  A    between atoms: C5_6  and  C6_7
REMARK    6  A    between atoms: C6_7  and  C7_8
REMARK    7  A    between atoms: C9_10  and  C10_11
REMARK    8  A    between atoms: C10_11  and  C11_12
REMARK    9  A    between atoms: C11_12  and  C12_13
REMARK   10  A    between atoms: C15_17  and  C16_18
REMARK   11  A    between atoms: C16_18  and  C17_19
REMARK   12  A    between atoms: C16_18  and  C20_24
REMARK   13  A    between atoms: C18_20  and  C19_21
REMARK   14  A    between atoms: C19_21  and  O3_22
REMARK   15  A    between atoms: C21_25  and  C22_26
ROOT
HETATM    1  C12 UNL     1      15.520  18.098  10.483  1.00  0.00     0.066 C
HETATM    2  C13 UNL     1      14.204  18.269   9.769  1.00  0.00     0.028 C
HETATM    3  C14 UNL     1      15.724  19.230  11.487  1.00  0.00     0.190 C
HETATM    4  O2  UNL     1      15.612  20.422  10.776  1.00  0.00    -0.359 OA
HETATM    5  C15 UNL     1      16.702  20.633   9.950  1.00  0.00     0.280 C
HETATM    6  O4  UNL     1      16.824  19.582   9.016  1.00  0.00    -0.288 OA
HETATM    7  C28 UNL     1      16.576  18.297   9.442  1.00  0.00     0.271 C
HETATM    8  O5  UNL     1      17.222  17.337   8.964  1.00  0.00    -0.264 OA
ENDROOT
BRANCH   5   9
HETATM    9  C16 UNL     1      16.521  21.924   9.120  1.00  0.00     0.086 C
BRANCH   9  10
HETATM   10  C17 UNL     1      15.407  22.699   9.609  1.00  0.00    -0.015 C
HETATM   11  C18 UNL     1      14.999  23.855   9.073  1.00  0.00    -0.004 C
BRANCH  11  12
HETATM   12  C19 UNL     1      13.864  24.634   9.579  1.00  0.00     0.191 C
BRANCH  12  13
HETATM   13  O3  UNL     1      14.380  25.630  10.433  1.00  0.00    -0.397 OA
ATOM     14  H3  UNL     1      14.841  26.260   9.892  1.00  0.00     0.209 HD
ENDBRANCH  12  13
ENDBRANCH  11  12
ENDBRANCH   9  10
BRANCH   9  15
HETATM   15  C20 UNL     1      17.776  22.602   8.929  1.00  0.00    -0.013 C
HETATM   16  C21 UNL     1      18.457  23.310   8.134  1.00  0.00     0.003 C
BRANCH  16  17
HETATM   17  C22 UNL     1      18.464  23.935   6.865  1.00  0.00    -0.062 C
HETATM   18  C23 UNL     1      17.449  23.660   5.980  1.00  0.00    -0.020 C
HETATM   19  C24 UNL     1      17.514  24.344   4.672  1.00  0.00     0.027 C
HETATM   20  C25 UNL     1      17.601  25.843   4.831  1.00  0.00     0.004 C
HETATM   21  C26 UNL     1      18.663  26.175   5.838  1.00  0.00     0.005 C
HETATM   22  C27 UNL     1      19.408  24.901   6.300  1.00  0.00     0.038 C
ENDBRANCH  16  17
ENDBRANCH   9  15
ENDBRANCH   5   9
BRANCH   1  23
HETATM   23  C11 UNL     1      15.767  16.773  11.083  1.00  0.00     0.025 C
BRANCH  23  24
HETATM   24  C10 UNL     1      14.660  16.092  11.819  1.00  0.00     0.029 C
BRANCH  24  25
HETATM   25  C9  UNL     1      14.510  16.343  13.221  1.00  0.00    -0.020 C
HETATM   26  C7  UNL     1      14.181  15.553  14.191  1.00  0.00    -0.070 C
HETATM   27  C8  UNL     1      14.129  16.227  15.615  1.00  0.00     0.047 C
BRANCH  26  28
HETATM   28  C6  UNL     1      13.840  14.146  14.274  1.00  0.00    -0.020 C
BRANCH  28  29
HETATM   29  C5  UNL     1      12.461  13.674  14.367  1.00  0.00     0.030 C
BRANCH  29  30
HETATM   30  C4  UNL     1      11.957  13.458  12.908  1.00  0.00     0.030 C
BRANCH  30  31
HETATM   31  C3  UNL     1      10.480  13.102  13.071  1.00  0.00     0.174 C
BRANCH  31  32
HETATM   32  O1  UNL     1       9.850  13.860  14.059  1.00  0.00    -0.364 OA
BRANCH  32  33
HETATM   33  C2  UNL     1       8.848  13.267  14.808  1.00  0.00     0.124 C
HETATM   34  C1  UNL     1       8.601  13.592  16.046  1.00  0.00     0.037 C
ENDBRANCH  32  33
ENDBRANCH  31  32
ENDBRANCH  30  31
ENDBRANCH  29  30
ENDBRANCH  28  29
ENDBRANCH  26  28
ENDBRANCH  24  25
ENDBRANCH  23  24
ENDBRANCH   1  23
TORSDOF 15
ENDMDL