MODEL 5
REMARK VINA RESULT: -8.339458631      1.569      3.337
REMARK  16 active torsions:
REMARK  status: ('A' for Active; 'I' for Inactive)
REMARK    1  A    between atoms: C4_4  and  C5_5
REMARK    2  A    between atoms: C5_5  and  C6_6
REMARK    3  A    between atoms: C6_6  and  C7_7
REMARK    4  A    between atoms: C9_9  and  C10_10
REMARK    5  A    between atoms: C10_10  and  C11_11
REMARK    6  A    between atoms: C11_11  and  C12_12
REMARK    7  A    between atoms: C14_14  and  C15_15
REMARK    8  A    between atoms: C15_15  and  C16_16
REMARK    9  A    between atoms: C16_16  and  C17_17
REMARK   10  A    between atoms: C17_17  and  C26_29
REMARK   11  A    between atoms: C18_18  and  C19_19
REMARK   12  A    between atoms: C19_19  and  C20_20
REMARK   13  A    between atoms: C20_20  and  O1_21
REMARK   14  A    between atoms: C26_29  and  O3_30
REMARK   15  A    between atoms: O3_30  and  C27_31
REMARK   16  A    between atoms: C27_31  and  C28_33
ROOT
HETATM    1  C17 UNL     1      13.715  18.496  10.095  1.00  0.00    -0.039 C
HETATM    2  C18 UNL     1      14.581  19.472   9.869  1.00  0.00    -0.012 C
ENDROOT
BRANCH   1   3
HETATM    3  C16 UNL     1      14.210  17.315  10.834  1.00  0.00     0.044 C
BRANCH   3   4
HETATM    4  C15 UNL     1      14.768  16.197  10.000  1.00  0.00     0.032 C
BRANCH   4   5
HETATM    5  C14 UNL     1      15.979  16.728   9.332  1.00  0.00    -0.024 C
HETATM    6  C12 UNL     1      17.206  16.569   9.745  1.00  0.00    -0.087 C
HETATM    7  C13 UNL     1      18.295  17.243   8.941  1.00  0.00     0.043 C
BRANCH   6   8
HETATM    8  C11 UNL     1      17.565  15.835  10.945  1.00  0.00     0.037 C
BRANCH   8   9
HETATM    9  C10 UNL     1      17.657  16.629  12.204  1.00  0.00     0.031 C
BRANCH   9  10
HETATM   10  C9  UNL     1      17.888  15.860  13.416  1.00  0.00    -0.024 C
HETATM   11  C7  UNL     1      16.980  15.625  14.331  1.00  0.00    -0.087 C
HETATM   12  C8  UNL     1      17.437  14.846  15.537  1.00  0.00     0.043 C
BRANCH  11  13
HETATM   13  C6  UNL     1      15.610  16.107  14.259  1.00  0.00     0.037 C
BRANCH  13  14
HETATM   14  C5  UNL     1      14.596  15.134  13.787  1.00  0.00     0.031 C
BRANCH  14  15
HETATM   15  C4  UNL     1      13.652  14.583  14.760  1.00  0.00    -0.024 C
HETATM   16  C2  UNL     1      12.583  13.922  14.332  1.00  0.00    -0.091 C
HETATM   17  C1  UNL     1      12.346  13.743  12.892  1.00  0.00     0.042 C
HETATM   18  C3  UNL     1      11.631  13.366  15.317  1.00  0.00     0.042 C
ENDBRANCH  14  15
ENDBRANCH  13  14
ENDBRANCH  11  13
ENDBRANCH   9  10
ENDBRANCH   8   9
ENDBRANCH   6   8
ENDBRANCH   4   5
ENDBRANCH   3   4
ENDBRANCH   1   3
BRANCH   1  19
HETATM   19  C26 UNL     1      12.355  18.511   9.596  1.00  0.00     0.152 C
BRANCH  19  20
HETATM   20  O3  UNL     1      11.886  17.510   8.787  1.00  0.00    -0.285 OA
BRANCH  20  21
HETATM   21  C27 UNL     1      10.628  17.091   8.494  1.00  0.00     0.325 C
HETATM   22  O4  UNL     1      10.359  16.757   7.335  1.00  0.00    -0.256 OA
BRANCH  21  23
HETATM   23  C28 UNL     1       9.617  17.036   9.522  1.00  0.00     0.341 C
HETATM   24  O5  UNL     1       9.649  16.236  10.491  1.00  0.00    -0.296 OA
ENDBRANCH  21  23
ENDBRANCH  20  21
ENDBRANCH  19  20
ENDBRANCH   1  19
BRANCH   2  25
HETATM   25  C19 UNL     1      14.340  20.741   9.166  1.00  0.00     0.097 C
BRANCH  25  26
HETATM   26  C20 UNL     1      15.174  21.862   9.770  1.00  0.00     0.171 C
HETATM   27  O2  UNL     1      14.353  22.758  10.389  1.00  0.00    -0.354 OA
HETATM   28  C21 UNL     1      14.566  24.030   9.946  1.00  0.00     0.172 C
HETATM   29  C22 UNL     1      15.222  23.895   8.576  1.00  0.00     0.040 C
HETATM   30  C23 UNL     1      15.941  22.596   8.749  1.00  0.00     0.011 C
HETATM   31  C24 UNL     1      16.117  21.847   7.449  1.00  0.00     0.020 C
HETATM   32  C25 UNL     1      17.312  22.935   9.352  1.00  0.00     0.020 C
BRANCH  26  33
HETATM   33  O1  UNL     1      16.007  21.245  10.730  1.00  0.00    -0.364 OA
ATOM     34  H1  UNL     1      15.657  21.499  11.576  1.00  0.00     0.213 HD
ENDBRANCH  26  33
ENDBRANCH  25  26
ENDBRANCH   2  25
TORSDOF 16
ENDMDL