MODEL 2
REMARK VINA RESULT: -8.806308543      4.761      9.206
REMARK  15 active torsions:
REMARK  status: ('A' for Active; 'I' for Inactive)
REMARK    1  A    between atoms: C4_6  and  O3_8
REMARK    2  A    between atoms: C6_10  and  C7_11
REMARK    3  A    between atoms: C7_11  and  C8_12
REMARK    4  A    between atoms: C9_13  and  C10_14
REMARK    5  A    between atoms: C10_14  and  C11_15
REMARK    6  A    between atoms: C12_16  and  C13_17
REMARK    7  A    between atoms: C13_17  and  C14_18
REMARK    8  A    between atoms: C15_19  and  C16_20
REMARK    9  A    between atoms: C16_20  and  C17_21
REMARK   10  A    between atoms: C18_22  and  C19_23
REMARK   11  A    between atoms: C19_23  and  C20_24
REMARK   12  A    between atoms: C20_24  and  C21_25
REMARK   13  A    between atoms: C21_25  and  C22_26
REMARK   14  A    between atoms: C22_26  and  C24_28
REMARK   15  A    between atoms: C25_29  and  C26_30
ROOT
HETATM    1  C14 UNL     1      13.306  16.204  15.607  1.00  0.00    -0.027 C
HETATM    2  C15 UNL     1      12.531  15.455  14.911  1.00  0.00    -0.027 C
ENDROOT
BRANCH   1   3
HETATM    3  C13 UNL     1      14.802  16.286  15.607  1.00  0.00     0.053 C
BRANCH   3   4
HETATM    4  C12 UNL     1      15.286  17.225  14.591  1.00  0.00    -0.027 C
HETATM    5  C11 UNL     1      16.154  16.983  13.648  1.00  0.00    -0.027 C
BRANCH   5   6
HETATM    6  C10 UNL     1      16.818  15.711  13.423  1.00  0.00     0.053 C
BRANCH   6   7
HETATM    7  C9  UNL     1      18.185  15.558  13.901  1.00  0.00    -0.027 C
HETATM    8  C8  UNL     1      18.860  16.060  14.853  1.00  0.00    -0.029 C
BRANCH   8   9
HETATM    9  C7  UNL     1      18.461  17.037  15.867  1.00  0.00     0.041 C
BRANCH   9  10
HETATM   10  C6  UNL     1      19.511  17.063  16.973  1.00  0.00     0.090 C
HETATM   11  C2  UNL     1      18.916  16.610  18.255  1.00  0.00     0.018 C
HETATM   12  C1  UNL     1      18.055  15.626  18.461  1.00  0.00     0.025 C
HETATM   13  C3  UNL     1      19.472  17.483  19.276  1.00  0.00     0.291 C
HETATM   14  O1  UNL     1      19.265  17.311  20.527  1.00  0.00    -0.260 OA
HETATM   15  O2  UNL     1      20.215  18.466  18.655  1.00  0.00    -0.279 OA
HETATM   16  C4  UNL     1      19.976  18.451  17.269  1.00  0.00     0.175 C
HETATM   17  C5  UNL     1      21.248  18.790  16.500  1.00  0.00     0.080 C
BRANCH  16  18
HETATM   18  O3  UNL     1      18.954  19.322  16.899  1.00  0.00    -0.364 OA
ATOM     19  H3  UNL     1      18.589  19.786  17.644  1.00  0.00     0.213 HD
ENDBRANCH  16  18
ENDBRANCH   9  10
ENDBRANCH   8   9
ENDBRANCH   6   7
ENDBRANCH   5   6
ENDBRANCH   3   4
ENDBRANCH   1   3
BRANCH   2  20
HETATM   20  C16 UNL     1      12.988  14.471  13.916  1.00  0.00     0.053 C
BRANCH  20  21
HETATM   21  C17 UNL     1      12.618  14.896  12.529  1.00  0.00    -0.027 C
HETATM   22  C18 UNL     1      13.328  15.835  11.938  1.00  0.00    -0.030 C
BRANCH  22  23
HETATM   23  C19 UNL     1      12.998  16.286  10.566  1.00  0.00     0.027 C
BRANCH  23  24
HETATM   24  C20 UNL     1      14.138  17.144  10.031  1.00  0.00     0.004 C
BRANCH  24  25
HETATM   25  C21 UNL     1      15.396  16.348  10.046  1.00  0.00     0.008 C
BRANCH  25  26
HETATM   26  C22 UNL     1      16.538  17.037   9.370  1.00  0.00     0.004 C
HETATM   27  C23 UNL     1      17.870  16.706  10.078  1.00  0.00     0.014 C
BRANCH  26  28
HETATM   28  C24 UNL     1      16.468  18.514   9.373  1.00  0.00    -0.020 C
HETATM   29  C25 UNL     1      17.496  19.313   9.300  1.00  0.00     0.028 C
BRANCH  29  30
HETATM   30  C26 UNL     1      17.303  20.785   9.315  1.00  0.00     0.055 A
HETATM   31  C27 UNL     1      16.153  21.471   9.622  1.00  0.00     0.172 A
HETATM   32  O4  UNL     1      16.429  22.745   9.513  1.00  0.00    -0.316 OA
HETATM   33  C28 UNL     1      17.671  22.922   9.159  1.00  0.00     0.233 A
HETATM   34  N1  UNL     1      18.235  21.713   9.031  1.00  0.00    -0.345 N
ATOM     35  H1  UNL     1      19.203  21.528   8.764  1.00  0.00     0.167 HD
ENDBRANCH  29  30
ENDBRANCH  26  28
ENDBRANCH  25  26
ENDBRANCH  24  25
ENDBRANCH  23  24
ENDBRANCH  22  23
ENDBRANCH  20  21
ENDBRANCH   2  20
TORSDOF 15
ENDMDL