MODEL 4
REMARK VINA RESULT: -8.497090354      5.931      7.360
REMARK  19 active torsions:
REMARK  status: ('A' for Active; 'I' for Inactive)
REMARK    1  A    between atoms: C2_2  and  C3_3
REMARK    2  A    between atoms: C2_2  and  C17_19
REMARK    3  A    between atoms: C3_3  and  C4_4
REMARK    4  A    between atoms: C4_4  and  C5_5
REMARK    5  A    between atoms: C5_5  and  C6_6
REMARK    6  A    between atoms: C6_6  and  C8_8
REMARK    7  A    between atoms: C8_8  and  O1_9
REMARK    8  A    between atoms: C8_8  and  C9_11
REMARK    9  A    between atoms: C9_11  and  C10_12
REMARK   10  A    between atoms: C10_12  and  C11_13
REMARK   11  A    between atoms: C11_13  and  C12_14
REMARK   12  A    between atoms: C12_14  and  C14_16
REMARK   13  A    between atoms: C18_20  and  C19_21
REMARK   14  A    between atoms: C19_21  and  C20_22
REMARK   15  A    between atoms: C20_22  and  C22_24
REMARK   16  A    between atoms: C22_24  and  C23_25
REMARK   17  A    between atoms: C23_25  and  O2_26
REMARK   18  A    between atoms: O2_26  and  C24_27
REMARK   19  A    between atoms: C24_27  and  C25_29
ROOT
HETATM    1  C17 UNL     1      16.773  16.308  10.913  1.00  0.00     0.007 C
HETATM    2  C18 UNL     1      17.522  16.588  12.095  1.00  0.00     0.001 C
ENDROOT
BRANCH   1   3
HETATM    3  C2  UNL     1      16.706  17.153   9.867  1.00  0.00    -0.062 C
HETATM    4  C1  UNL     1      17.863  17.348   8.983  1.00  0.00     0.048 C
BRANCH   3   5
HETATM    5  C3  UNL     1      15.420  17.811   9.730  1.00  0.00     0.007 C
BRANCH   5   6
HETATM    6  C4  UNL     1      15.041  18.966  10.031  1.00  0.00     0.001 C
BRANCH   6   7
HETATM    7  C5  UNL     1      15.737  20.087  10.580  1.00  0.00     0.005 C
BRANCH   7   8
HETATM    8  C6  UNL     1      15.574  21.319  10.045  1.00  0.00    -0.056 C
HETATM    9  C7  UNL     1      14.299  22.003  10.239  1.00  0.00     0.046 C
BRANCH   8  10
HETATM   10  C8  UNL     1      16.671  21.914   9.295  1.00  0.00     0.146 C
BRANCH  10  11
HETATM   11  O1  UNL     1      17.843  21.816  10.047  1.00  0.00    -0.391 OA
ATOM     12  H1  UNL     1      17.862  22.521  10.683  1.00  0.00     0.210 HD
ENDBRANCH  10  11
BRANCH  10  13
HETATM   13  C9  UNL     1      16.326  23.425   9.120  1.00  0.00     0.036 C
BRANCH  13  14
HETATM   14  C10 UNL     1      16.173  23.734   7.671  1.00  0.00     0.003 C
BRANCH  14  15
HETATM   15  C11 UNL     1      17.231  23.188   6.818  1.00  0.00     0.005 C
BRANCH  15  16
HETATM   16  C12 UNL     1      18.140  24.072   6.082  1.00  0.00    -0.015 C
HETATM   17  C13 UNL     1      18.881  25.131   6.796  1.00  0.00     0.010 C
BRANCH  16  18
HETATM   18  C14 UNL     1      17.391  24.732   4.924  1.00  0.00    -0.019 C
HETATM   19  C15 UNL     1      17.507  23.925   3.661  1.00  0.00     0.010 C
HETATM   20  C16 UNL     1      17.894  26.126   4.653  1.00  0.00     0.010 C
ENDBRANCH  16  18
ENDBRANCH  15  16
ENDBRANCH  14  15
ENDBRANCH  13  14
ENDBRANCH  10  13
ENDBRANCH   8  10
ENDBRANCH   7   8
ENDBRANCH   6   7
ENDBRANCH   5   6
ENDBRANCH   3   5
ENDBRANCH   1   3
BRANCH   2  21
HETATM   21  C19 UNL     1      17.556  15.702  13.123  1.00  0.00     0.006 C
BRANCH  21  22
HETATM   22  C20 UNL     1      16.984  16.125  14.385  1.00  0.00    -0.064 C
HETATM   23  C21 UNL     1      15.844  17.112  14.388  1.00  0.00     0.048 C
BRANCH  22  24
HETATM   24  C22 UNL     1      17.433  15.672  15.523  1.00  0.00     0.006 C
BRANCH  24  25
HETATM   25  C23 UNL     1      18.737  15.020  15.692  1.00  0.00     0.207 C
BRANCH  25  26
HETATM   26  O2  UNL     1      19.635  15.818  16.392  1.00  0.00    -0.312 OA
BRANCH  26  27
HETATM   27  C24 UNL     1      20.082  17.075  16.123  1.00  0.00     0.311 C
HETATM   28  O3  UNL     1      20.648  17.297  15.036  1.00  0.00    -0.258 OA
BRANCH  27  29
HETATM   29  C25 UNL     1      19.911  18.184  17.088  1.00  0.00     0.126 A
HETATM   30  C26 UNL     1      20.646  19.341  16.976  1.00  0.00     0.056 A
HETATM   31  C27 UNL     1      20.470  20.358  17.886  1.00  0.00     0.111 A
HETATM   32  N1  UNL     1      19.572  20.193  18.873  1.00  0.00    -0.297 N
HETATM   33  N2  UNL     1      18.876  19.070  18.963  1.00  0.00    -0.243 N
ATOM     34  H1  UNL     1      19.427  20.937  19.556  1.00  0.00     0.187 HD
HETATM   35  N3  UNL     1      19.033  18.086  18.098  1.00  0.00    -0.281 N
ATOM     36  H2  UNL     1      18.200  18.963  19.720  1.00  0.00     0.208 HD
ATOM     37  H3  UNL     1      18.478  17.237  18.199  1.00  0.00     0.188 HD
ENDBRANCH  27  29
ENDBRANCH  26  27
ENDBRANCH  25  26
ENDBRANCH  24  25
ENDBRANCH  22  24
ENDBRANCH  21  22
ENDBRANCH   2  21
TORSDOF 19
ENDMDL