MODEL 3
REMARK VINA RESULT: -8.645026890      1.944      2.652
REMARK  13 active torsions:
REMARK  status: ('A' for Active; 'I' for Inactive)
REMARK    1  A    between atoms: C2_3  and  C3_4
REMARK    2  A    between atoms: C7_10  and  C8_11
REMARK       I    between atoms: C8_11  and  N2_13
REMARK    3  A    between atoms: N2_13  and  C9_15
REMARK    4  A    between atoms: C10_20  and  C11_21
REMARK    5  A    between atoms: C11_21  and  C12_22
REMARK    6  A    between atoms: C12_22  and  S1_23
REMARK    7  A    between atoms: S1_23  and  C13_26
REMARK    8  A    between atoms: C13_26  and  C14_27
REMARK    9  A    between atoms: C14_27  and  C15_28
REMARK   10  A    between atoms: C15_28  and  C16_29
REMARK   11  A    between atoms: C16_29  and  C17_30
REMARK   12  A    between atoms: C17_30  and  C18_31
REMARK   13  A    between atoms: C18_31  and  N5_32
ROOT
HETATM    1  C9  UNL     1      15.927  24.247  16.771  1.00  0.00     0.168 A
HETATM    2  N3  UNL     1      16.507  23.372  15.948  1.00  0.00    -0.279 N
ATOM      3  H3  UNL     1      16.063  22.475  15.754  1.00  0.00     0.189 HD
HETATM    4  N4  UNL     1      17.610  23.666  15.412  1.00  0.00    -0.296 N
ATOM      5  H4  UNL     1      18.058  23.000  14.781  1.00  0.00     0.187 HD
HETATM    6  C10 UNL     1      18.201  24.840  15.660  1.00  0.00     0.070 A
HETATM    7  S2  UNL     1      17.043  25.537  16.751  1.00  0.00    -0.038 SA
ENDROOT
BRANCH   1   8
HETATM    8  N2  UNL     1      14.790  24.120  17.417  1.00  0.00    -0.302 N
HETATM    9  C8  UNL     1      13.822  23.312  16.792  1.00  0.00     0.257 C
HETATM   10  O3  UNL     1      13.312  23.664  15.717  1.00  0.00    -0.267 OA
ATOM     11  H2  UNL     1      14.620  24.577  18.313  1.00  0.00     0.171 HD
BRANCH   9  12
HETATM   12  C7  UNL     1      13.428  22.061  17.421  1.00  0.00     0.033 A
HETATM   13  C6  UNL     1      12.495  21.220  16.846  1.00  0.00     0.030 A
HETATM   14  C5  UNL     1      12.139  20.045  17.457  1.00  0.00    -0.006 A
HETATM   15  C4  UNL     1      11.244  19.022  17.119  1.00  0.00     0.050 A
HETATM   16  C25 UNL     1      12.678  19.635  18.659  1.00  0.00     0.045 A
HETATM   17  C2  UNL     1      11.268  18.049  18.101  1.00  0.00     0.113 A
HETATM   18  N1  UNL     1      12.151  18.440  19.034  1.00  0.00    -0.345 N
HETATM   19  C1  UNL     1      12.483  17.708  20.243  1.00  0.00     0.156 C
HETATM   20  C24 UNL     1      13.607  20.487  19.216  1.00  0.00     0.031 A
HETATM   21  C23 UNL     1      13.981  21.667  18.626  1.00  0.00     0.019 A
BRANCH  17  22
HETATM   22  C3  UNL     1      10.473  16.828  18.103  1.00  0.00     0.227 C
HETATM   23  O1  UNL     1       9.445  16.776  18.819  1.00  0.00    -0.643 OA
HETATM   24  O2  UNL     1      10.854  15.725  17.317  1.00  0.00    -0.643 OA
ENDBRANCH  17  22
ENDBRANCH   9  12
ENDBRANCH   1   8
BRANCH   6  25
HETATM   25  C11 UNL     1      19.456  25.392  15.160  1.00  0.00     0.082 C
BRANCH  25  26
HETATM   26  C12 UNL     1      19.435  26.594  14.361  1.00  0.00     0.151 C
BRANCH  26  27
HETATM   27  S1  UNL     1      20.641  27.869  14.596  1.00  0.00     0.165 S
HETATM   28  O4  UNL     1      20.938  28.551  13.285  1.00  0.00    -0.223 OA
HETATM   29  O5  UNL     1      19.846  28.905  15.440  1.00  0.00    -0.223 OA
BRANCH  27  30
HETATM   30  C13 UNL     1      22.026  27.312  15.458  1.00  0.00     0.105 C
BRANCH  30  31
HETATM   31  C14 UNL     1      22.280  27.628  16.856  1.00  0.00    -0.015 C
BRANCH  31  32
HETATM   32  C15 UNL     1      21.927  26.825  18.021  1.00  0.00     0.028 C
BRANCH  32  33
HETATM   33  C16 UNL     1      20.493  26.697  18.365  1.00  0.00     0.005 C
BRANCH  33  34
HETATM   34  C17 UNL     1      20.341  25.605  19.434  1.00  0.00     0.020 C
BRANCH  34  35
HETATM   35  C18 UNL     1      19.918  24.299  18.858  1.00  0.00     0.125 C
BRANCH  35  36
HETATM   36  N5  UNL     1      19.037  23.499  19.656  1.00  0.00    -0.352 N
HETATM   37  C19 UNL     1      18.810  23.636  21.081  1.00  0.00     0.126 C
HETATM   38  C20 UNL     1      18.555  22.174  21.506  1.00  0.00     0.029 C
HETATM   39  C21 UNL     1      17.690  21.723  20.370  1.00  0.00     0.104 C
HETATM   40  C22 UNL     1      18.261  22.395  19.186  1.00  0.00     0.219 C
HETATM   41  O6  UNL     1      18.089  22.048  17.967  1.00  0.00    -0.273 OA
ENDBRANCH  35  36
ENDBRANCH  34  35
ENDBRANCH  33  34
ENDBRANCH  32  33
ENDBRANCH  31  32
ENDBRANCH  30  31
ENDBRANCH  27  30
ENDBRANCH  26  27
ENDBRANCH  25  26
ENDBRANCH   6  25
TORSDOF 13
ENDMDL