MODEL 4
REMARK VINA RESULT: -8.757314809      2.461      8.343
REMARK  12 active torsions:
REMARK  status: ('A' for Active; 'I' for Inactive)
REMARK    1  A    between atoms: N1_10  and  C8_11
REMARK    2  A    between atoms: C8_11  and  C9_12
REMARK       I    between atoms: C9_12  and  N2_14
REMARK    3  A    between atoms: N2_14  and  C10_16
REMARK    4  A    between atoms: C10_16  and  C11_17
REMARK    5  A    between atoms: N3_25  and  C18_26
REMARK    6  A    between atoms: C18_26  and  C19_27
REMARK    7  A    between atoms: C19_27  and  C20_28
REMARK    8  A    between atoms: C20_28  and  C21_29
REMARK       I    between atoms: C21_29  and  N4_31
REMARK    9  A    between atoms: N4_31  and  C22_33
REMARK   10  A    between atoms: C22_33  and  C23_34
REMARK   11  A    between atoms: C23_34  and  C24_35
REMARK   12  A    between atoms: C24_35  and  N5_36
ROOT
HETATM    1  C1  UNL     1      20.786  25.900  21.128  1.00  0.00     0.057 C
HETATM    2  C2  UNL     1      20.011  25.345  19.958  1.00  0.00    -0.012 A
HETATM    3  S1  UNL     1      19.714  26.039  18.426  1.00  0.00    -0.075 SA
HETATM    4  C3  UNL     1      18.789  24.786  17.739  1.00  0.00     0.097 A
HETATM    5  C4  UNL     1      18.733  23.852  18.726  1.00  0.00     0.073 A
HETATM    6  C5  UNL     1      19.367  24.137  19.879  1.00  0.00    -0.031 A
HETATM    7  C6  UNL     1      19.398  23.201  21.082  1.00  0.00     0.050 C
HETATM    8  C7  UNL     1      18.011  22.694  18.395  1.00  0.00     0.265 A
HETATM    9  O1  UNL     1      17.858  21.731  19.184  1.00  0.00    -0.267 OA
HETATM   10  N1  UNL     1      17.438  22.567  17.190  1.00  0.00    -0.257 N
HETATM   11  C17 UNL     1      17.513  23.521  16.227  1.00  0.00     0.333 A
HETATM   12  O3  UNL     1      16.995  23.435  15.101  1.00  0.00    -0.246 OA
HETATM   13  N3  UNL     1      18.206  24.646  16.521  1.00  0.00    -0.292 N
ENDROOT
BRANCH  13  14
HETATM   14  C18 UNL     1      18.358  25.705  15.591  1.00  0.00     0.135 C
BRANCH  14  15
HETATM   15  C19 UNL     1      19.615  25.749  14.802  1.00  0.00     0.029 C
BRANCH  15  16
HETATM   16  C20 UNL     1      19.869  27.000  14.034  1.00  0.00     0.104 C
BRANCH  16  17
HETATM   17  C21 UNL     1      20.644  27.929  14.938  1.00  0.00     0.217 C
HETATM   18  O4  UNL     1      20.074  28.900  15.523  1.00  0.00    -0.274 OA
HETATM   19  N4  UNL     1      22.015  27.726  15.145  1.00  0.00    -0.361 N
ATOM     20  H4  UNL     1      22.449  26.941  14.659  1.00  0.00     0.162 HD
BRANCH  19  21
HETATM   21  C22 UNL     1      22.858  28.525  15.978  1.00  0.00     0.124 C
BRANCH  21  22
HETATM   22  C23 UNL     1      24.191  27.881  16.310  1.00  0.00     0.050 C
BRANCH  22  23
HETATM   23  C24 UNL     1      24.144  27.595  17.817  1.00  0.00     0.274 C
BRANCH  23  24
HETATM   24  N5  UNL     1      24.184  26.203  18.103  1.00  0.00     0.092 N
HETATM   25  C25 UNL     1      24.168  25.842  19.487  1.00  0.00     0.298 C
HETATM   26  C26 UNL     1      23.954  24.345  19.608  1.00  0.00     0.198 C
HETATM   27  O5  UNL     1      24.935  23.648  18.936  1.00  0.00    -0.388 OA
HETATM   28  C27 UNL     1      25.803  24.427  18.216  1.00  0.00     0.198 C
HETATM   29  C28 UNL     1      25.173  25.485  17.364  1.00  0.00     0.298 C
ENDBRANCH  23  24
ENDBRANCH  22  23
ENDBRANCH  21  22
ENDBRANCH  19  21
ENDBRANCH  16  17
ENDBRANCH  15  16
ENDBRANCH  14  15
ENDBRANCH  13  14
BRANCH  10  30
HETATM   30  C8  UNL     1      16.691  21.384  16.828  1.00  0.00     0.239 C
BRANCH  30  31
HETATM   31  C9  UNL     1      15.303  21.417  17.354  1.00  0.00     0.236 C
HETATM   32  O2  UNL     1      14.441  21.919  16.628  1.00  0.00    -0.272 OA
HETATM   33  N2  UNL     1      15.010  20.902  18.616  1.00  0.00    -0.359 N
ATOM     34  H2  UNL     1      15.814  20.508  19.105  1.00  0.00     0.162 HD
BRANCH  33  35
HETATM   35  C10 UNL     1      13.796  20.827  19.342  1.00  0.00     0.127 C
BRANCH  35  36
HETATM   36  C11 UNL     1      13.097  19.531  19.470  1.00  0.00     0.003 C
HETATM   37  C12 UNL     1      13.598  18.460  18.514  1.00  0.00     0.006 C
HETATM   38  C13 UNL     1      12.789  17.211  18.813  1.00  0.00     0.000 C
HETATM   39  C14 UNL     1      11.436  17.524  19.420  1.00  0.00     0.000 C
HETATM   40  C15 UNL     1      11.570  18.187  20.776  1.00  0.00     0.000 C
HETATM   41  C16 UNL     1      12.876  19.000  20.832  1.00  0.00     0.006 C
ENDBRANCH  35  36
ENDBRANCH  33  35
ENDBRANCH  30  31
ENDBRANCH  10  30
TORSDOF 12
ENDMDL