MODEL 5
REMARK VINA RESULT: -7.235670700      3.332      9.690
REMARK  14 active torsions:
REMARK  status: ('A' for Active; 'I' for Inactive)
REMARK    1  A    between atoms: C2_2  and  S1_3
REMARK    2  A    between atoms: S1_3  and  N1_6
REMARK    3  A    between atoms: N1_6  and  C3_7
REMARK    4  A    between atoms: N1_6  and  C7_15
REMARK    5  A    between atoms: C3_7  and  C4_8
REMARK    6  A    between atoms: C4_8  and  C5_9
REMARK    7  A    between atoms: C5_9  and  O3_13
REMARK    8  A    between atoms: C7_15  and  C8_16
REMARK    9  A    between atoms: C8_16  and  C10_18
REMARK   10  A    between atoms: C8_16  and  N4_27
REMARK   11  A    between atoms: C10_18  and  S2_19
REMARK   12  A    between atoms: S2_19  and  C11_20
REMARK       I    between atoms: C11_20  and  N3_22
REMARK       I    between atoms: N4_27  and  C16_29
REMARK       I    between atoms: C16_29  and  N5_31
REMARK   13  A    between atoms: C21_36  and  C22_37
REMARK   14  A    between atoms: C22_37  and  N6_38
ROOT
HETATM    1  C8  UNL     1      13.551  21.163  15.715  1.00  0.00     0.073 C
HETATM    2  C9  UNL     1      12.346  22.064  15.396  1.00  0.00     0.045 C
ENDROOT
BRANCH   1   3
HETATM    3  C7  UNL     1      14.829  21.891  15.575  1.00  0.00     0.112 C
BRANCH   3   4
HETATM    4  N1  UNL     1      15.456  22.516  16.641  1.00  0.00    -0.267 N
BRANCH   4   5
HETATM    5  S1  UNL     1      16.609  21.559  17.409  1.00  0.00     0.235 S
HETATM    6  O1  UNL     1      15.951  20.406  18.100  1.00  0.00    -0.205 OA
HETATM    7  O2  UNL     1      17.519  20.903  16.360  1.00  0.00    -0.205 OA
BRANCH   5   8
HETATM    8  C2  UNL     1      17.681  22.406  18.512  1.00  0.00     0.159 C
HETATM    9  C1  UNL     1      17.598  21.802  19.903  1.00  0.00     0.023 C
ENDBRANCH   5   8
ENDBRANCH   4   5
BRANCH   4  10
HETATM   10  C3  UNL     1      15.694  23.893  16.563  1.00  0.00     0.089 C
BRANCH  10  11
HETATM   11  C4  UNL     1      16.783  24.333  15.608  1.00  0.00     0.129 C
BRANCH  11  12
HETATM   12  C5  UNL     1      17.592  25.416  16.251  1.00  0.00     0.115 C
HETATM   13  N2  UNL     1      17.325  25.802  17.448  1.00  0.00    -0.383 N
ATOM     14  H22 UNL     1      16.551  25.342  17.926  1.00  0.00     0.157 HD
ATOM     15  H21 UNL     1      17.876  26.541  17.886  1.00  0.00     0.157 HD
BRANCH  12  16
HETATM   16  O3  UNL     1      18.635  26.036  15.608  1.00  0.00    -0.344 OA
HETATM   17  C6  UNL     1      18.461  26.867  14.472  1.00  0.00     0.211 C
ENDBRANCH  12  16
ENDBRANCH  11  12
ENDBRANCH  10  11
ENDBRANCH   4  10
ENDBRANCH   3   4
ENDBRANCH   1   3
BRANCH   1  18
HETATM   18  C10 UNL     1      13.516  20.120  14.573  1.00  0.00     0.120 C
BRANCH  18  19
HETATM   19  S2  UNL     1      12.365  20.574  13.309  1.00  0.00    -0.066 SA
BRANCH  19  20
HETATM   20  C11 UNL     1      11.030  19.510  12.980  1.00  0.00     0.281 C
HETATM   21  O4  UNL     1       9.852  20.024  13.086  1.00  0.00    -0.260 OA
HETATM   22  N3  UNL     1      11.094  18.157  12.611  1.00  0.00    -0.343 N
HETATM   23  C12 UNL     1       9.886  17.313  12.353  1.00  0.00     0.126 C
HETATM   24  C15 UNL     1      12.172  17.228  12.387  1.00  0.00     0.126 C
HETATM   25  C13 UNL     1      10.268  16.710  11.021  1.00  0.00     0.021 C
HETATM   26  C14 UNL     1      11.672  16.200  11.361  1.00  0.00     0.021 C
ENDBRANCH  19  20
ENDBRANCH  18  19
ENDBRANCH   1  18
BRANCH   1  27
HETATM   27  N4  UNL     1      13.237  20.517  16.933  1.00  0.00    -0.329 N
HETATM   28  C16 UNL     1      12.157  19.649  17.223  1.00  0.00     0.319 C
HETATM   29  O5  UNL     1      11.343  19.375  16.312  1.00  0.00    -0.247 OA
HETATM   30  N5  UNL     1      11.953  19.073  18.507  1.00  0.00    -0.328 N
HETATM   31  C17 UNL     1      12.890  19.398  19.538  1.00  0.00     0.128 C
HETATM   32  C21 UNL     1      10.817  18.197  18.687  1.00  0.00     0.117 C
HETATM   33  C18 UNL     1      12.695  18.733  20.844  1.00  0.00     0.020 C
HETATM   34  C19 UNL     1      11.668  17.660  20.898  1.00  0.00     0.004 C
HETATM   35  C20 UNL     1      10.453  18.078  20.135  1.00  0.00     0.027 C
ATOM     36  H4  UNL     1      13.875  20.702  17.707  1.00  0.00     0.165 HD
BRANCH  32  37
HETATM   37  C22 UNL     1      11.082  16.813  18.115  1.00  0.00     0.296 C
BRANCH  37  38
HETATM   38  N6  UNL     1       9.810  16.354  17.548  1.00  0.00     0.082 N
HETATM   39  C23 UNL     1       9.901  16.212  16.116  1.00  0.00     0.309 C
HETATM   40  C24 UNL     1       9.381  15.105  18.099  1.00  0.00     0.309 C
ENDBRANCH  37  38
ENDBRANCH  32  37
ENDBRANCH   1  27
TORSDOF 14
ENDMDL