MODEL 3
REMARK VINA RESULT: -8.886165867      1.659      3.387
REMARK  13 active torsions:
REMARK  status: ('A' for Active; 'I' for Inactive)
REMARK    1  A    between atoms: C4_4  and  S1_5
REMARK    2  A    between atoms: S1_5  and  N1_6
REMARK    3  A    between atoms: C5_11  and  N2_12
REMARK    4  A    between atoms: N2_12  and  S2_14
REMARK    5  A    between atoms: C8_19  and  S3_20
REMARK    6  A    between atoms: S3_20  and  C9_23
REMARK    7  A    between atoms: C9_23  and  C12_26
REMARK    8  A    between atoms: C12_26  and  C13_27
REMARK    9  A    between atoms: C13_27  and  C14_28
REMARK   10  A    between atoms: C14_28  and  C15_29
REMARK   11  A    between atoms: C15_29  and  C16_30
REMARK   12  A    between atoms: C16_30  and  O7_31
REMARK   13  A    between atoms: O7_31  and  C17_32
ROOT
HETATM    1  C1  UNL     1      14.556  21.391  13.782  1.00  0.00     0.050 C
HETATM    2  C2  UNL     1      13.807  21.046  15.026  1.00  0.00    -0.039 A
HETATM    3  C3  UNL     1      12.559  20.412  14.853  1.00  0.00     0.036 A
HETATM    4  C4  UNL     1      11.739  20.115  15.899  1.00  0.00     0.107 A
HETATM    5  C5  UNL     1      12.178  20.461  17.153  1.00  0.00     0.067 A
HETATM    6  C7  UNL     1      13.390  21.076  17.329  1.00  0.00     0.055 A
HETATM    7  C8  UNL     1      14.264  21.396  16.259  1.00  0.00     0.068 A
ENDROOT
BRANCH   7   8
HETATM    8  S3  UNL     1      15.799  22.068  16.567  1.00  0.00     0.184 S
HETATM    9  O5  UNL     1      16.979  21.311  16.091  1.00  0.00    -0.222 OA
HETATM   10  O6  UNL     1      15.859  23.400  15.786  1.00  0.00    -0.222 OA
BRANCH   8  11
HETATM   11  C9  UNL     1      16.135  22.514  18.273  1.00  0.00     0.061 C
HETATM   12  C10 UNL     1      15.277  21.823  19.258  1.00  0.00     0.032 C
HETATM   13  C11 UNL     1      15.810  24.014  18.390  1.00  0.00     0.032 C
BRANCH  11  14
HETATM   14  C12 UNL     1      17.581  22.270  18.486  1.00  0.00     0.025 C
BRANCH  14  15
HETATM   15  C13 UNL     1      18.204  22.181  19.796  1.00  0.00     0.002 C
BRANCH  15  16
HETATM   16  C14 UNL     1      18.699  23.412  20.467  1.00  0.00     0.002 C
BRANCH  16  17
HETATM   17  C15 UNL     1      19.834  24.063  19.655  1.00  0.00     0.026 C
BRANCH  17  18
HETATM   18  C16 UNL     1      19.312  25.142  18.729  1.00  0.00     0.168 C
BRANCH  18  19
HETATM   19  O7  UNL     1      20.164  25.218  17.656  1.00  0.00    -0.381 OA
BRANCH  19  20
HETATM   20  C17 UNL     1      19.577  25.439  16.435  1.00  0.00     0.057 C
HETATM   21  C18 UNL     1      19.276  24.073  15.801  1.00  0.00     0.046 C
HETATM   22  C19 UNL     1      18.213  26.109  16.583  1.00  0.00     0.037 C
HETATM   23  C20 UNL     1      17.585  26.227  15.224  1.00  0.00     0.003 C
HETATM   24  C21 UNL     1      18.434  27.103  14.330  1.00  0.00     0.000 C
HETATM   25  C22 UNL     1      19.805  26.498  14.192  1.00  0.00     0.003 C
HETATM   26  C23 UNL     1      20.469  26.237  15.527  1.00  0.00     0.037 C
ENDBRANCH  19  20
ENDBRANCH  18  19
ENDBRANCH  17  18
ENDBRANCH  16  17
ENDBRANCH  15  16
ENDBRANCH  14  15
ENDBRANCH  11  14
ENDBRANCH   8  11
ENDBRANCH   7   8
BRANCH   5  27
HETATM   27  N2  UNL     1      11.357  20.170  18.273  1.00  0.00    -0.283 N
ATOM     28  H2  UNL     1      10.570  20.787  18.477  1.00  0.00     0.178 HD
BRANCH  27  29
HETATM   29  S2  UNL     1      11.638  18.817  19.303  1.00  0.00     0.227 S
HETATM   30  C6  UNL     1      12.992  19.063  20.394  1.00  0.00     0.186 C
HETATM   31  O3  UNL     1      10.393  18.490  20.097  1.00  0.00    -0.206 OA
HETATM   32  O4  UNL     1      11.923  17.617  18.449  1.00  0.00    -0.206 OA
ENDBRANCH  27  29
ENDBRANCH   5  27
BRANCH   4  33
HETATM   33  S1  UNL     1      10.188  19.322  15.613  1.00  0.00     0.259 S
HETATM   34  O1  UNL     1       9.843  19.404  14.164  1.00  0.00    -0.201 OA
HETATM   35  O2  UNL     1       9.148  20.038  16.444  1.00  0.00    -0.201 OA
BRANCH  33  36
HETATM   36  N1  UNL     1      10.249  17.653  16.053  1.00  0.00    -0.324 N
ATOM     37  H12 UNL     1      11.106  17.174  16.330  1.00  0.00     0.169 HD
ATOM     38  H11 UNL     1       9.326  17.223  15.998  1.00  0.00     0.169 HD
ENDBRANCH  33  36
ENDBRANCH   4  33
TORSDOF 13
ENDMDL