MODEL 4
REMARK VINA RESULT: -8.237467298      1.820      3.041
REMARK  13 active torsions:
REMARK  status: ('A' for Active; 'I' for Inactive)
REMARK    1  A    between atoms: C2_2  and  C3_3
REMARK    2  A    between atoms: C5_5  and  O1_6
REMARK    3  A    between atoms: O1_6  and  C6_7
REMARK    4  A    between atoms: C6_7  and  C7_8
REMARK    5  A    between atoms: C8_11  and  C9_12
REMARK    6  A    between atoms: C14_17  and  C15_18
REMARK    7  A    between atoms: C15_18  and  C16_20
REMARK       I    between atoms: C16_20  and  N2_22
REMARK    8  A    between atoms: N2_22  and  C17_24
REMARK    9  A    between atoms: C20_27  and  S1_28
REMARK   10  A    between atoms: N3_30  and  C22_31
REMARK   11  A    between atoms: C22_31  and  C23_32
REMARK       I    between atoms: C23_32  and  N4_34
REMARK   12  A    between atoms: N4_34  and  C24_35
REMARK   13  A    between atoms: N4_34  and  C26_37
ROOT
HETATM    1  C16 UNL     1      16.692  23.075  17.424  1.00  0.00     0.297 C
HETATM    2  O4  UNL     1      15.911  23.995  17.741  1.00  0.00    -0.264 OA
HETATM    3  N2  UNL     1      17.864  23.347  16.704  1.00  0.00    -0.316 N
ATOM      4  H2  UNL     1      18.446  22.541  16.479  1.00  0.00     0.169 HD
ENDROOT
BRANCH   1   5
HETATM    5  C15 UNL     1      16.372  21.676  17.815  1.00  0.00     0.250 C
HETATM    6  O3  UNL     1      17.244  21.050  18.460  1.00  0.00    -0.281 OA
BRANCH   5   7
HETATM    7  C14 UNL     1      15.123  21.067  17.475  1.00  0.00     0.027 A
HETATM    8  C3  UNL     1      14.581  21.279  16.212  1.00  0.00    -0.041 A
HETATM    9  C4  UNL     1      13.342  20.673  15.959  1.00  0.00     0.045 A
HETATM   10  C5  UNL     1      12.682  19.911  16.888  1.00  0.00     0.076 A
HETATM   11  C8  UNL     1      13.227  19.707  18.144  1.00  0.00    -0.016 A
HETATM   12  C13 UNL     1      14.445  20.287  18.428  1.00  0.00     0.027 A
BRANCH   8  13
HETATM   13  C2  UNL     1      15.199  22.080  15.156  1.00  0.00     0.035 C
HETATM   14  C1  UNL     1      14.623  21.798  13.767  1.00  0.00     0.010 C
ENDBRANCH   8  13
BRANCH  10  15
HETATM   15  O1  UNL     1      11.455  19.318  16.627  1.00  0.00    -0.342 OA
BRANCH  15  16
HETATM   16  C6  UNL     1      10.855  19.548  15.382  1.00  0.00     0.275 C
BRANCH  16  17
HETATM   17  C7  UNL     1       9.937  18.461  14.973  1.00  0.00     0.255 C
HETATM   18  N1  UNL     1       9.515  17.415  15.793  1.00  0.00    -0.060 NA
HETATM   19  O2  UNL     1       9.502  18.484  13.789  1.00  0.00    -0.274 OA
ENDBRANCH  16  17
ENDBRANCH  15  16
ENDBRANCH  10  15
BRANCH  11  20
HETATM   20  C9  UNL     1      12.489  18.889  19.108  1.00  0.00    -0.021 C
HETATM   21  C10 UNL     1      12.681  17.400  18.879  1.00  0.00     0.019 C
HETATM   22  C11 UNL     1      11.005  19.171  19.111  1.00  0.00     0.019 C
HETATM   23  C12 UNL     1      13.036  19.180  20.501  1.00  0.00     0.019 C
ENDBRANCH  11  20
ENDBRANCH   5   7
ENDBRANCH   1   5
BRANCH   3  24
HETATM   24  C17 UNL     1      18.336  24.588  16.254  1.00  0.00     0.104 A
HETATM   25  C18 UNL     1      18.035  25.103  15.028  1.00  0.00     0.038 A
HETATM   26  C19 UNL     1      18.539  26.360  14.679  1.00  0.00     0.039 A
HETATM   27  C20 UNL     1      19.332  27.078  15.561  1.00  0.00     0.074 A
HETATM   28  N3  UNL     1      19.629  26.563  16.778  1.00  0.00    -0.298 N
HETATM   29  C28 UNL     1      19.143  25.367  17.095  1.00  0.00     0.275 A
HETATM   30  O6  UNL     1      19.431  24.904  18.238  1.00  0.00    -0.265 OA
BRANCH  27  31
HETATM   31  S1  UNL     1      19.910  28.673  15.063  1.00  0.00    -0.117 SA
HETATM   32  C21 UNL     1      20.956  28.524  13.600  1.00  0.00     0.097 C
ENDBRANCH  27  31
BRANCH  28  33
HETATM   33  C22 UNL     1      20.474  27.326  17.673  1.00  0.00     0.236 C
BRANCH  33  34
HETATM   34  C23 UNL     1      21.866  26.839  17.635  1.00  0.00     0.238 C
HETATM   35  O5  UNL     1      22.453  26.709  16.536  1.00  0.00    -0.272 OA
HETATM   36  N4  UNL     1      22.552  26.517  18.823  1.00  0.00    -0.351 N
BRANCH  36  37
HETATM   37  C24 UNL     1      23.912  26.054  18.833  1.00  0.00     0.121 C
HETATM   38  C25 UNL     1      24.911  27.131  19.217  1.00  0.00     0.026 C
ENDBRANCH  36  37
BRANCH  36  39
HETATM   39  C26 UNL     1      21.877  26.648  20.094  1.00  0.00     0.121 C
HETATM   40  C27 UNL     1      21.799  25.302  20.811  1.00  0.00     0.026 C
ENDBRANCH  36  39
ENDBRANCH  33  34
ENDBRANCH  28  33
ENDBRANCH   3  24
TORSDOF 13
ENDMDL