MODEL 5
REMARK VINA RESULT: -7.810956518      1.406      3.840
REMARK  18 active torsions:
REMARK  status: ('A' for Active; 'I' for Inactive)
REMARK    1  A    between atoms: C2_2  and  C3_3
REMARK    2  A    between atoms: C3_3  and  C4_4
REMARK    3  A    between atoms: C3_3  and  N3_24
REMARK    4  A    between atoms: C4_4  and  N1_5
REMARK    5  A    between atoms: N1_5  and  C5_6
REMARK       I    between atoms: N1_5  and  C7_8
REMARK    6  A    between atoms: C7_8  and  C8_10
REMARK    7  A    between atoms: C8_10  and  C9_11
REMARK    8  A    between atoms: C9_11  and  C10_12
REMARK    9  A    between atoms: C10_12  and  C11_13
REMARK   10  A    between atoms: C11_13  and  C12_14
REMARK   11  A    between atoms: C12_14  and  N2_15
REMARK       I    between atoms: N2_15  and  C13_17
REMARK   12  A    between atoms: C13_17  and  O3_19
REMARK   13  A    between atoms: O3_19  and  C14_20
REMARK       I    between atoms: N3_24  and  C18_26
REMARK   14  A    between atoms: C18_26  and  C19_28
REMARK   15  A    between atoms: C19_28  and  O5_29
REMARK   16  A    between atoms: C19_28  and  N4_31
REMARK       I    between atoms: N5_34  and  C22_35
REMARK   17  A    between atoms: C22_35  and  O7_37
REMARK   18  A    between atoms: O7_37  and  C23_38
ROOT
HETATM    1  C3  UNL     1      13.140  21.071  17.238  1.00  0.00     0.102 C
ENDROOT
BRANCH   1   2
HETATM    2  C2  UNL     1      12.426  20.537  18.430  1.00  0.00     0.022 C
HETATM    3  C1  UNL     1      13.378  19.888  19.426  1.00  0.00     0.007 C
ENDBRANCH   1   2
BRANCH   1   4
HETATM    4  C4  UNL     1      12.207  21.355  16.088  1.00  0.00     0.150 C
BRANCH   4   5
HETATM    5  N1  UNL     1      12.455  20.691  14.867  1.00  0.00    -0.351 N
HETATM    6  C7  UNL     1      11.397  20.229  14.053  1.00  0.00     0.219 C
HETATM    7  O1  UNL     1      10.218  20.436  14.406  1.00  0.00    -0.273 OA
BRANCH   5   8
HETATM    8  C5  UNL     1      13.797  20.436  14.342  1.00  0.00     0.121 C
HETATM    9  C6  UNL     1      14.305  21.772  13.833  1.00  0.00     0.026 C
ENDBRANCH   5   8
BRANCH   6  10
HETATM   10  C8  UNL     1      11.588  19.489  12.767  1.00  0.00     0.103 C
BRANCH  10  11
HETATM   11  C9  UNL     1      10.245  19.267  12.081  1.00  0.00     0.009 C
BRANCH  11  12
HETATM   12  C10 UNL     1      10.329  18.069  11.159  1.00  0.00     0.002 C
BRANCH  12  13
HETATM   13  C11 UNL     1      11.016  16.902  11.814  1.00  0.00     0.020 C
BRANCH  13  14
HETATM   14  C12 UNL     1      10.145  16.123  12.753  1.00  0.00     0.125 C
BRANCH  14  15
HETATM   15  N2  UNL     1      10.656  16.184  14.113  1.00  0.00    -0.337 N
HETATM   16  C13 UNL     1      10.007  15.635  15.243  1.00  0.00     0.361 C
HETATM   17  O2  UNL     1       8.910  15.037  15.189  1.00  0.00    -0.238 OA
ATOM     18  H2  UNL     1      11.548  16.657  14.262  1.00  0.00     0.164 HD
BRANCH  16  19
HETATM   19  O3  UNL     1      10.592  15.751  16.482  1.00  0.00    -0.294 OA
BRANCH  19  20
HETATM   20  C14 UNL     1      10.296  16.675  17.478  1.00  0.00     0.061 C
HETATM   21  C15 UNL     1      11.544  16.818  18.356  1.00  0.00     0.046 C
HETATM   22  C16 UNL     1       9.169  16.250  18.403  1.00  0.00     0.046 C
HETATM   23  C17 UNL     1       9.981  18.062  16.967  1.00  0.00     0.046 C
ENDBRANCH  19  20
ENDBRANCH  16  19
ENDBRANCH  14  15
ENDBRANCH  13  14
ENDBRANCH  12  13
ENDBRANCH  11  12
ENDBRANCH  10  11
ENDBRANCH   6  10
ENDBRANCH   4   5
ENDBRANCH   1   4
BRANCH   1  24
HETATM   24  N3  UNL     1      13.729  22.371  17.596  1.00  0.00    -0.348 N
HETATM   25  C18 UNL     1      15.147  22.595  17.586  1.00  0.00     0.292 C
HETATM   26  O4  UNL     1      15.836  21.612  17.246  1.00  0.00    -0.264 OA
ATOM     27  H3  UNL     1      13.110  23.137  17.861  1.00  0.00     0.163 HD
BRANCH  25  28
HETATM   28  C19 UNL     1      15.727  23.852  17.933  1.00  0.00     0.208 C
BRANCH  28  29
HETATM   29  O5  UNL     1      14.881  24.684  18.484  1.00  0.00    -0.342 OA
ATOM     30  H5  UNL     1      15.151  25.593  18.428  1.00  0.00     0.219 HD
ENDBRANCH  28  29
BRANCH  28  31
HETATM   31  N4  UNL     1      17.035  24.285  17.763  1.00  0.00    -0.354 N
HETATM   32  C20 UNL     1      17.789  24.717  18.970  1.00  0.00     0.145 C
HETATM   33  C21 UNL     1      19.171  25.193  18.618  1.00  0.00     0.148 C
HETATM   34  N5  UNL     1      19.126  26.108  17.479  1.00  0.00    -0.325 N
HETATM   35  C22 UNL     1      19.992  27.218  17.436  1.00  0.00     0.363 C
HETATM   36  C27 UNL     1      18.191  25.871  16.413  1.00  0.00     0.148 C
HETATM   37  O6  UNL     1      20.820  27.471  18.319  1.00  0.00    -0.238 OA
HETATM   38  C28 UNL     1      17.734  24.397  16.530  1.00  0.00     0.145 C
BRANCH  35  39
HETATM   39  O7  UNL     1      19.926  28.082  16.354  1.00  0.00    -0.294 OA
BRANCH  39  40
HETATM   40  C23 UNL     1      20.860  28.049  15.313  1.00  0.00     0.061 C
HETATM   41  C24 UNL     1      20.031  28.194  14.024  1.00  0.00     0.046 C
HETATM   42  C25 UNL     1      21.585  26.737  15.164  1.00  0.00     0.046 C
HETATM   43  C26 UNL     1      21.826  29.182  15.361  1.00  0.00     0.046 C
ENDBRANCH  39  40
ENDBRANCH  35  39
ENDBRANCH  28  31
ENDBRANCH  25  28
ENDBRANCH   1  24
TORSDOF 18
ENDMDL