MODEL 3
REMARK VINA RESULT: -8.548247970      0.930      1.546
REMARK  16 active torsions:
REMARK  status: ('A' for Active; 'I' for Inactive)
REMARK    1  A    between atoms: C4_4  and  C6_6
REMARK    2  A    between atoms: C6_6  and  C7_7
REMARK    3  A    between atoms: C9_9  and  C10_10
REMARK    4  A    between atoms: C10_10  and  C11_11
REMARK    5  A    between atoms: C11_11  and  C12_12
REMARK    6  A    between atoms: N1_15  and  C15_16
REMARK    7  A    between atoms: C15_16  and  O1_17
REMARK    8  A    between atoms: C15_16  and  C16_19
REMARK    9  A    between atoms: C16_19  and  N2_21
REMARK   10  A    between atoms: C19_26  and  O2_27
REMARK   11  A    between atoms: O2_27  and  C20_28
REMARK   12  A    between atoms: C20_28  and  C21_30
REMARK   13  A    between atoms: C21_30  and  C22_31
REMARK   14  A    between atoms: C22_31  and  C23_32
REMARK   15  A    between atoms: C23_32  and  O5_34
REMARK   16  A    between atoms: O5_34  and  C24_35
ROOT
HETATM    1  C1  UNL     1      12.960  19.138  20.340  1.00  0.00     0.017 C
HETATM    2  C2  UNL     1      12.379  19.464  19.328  1.00  0.00    -0.089 C
HETATM    3  C3  UNL     1      11.669  19.843  18.132  1.00  0.00     0.066 C
HETATM    4  C4  UNL     1      12.387  20.209  17.049  1.00  0.00    -0.072 C
HETATM    5  C5  UNL     1      11.608  20.589  15.847  1.00  0.00     0.044 C
ENDROOT
BRANCH   4   6
HETATM    6  C6  UNL     1      13.857  20.239  17.097  1.00  0.00     0.067 C
BRANCH   6   7
HETATM    7  C7  UNL     1      14.455  21.578  16.895  1.00  0.00    -0.084 C
HETATM    8  C8  UNL     1      14.078  22.678  17.820  1.00  0.00     0.043 C
HETATM    9  C9  UNL     1      15.322  21.770  15.902  1.00  0.00    -0.024 C
BRANCH   9  10
HETATM   10  C10 UNL     1      15.984  23.065  15.602  1.00  0.00     0.028 C
BRANCH  10  11
HETATM   11  C11 UNL     1      17.409  23.090  16.110  1.00  0.00     0.015 C
BRANCH  11  12
HETATM   12  C12 UNL     1      17.661  24.238  17.058  1.00  0.00    -0.012 C
HETATM   13  C13 UNL     1      16.588  25.339  16.787  1.00  0.00     0.018 C
HETATM   14  C14 UNL     1      18.968  24.912  16.638  1.00  0.00     0.143 C
HETATM   15  N1  UNL     1      19.504  25.790  17.618  1.00  0.00    -0.309 N
HETATM   16  C19 UNL     1      19.383  25.373  18.997  1.00  0.00     0.162 C
HETATM   17  C27 UNL     1      18.496  24.494  19.393  1.00  0.00     0.006 C
HETATM   18  C28 UNL     1      18.119  23.870  20.657  1.00  0.00     0.016 C
HETATM   19  C31 UNL     1      17.508  23.856  18.435  1.00  0.00     0.106 C
HETATM   20  C29 UNL     1      17.595  22.655  20.393  1.00  0.00     0.051 C
HETATM   21  C30 UNL     1      17.632  22.480  18.906  1.00  0.00     0.158 C
HETATM   22  O6  UNL     1      17.745  21.350  18.388  1.00  0.00    -0.292 OA
BRANCH  15  23
HETATM   23  C15 UNL     1      20.168  26.972  17.313  1.00  0.00     0.142 C
BRANCH  23  24
HETATM   24  O1  UNL     1      19.970  27.950  18.163  1.00  0.00    -0.348 OA
ATOM     25  H1  UNL     1      20.490  28.729  18.003  1.00  0.00     0.219 HD
ENDBRANCH  23  24
BRANCH  23  26
HETATM   26  C16 UNL     1      21.054  27.346  16.220  1.00  0.00     0.154 C
HETATM   27  C17 UNL     1      20.358  27.312  14.869  1.00  0.00     0.041 C
BRANCH  26  28
HETATM   28  N2  UNL     1      22.196  26.496  16.113  1.00  0.00    -0.355 N
HETATM   29  C18 UNL     1      23.416  26.961  16.128  1.00  0.00     0.197 C
HETATM   30  N3  UNL     1      23.621  28.367  16.256  1.00  0.00    -0.067 NA
HETATM   31  N4  UNL     1      24.545  26.136  16.022  1.00  0.00    -0.067 NA
ATOM     32  H2  UNL     1      22.054  25.491  16.022  1.00  0.00     0.162 HD
ENDBRANCH  26  28
ENDBRANCH  23  26
ENDBRANCH  15  23
BRANCH  16  33
HETATM   33  O2  UNL     1      20.217  25.899  19.989  1.00  0.00    -0.261 OA
BRANCH  33  34
HETATM   34  C20 UNL     1      21.465  25.356  20.259  1.00  0.00     0.265 C
HETATM   35  O3  UNL     1      21.500  24.436  21.107  1.00  0.00    -0.265 OA
BRANCH  34  36
HETATM   36  C21 UNL     1      22.703  25.814  19.604  1.00  0.00     0.121 C
BRANCH  36  37
HETATM   37  C22 UNL     1      23.966  25.284  20.182  1.00  0.00     0.121 C
BRANCH  37  38
HETATM   38  C23 UNL     1      24.462  26.133  21.278  1.00  0.00     0.259 C
HETATM   39  O4  UNL     1      25.092  27.174  21.051  1.00  0.00    -0.265 OA
BRANCH  38  40
HETATM   40  O5  UNL     1      24.212  25.753  22.586  1.00  0.00    -0.317 OA
BRANCH  40  41
HETATM   41  C24 UNL     1      23.948  26.679  23.597  1.00  0.00     0.123 C
HETATM   42  C25 UNL     1      22.496  27.011  23.764  1.00  0.00     0.040 C
HETATM   43  C26 UNL     1      24.430  26.059  24.904  1.00  0.00     0.040 C
ENDBRANCH  40  41
ENDBRANCH  38  40
ENDBRANCH  37  38
ENDBRANCH  36  37
ENDBRANCH  34  36
ENDBRANCH  33  34
ENDBRANCH  16  33
ENDBRANCH  11  12
ENDBRANCH  10  11
ENDBRANCH   9  10
ENDBRANCH   6   7
ENDBRANCH   4   6
TORSDOF 16
ENDMDL