MODEL 5
REMARK VINA RESULT: -9.271588305      0.842      3.010
REMARK  14 active torsions:
REMARK  status: ('A' for Active; 'I' for Inactive)
REMARK    1  A    between atoms: C2_2  and  C3_3
REMARK    2  A    between atoms: C3_3  and  C4_4
REMARK    3  A    between atoms: C4_4  and  N1_5
REMARK       I    between atoms: N1_5  and  C5_6
REMARK    4  A    between atoms: N1_5  and  C20_28
REMARK    5  A    between atoms: C5_6  and  C6_8
REMARK    6  A    between atoms: C9_11  and  C10_12
REMARK    7  A    between atoms: C10_12  and  O2_13
REMARK    8  A    between atoms: C10_12  and  N2_15
REMARK    9  A    between atoms: N2_15  and  C12_17
REMARK   10  A    between atoms: N5_31  and  C22_32
REMARK   11  A    between atoms: C22_32  and  C23_33
REMARK   12  A    between atoms: C23_33  and  C24_34
REMARK   13  A    between atoms: N6_38  and  C27_39
REMARK   14  A    between atoms: C27_39  and  C28_40
ROOT
HETATM    1  N1  UNL     1      14.662  21.394  16.755  1.00  0.00    -0.306 N
HETATM    2  C5  UNL     1      14.881  22.768  16.437  1.00  0.00     0.264 C
HETATM    3  O1  UNL     1      13.960  23.390  15.859  1.00  0.00    -0.267 OA
ENDROOT
BRANCH   2   4
HETATM    4  C6  UNL     1      16.093  23.516  16.739  1.00  0.00     0.100 A
HETATM    5  C7  UNL     1      17.273  23.349  16.057  1.00  0.00     0.025 A
HETATM    6  C8  UNL     1      18.403  24.059  16.343  1.00  0.00     0.035 A
HETATM    7  C9  UNL     1      18.416  25.025  17.381  1.00  0.00     0.086 A
HETATM    8  N3  UNL     1      17.253  25.175  18.034  1.00  0.00    -0.319 N
HETATM    9  C19 UNL     1      16.123  24.460  17.741  1.00  0.00     0.261 A
ATOM     10  H3  UNL     1      17.208  25.859  18.788  1.00  0.00     0.169 HD
HETATM   11  O3  UNL     1      15.108  24.723  18.448  1.00  0.00    -0.267 OA
BRANCH   7  12
HETATM   12  C10 UNL     1      19.656  25.672  17.661  1.00  0.00     0.165 C
BRANCH  12  13
HETATM   13  O2  UNL     1      20.609  24.870  18.068  1.00  0.00    -0.344 OA
ATOM     14  H2  UNL     1      20.544  23.980  17.743  1.00  0.00     0.219 HD
ENDBRANCH  12  13
BRANCH  12  15
HETATM   15  N2  UNL     1      20.093  27.010  17.600  1.00  0.00    -0.359 N
HETATM   16  C11 UNL     1      20.463  27.792  18.761  1.00  0.00     0.152 C
BRANCH  15  17
HETATM   17  C12 UNL     1      20.147  27.657  16.282  1.00  0.00     0.090 C
HETATM   18  C13 UNL     1      21.250  28.616  16.111  1.00  0.00     0.030 C
HETATM   19  C14 UNL     1      21.795  28.335  14.705  1.00  0.00    -0.012 C
HETATM   20  C15 UNL     1      20.677  28.541  13.744  1.00  0.00     0.005 C
HETATM   21  C18 UNL     1      21.824  26.800  14.809  1.00  0.00     0.011 C
HETATM   22  C16 UNL     1      19.789  27.306  13.919  1.00  0.00     0.007 C
HETATM   23  C17 UNL     1      20.383  26.628  15.179  1.00  0.00     0.009 C
ENDBRANCH  15  17
ENDBRANCH  12  15
ENDBRANCH   7  12
ENDBRANCH   2   4
BRANCH   1  24
HETATM   24  C4  UNL     1      15.684  20.699  17.437  1.00  0.00     0.133 C
BRANCH  24  25
HETATM   25  C3  UNL     1      15.881  20.891  18.897  1.00  0.00     0.020 C
BRANCH  25  26
HETATM   26  C2  UNL     1      17.336  21.359  19.064  1.00  0.00    -0.003 C
HETATM   27  C1  UNL     1      17.501  22.156  20.325  1.00  0.00     0.005 C
ENDBRANCH  25  26
ENDBRANCH  24  25
ENDBRANCH   1  24
BRANCH   1  28
HETATM   28  C20 UNL     1      13.395  20.860  16.404  1.00  0.00     0.148 A
HETATM   29  C21 UNL     1      13.170  20.636  15.034  1.00  0.00     0.155 A
HETATM   30  N4  UNL     1      14.174  20.911  14.075  1.00  0.00    -0.080 NA
HETATM   31  N5  UNL     1      12.004  20.149  14.571  1.00  0.00    -0.285 N
HETATM   32  C26 UNL     1      11.008  19.859  15.418  1.00  0.00     0.333 A
HETATM   33  O4  UNL     1       9.922  19.401  14.929  1.00  0.00    -0.246 OA
HETATM   34  N6  UNL     1      11.174  20.054  16.727  1.00  0.00    -0.264 N
HETATM   35  C30 UNL     1      12.353  20.548  17.216  1.00  0.00     0.282 A
HETATM   36  O5  UNL     1      12.491  20.721  18.458  1.00  0.00    -0.265 OA
BRANCH  31  37
HETATM   37  C22 UNL     1      11.814  19.918  13.135  1.00  0.00     0.135 C
BRANCH  37  38
HETATM   38  C23 UNL     1      12.012  18.435  12.886  1.00  0.00     0.020 C
BRANCH  38  39
HETATM   39  C24 UNL     1      10.956  17.846  11.983  1.00  0.00    -0.003 C
HETATM   40  C25 UNL     1      10.258  18.939  11.184  1.00  0.00     0.005 C
ENDBRANCH  38  39
ENDBRANCH  37  38
ENDBRANCH  31  37
BRANCH  34  41
HETATM   41  C27 UNL     1      10.118  19.751  17.637  1.00  0.00     0.137 C
BRANCH  41  42
HETATM   42  C28 UNL     1      10.009  18.304  18.033  1.00  0.00     0.016 C
HETATM   43  C29 UNL     1      10.414  18.222  19.510  1.00  0.00     0.006 C
ENDBRANCH  41  42
ENDBRANCH  34  41
ENDBRANCH   1  28
TORSDOF 14
ENDMDL