MODEL 3
REMARK VINA RESULT: -8.816452887      3.555     10.921
REMARK  14 active torsions:
REMARK  status: ('A' for Active; 'I' for Inactive)
REMARK    1  A    between atoms: C2_2  and  C3_3
REMARK    2  A    between atoms: C3_3  and  C4_4
REMARK    3  A    between atoms: C4_4  and  C5_5
REMARK    4  A    between atoms: C5_5  and  C6_6
REMARK    5  A    between atoms: C5_5  and  C8_8
REMARK    6  A    between atoms: C8_8  and  O1_9
REMARK    7  A    between atoms: C8_8  and  C24_36
REMARK    8  A    between atoms: O1_9  and  C9_10
REMARK    9  A    between atoms: C9_10  and  C10_12
REMARK       I    between atoms: C10_12  and  N1_14
REMARK       I    between atoms: N1_14  and  C11_16
REMARK   10  A    between atoms: C11_16  and  C12_18
REMARK   11  A    between atoms: C17_25  and  N3_26
REMARK       I    between atoms: N3_26  and  C18_28
REMARK   12  A    between atoms: C24_36  and  C25_38
REMARK   13  A    between atoms: C25_38  and  C26_39
REMARK   14  A    between atoms: C26_39  and  C27_40
ROOT
HETATM    1  C10 UNL     1      14.962  22.439  15.464  1.00  0.00     0.323 C
HETATM    2  O3  UNL     1      14.235  23.407  15.746  1.00  0.00    -0.261 OA
HETATM    3  N1  UNL     1      16.366  22.528  15.574  1.00  0.00    -0.289 N
ATOM      4  H1  UNL     1      16.883  21.686  15.321  1.00  0.00     0.172 HD
HETATM    5  C11 UNL     1      17.141  23.609  15.981  1.00  0.00     0.229 C
HETATM    6  O4  UNL     1      18.406  23.464  16.041  1.00  0.00    -0.273 OA
ENDROOT
BRANCH   1   7
HETATM    7  C9  UNL     1      14.322  21.204  15.014  1.00  0.00     0.352 C
HETATM    8  O2  UNL     1      14.158  20.915  13.811  1.00  0.00    -0.254 OA
BRANCH   7   9
HETATM    9  O1  UNL     1      13.849  20.261  15.954  1.00  0.00    -0.300 OA
BRANCH   9  10
HETATM   10  C8  UNL     1      13.038  20.702  17.047  1.00  0.00     0.205 C
BRANCH  10  11
HETATM   11  C5  UNL     1      13.482  20.187  18.372  1.00  0.00     0.022 C
BRANCH  11  12
HETATM   12  C4  UNL     1      14.303  21.248  19.115  1.00  0.00     0.007 C
BRANCH  12  13
HETATM   13  C3  UNL     1      15.783  21.130  18.797  1.00  0.00     0.000 C
BRANCH  13  14
HETATM   14  C2  UNL     1      16.479  22.345  19.437  1.00  0.00    -0.005 C
HETATM   15  C1  UNL     1      17.959  22.104  19.504  1.00  0.00     0.005 C
ENDBRANCH  13  14
ENDBRANCH  12  13
ENDBRANCH  11  12
BRANCH  11  16
HETATM   16  C6  UNL     1      14.278  18.921  18.275  1.00  0.00     0.003 C
HETATM   17  C7  UNL     1      13.582  17.727  18.806  1.00  0.00     0.005 C
ENDBRANCH  11  16
ENDBRANCH  10  11
BRANCH  10  18
HETATM   18  C24 UNL     1      11.660  20.255  16.642  1.00  0.00     0.157 C
HETATM   19  O6  UNL     1      11.311  20.164  15.495  1.00  0.00    -0.295 OA
BRANCH  18  20
HETATM   20  C25 UNL     1      10.632  19.896  17.674  1.00  0.00     0.088 C
BRANCH  20  21
HETATM   21  C26 UNL     1      10.041  18.538  17.425  1.00  0.00     0.085 C
BRANCH  21  22
HETATM   22  C27 UNL     1      10.058  17.802  18.722  1.00  0.00     0.123 C
HETATM   23  C28 UNL     1      10.041  16.303  18.780  1.00  0.00     0.091 C
HETATM   24  O7  UNL     1      10.086  18.376  19.809  1.00  0.00    -0.298 OA
ENDBRANCH  21  22
ENDBRANCH  20  21
ENDBRANCH  18  20
ENDBRANCH  10  18
ENDBRANCH   9  10
ENDBRANCH   7   9
ENDBRANCH   1   7
BRANCH   5  25
HETATM   25  C12 UNL     1      16.567  24.914  16.343  1.00  0.00     0.087 C
HETATM   26  C13 UNL     1      17.341  25.474  17.511  1.00  0.00     0.053 C
HETATM   27  C14 UNL     1      18.504  26.189  16.905  1.00  0.00    -0.049 A
HETATM   28  C15 UNL     1      19.676  26.576  17.509  1.00  0.00     0.038 A
HETATM   29  C22 UNL     1      18.195  26.416  15.585  1.00  0.00    -0.050 A
HETATM   30  C16 UNL     1      20.661  27.257  16.758  1.00  0.00     0.051 A
HETATM   31  N2  UNL     1      21.829  27.686  17.200  1.00  0.00    -0.335 N
HETATM   32  C20 UNL     1      20.364  27.487  15.444  1.00  0.00     0.035 A
HETATM   33  C17 UNL     1      22.640  28.310  16.356  1.00  0.00     0.152 A
ATOM     34  H2  UNL     1      22.101  27.540  18.172  1.00  0.00     0.168 HD
HETATM   35  S1  UNL     1      21.761  28.306  14.895  1.00  0.00    -0.052 SA
HETATM   36  C21 UNL     1      19.153  27.079  14.851  1.00  0.00     0.029 A
HETATM   37  C23 UNL     1      16.873  25.884  15.220  1.00  0.00     0.053 C
BRANCH  33  38
HETATM   38  N3  UNL     1      23.824  28.813  16.568  1.00  0.00    -0.307 N
HETATM   39  C18 UNL     1      24.771  28.712  15.519  1.00  0.00     0.219 C
HETATM   40  C19 UNL     1      25.645  27.521  15.423  1.00  0.00     0.117 C
HETATM   41  O5  UNL     1      24.886  29.611  14.666  1.00  0.00    -0.274 OA
ATOM     42  H3  UNL     1      24.060  29.261  17.454  1.00  0.00     0.171 HD
ENDBRANCH  33  38
ENDBRANCH   5  25
TORSDOF 14
ENDMDL