MODEL 1
REMARK VINA RESULT: -7.695263535      0.000      0.000
REMARK  18 active torsions:
REMARK  status: ('A' for Active; 'I' for Inactive)
REMARK    1  A    between atoms: C2_2  and  N1_3
REMARK    2  A    between atoms: C2_2  and  C21_31
REMARK    3  A    between atoms: C3_5  and  O1_6
REMARK    4  A    between atoms: C3_5  and  C4_8
REMARK    5  A    between atoms: C4_8  and  C5_9
REMARK    6  A    between atoms: C4_8  and  C15_21
REMARK    7  A    between atoms: C5_9  and  C6_10
REMARK    8  A    between atoms: C7_11  and  C8_12
REMARK    9  A    between atoms: C8_12  and  C9_13
REMARK   10  A    between atoms: C9_13  and  N2_14
REMARK       I    between atoms: N2_14  and  C10_15
REMARK   11  A    between atoms: C10_15  and  C11_17
REMARK   12  A    between atoms: C15_21  and  S1_22
REMARK   13  A    between atoms: S1_22  and  C16_23
REMARK   14  A    between atoms: C16_23  and  N3_25
REMARK       I    between atoms: C21_31  and  N4_33
REMARK   15  A    between atoms: N4_33  and  C22_35
REMARK   16  A    between atoms: C22_35  and  C23_36
REMARK   17  A    between atoms: C23_36  and  C24_37
REMARK   18  A    between atoms: C24_37  and  N5_38
ROOT
HETATM    1  C4  UNL     1      14.849  21.777  19.171  1.00  0.00     0.047 C
ENDROOT
BRANCH   1   2
HETATM    2  C3  UNL     1      14.437  20.340  19.048  1.00  0.00     0.155 C
HETATM    3  N1  UNL     1      13.570  19.682  19.753  1.00  0.00    -0.335 N
ATOM      4  H1  UNL     1      13.530  20.216  20.622  1.00  0.00     0.168 HD
BRANCH   3   5
HETATM    5  C2  UNL     1      12.769  18.769  19.952  1.00  0.00     0.075 C
HETATM    6  C1  UNL     1      11.967  18.787  21.216  1.00  0.00     0.074 C
BRANCH   5   7
HETATM    7  C21 UNL     1      12.602  17.610  19.005  1.00  0.00     0.263 C
HETATM    8  O4  UNL     1      13.665  17.155  18.588  1.00  0.00    -0.266 OA
HETATM    9  N4  UNL     1      11.290  17.213  18.716  1.00  0.00    -0.356 N
ATOM     10  H4  UNL     1      10.504  17.674  19.174  1.00  0.00     0.162 HD
BRANCH   9  11
HETATM   11  C22 UNL     1      11.046  16.136  17.754  1.00  0.00     0.124 C
BRANCH  11  12
HETATM   12  C23 UNL     1       9.593  15.803  17.656  1.00  0.00     0.041 C
BRANCH  12  13
HETATM   13  C24 UNL     1       8.979  16.550  16.463  1.00  0.00     0.150 C
BRANCH  13  14
HETATM   14  N5  UNL     1       9.576  16.019  15.289  1.00  0.00    -0.304 N
HETATM   15  C25 UNL     1       9.556  14.745  14.812  1.00  0.00     0.111 A
HETATM   16  C26 UNL     1      10.306  14.753  13.632  1.00  0.00     0.037 A
HETATM   17  C27 UNL     1      10.740  16.024  13.462  1.00  0.00     0.108 A
HETATM   18  N6  UNL     1      10.310  16.777  14.444  1.00  0.00    -0.310 N
ATOM     19  H6  UNL     1      10.499  17.773  14.553  1.00  0.00     0.186 HD
ENDBRANCH  13  14
ENDBRANCH  12  13
ENDBRANCH  11  12
ENDBRANCH   9  11
ENDBRANCH   5   7
ENDBRANCH   3   5
BRANCH   2  20
HETATM   20  O1  UNL     1      15.062  19.710  18.066  1.00  0.00    -0.345 OA
ATOM     21  H1  UNL     1      15.625  20.214  17.489  1.00  0.00     0.219 HD
ENDBRANCH   2  20
ENDBRANCH   1   2
BRANCH   1  22
HETATM   22  C5  UNL     1      16.049  22.040  19.377  1.00  0.00    -0.116 C
BRANCH  22  23
HETATM   23  C6  UNL     1      17.344  22.366  19.777  1.00  0.00     0.052 C
HETATM   24  C7  UNL     1      17.542  23.642  20.125  1.00  0.00    -0.012 C
BRANCH  24  25
HETATM   25  C8  UNL     1      18.896  24.106  20.611  1.00  0.00     0.087 C
BRANCH  25  26
HETATM   26  C9  UNL     1      19.644  24.081  19.321  1.00  0.00     0.162 C
BRANCH  26  27
HETATM   27  N2  UNL     1      19.331  24.901  18.235  1.00  0.00    -0.387 NA
HETATM   28  C10 UNL     1      19.038  25.668  17.220  1.00  0.00     0.298 C
HETATM   29  O2  UNL     1      19.534  26.686  16.708  1.00  0.00    -0.256 OA
BRANCH  28  30
HETATM   30  C11 UNL     1      17.729  25.240  16.419  1.00  0.00     0.044 C
HETATM   31  C12 UNL     1      16.554  25.580  17.264  1.00  0.00     0.026 C
HETATM   32  C13 UNL     1      17.847  23.710  16.261  1.00  0.00     0.026 C
HETATM   33  C14 UNL     1      17.681  25.862  15.096  1.00  0.00     0.026 C
ENDBRANCH  28  30
ENDBRANCH  26  27
ENDBRANCH  25  26
ENDBRANCH  24  25
ENDBRANCH  22  23
ENDBRANCH   1  22
BRANCH   1  34
HETATM   34  C15 UNL     1      13.738  22.709  18.670  1.00  0.00     0.133 C
BRANCH  34  35
HETATM   35  S1  UNL     1      13.856  23.106  16.977  1.00  0.00    -0.095 SA
BRANCH  35  36
HETATM   36  C16 UNL     1      13.492  21.970  15.748  1.00  0.00     0.137 C
HETATM   37  S2  UNL     1      14.558  21.823  14.487  1.00  0.00    -0.053 SA
BRANCH  36  38
HETATM   38  N3  UNL     1      12.343  21.156  15.718  1.00  0.00    -0.362 N
HETATM   39  C17 UNL     1      11.286  21.619  14.708  1.00  0.00     0.150 C
HETATM   40  C18 UNL     1      10.644  20.299  14.246  1.00  0.00     0.187 C
HETATM   41  O3  UNL     1       9.807  19.864  15.282  1.00  0.00    -0.388 OA
HETATM   42  C19 UNL     1      10.471  19.980  16.515  1.00  0.00     0.187 C
HETATM   43  C20 UNL     1      12.007  19.953  16.374  1.00  0.00     0.150 C
ENDBRANCH  36  38
ENDBRANCH  35  36
ENDBRANCH  34  35
ENDBRANCH   1  34
TORSDOF 18
ENDMDL