MODEL 1
REMARK VINA RESULT: -8.916876767      0.000      0.000
REMARK  13 active torsions:
REMARK  status: ('A' for Active; 'I' for Inactive)
REMARK    1  A    between atoms: C2_2  and  C3_3
REMARK    2  A    between atoms: C3_3  and  C4_4
REMARK    3  A    between atoms: C4_4  and  C5_5
REMARK    4  A    between atoms: C5_5  and  N1_6
REMARK    5  A    between atoms: C9_13  and  N3_14
REMARK    6  A    between atoms: N4_17  and  C12_18
REMARK    7  A    between atoms: C12_18  and  C13_19
REMARK       I    between atoms: N5_24  and  C17_25
REMARK    8  A    between atoms: C17_25  and  C18_27
REMARK    9  A    between atoms: C18_27  and  N6_28
REMARK   10  A    between atoms: C18_27  and  C19_32
REMARK   11  A    between atoms: C19_32  and  C20_33
REMARK   12  A    between atoms: C20_33  and  C21_34
REMARK   13  A    between atoms: C27_40  and  O4_41
ROOT
HETATM    1  N3  UNL     1      15.110  22.994  15.702  1.00  0.00    -0.377 N
HETATM    2  C10 UNL     1      13.856  23.678  15.786  1.00  0.00     0.153 C
HETATM    3  C11 UNL     1      12.708  23.094  15.071  1.00  0.00     0.292 C
HETATM    4  N4  UNL     1      12.904  21.794  14.471  1.00  0.00     0.092 N
HETATM    5  C24 UNL     1      14.184  21.721  13.826  1.00  0.00     0.292 C
HETATM    6  C25 UNL     1      15.261  21.834  14.876  1.00  0.00     0.153 C
ENDROOT
BRANCH   1   7
HETATM    7  C9  UNL     1      16.216  23.482  16.442  1.00  0.00     0.035 A
HETATM    8  C8  UNL     1      16.803  24.717  16.194  1.00  0.00     0.060 A
HETATM    9  C7  UNL     1      17.873  25.173  16.931  1.00  0.00     0.057 A
HETATM   10  N2  UNL     1      18.435  26.362  16.686  1.00  0.00    -0.307 N
HETATM   11  C29 UNL     1      18.369  24.389  17.931  1.00  0.00     0.092 A
HETATM   12  C6  UNL     1      19.499  26.807  17.420  1.00  0.00     0.329 A
ATOM     13  H2  UNL     1      18.063  26.946  15.938  1.00  0.00     0.170 HD
HETATM   14  N1  UNL     1      20.016  26.066  18.412  1.00  0.00    -0.265 N
HETATM   15  O1  UNL     1      19.951  27.936  17.108  1.00  0.00    -0.246 OA
HETATM   16  C30 UNL     1      19.432  24.850  18.652  1.00  0.00     0.266 A
HETATM   17  O5  UNL     1      19.896  24.137  19.575  1.00  0.00    -0.267 OA
HETATM   18  C27 UNL     1      17.836  23.142  18.238  1.00  0.00     0.088 A
HETATM   19  C26 UNL     1      16.774  22.737  17.476  1.00  0.00     0.067 A
BRANCH  14  20
HETATM   20  C5  UNL     1      21.132  26.533  19.177  1.00  0.00     0.137 C
BRANCH  20  21
HETATM   21  C4  UNL     1      20.754  27.352  20.376  1.00  0.00     0.020 C
BRANCH  21  22
HETATM   22  C3  UNL     1      21.223  26.744  21.666  1.00  0.00     0.001 C
BRANCH  22  23
HETATM   23  C2  UNL     1      22.289  25.691  21.451  1.00  0.00    -0.004 C
HETATM   24  C1  UNL     1      23.289  25.679  22.578  1.00  0.00     0.005 C
ENDBRANCH  22  23
ENDBRANCH  21  22
ENDBRANCH  20  21
ENDBRANCH  14  20
BRANCH  18  25
HETATM   25  O4  UNL     1      18.369  22.371  19.268  1.00  0.00    -0.355 OA
HETATM   26  C28 UNL     1      17.465  21.928  20.262  1.00  0.00     0.210 C
ENDBRANCH  18  25
ENDBRANCH   1   7
BRANCH   4  27
HETATM   27  C12 UNL     1      12.617  20.717  15.374  1.00  0.00     0.278 C
BRANCH  27  28
HETATM   28  C13 UNL     1      11.233  20.857  15.964  1.00  0.00     0.033 C
HETATM   29  C14 UNL     1      10.200  21.072  14.878  1.00  0.00     0.017 C
HETATM   30  C15 UNL     1      10.204  19.894  13.919  1.00  0.00     0.104 C
HETATM   31  C16 UNL     1      10.336  18.622  14.700  1.00  0.00     0.226 C
HETATM   32  O2  UNL     1      10.459  17.512  14.110  1.00  0.00    -0.273 OA
HETATM   33  N5  UNL     1      10.328  18.619  16.120  1.00  0.00    -0.286 N
HETATM   34  C17 UNL     1       9.681  17.534  16.799  1.00  0.00     0.257 C
HETATM   35  C23 UNL     1      10.961  19.688  16.843  1.00  0.00     0.141 C
HETATM   36  O3  UNL     1       9.136  16.643  16.123  1.00  0.00    -0.271 OA
BRANCH  34  37
HETATM   37  C18 UNL     1       9.648  17.455  18.271  1.00  0.00     0.275 C
BRANCH  37  38
HETATM   38  N6  UNL     1       8.518  16.581  18.611  1.00  0.00    -0.066 N
ATOM     39  H63 UNL     1       7.836  17.023  19.229  1.00  0.00     0.275 HD
ATOM     40  H62 UNL     1       7.887  16.411  17.828  1.00  0.00     0.275 HD
ATOM     41  H61 UNL     1       8.923  15.728  18.998  1.00  0.00     0.275 HD
ENDBRANCH  37  38
BRANCH  37  42
HETATM   42  C19 UNL     1      10.933  16.789  18.741  1.00  0.00     0.042 C
BRANCH  42  43
HETATM   43  C20 UNL     1      11.378  17.324  20.091  1.00  0.00     0.002 C
BRANCH  43  44
HETATM   44  C21 UNL     1      12.676  18.092  19.810  1.00  0.00    -0.004 C
HETATM   45  C22 UNL     1      13.372  17.497  18.627  1.00  0.00     0.005 C
ENDBRANCH  43  44
ENDBRANCH  42  43
ENDBRANCH  37  42
ENDBRANCH  34  37
ENDBRANCH  27  28
ENDBRANCH   4  27
TORSDOF 13
ENDMDL