MODEL 5
REMARK VINA RESULT: -8.404498975      1.937     10.465
REMARK  14 active torsions:
REMARK  status: ('A' for Active; 'I' for Inactive)
REMARK    1  A    between atoms: C2_2  and  C5_5
REMARK       I    between atoms: C5_5  and  N1_7
REMARK    2  A    between atoms: N1_7  and  C6_9
REMARK    3  A    between atoms: C9_12  and  C10_13
REMARK    4  A    between atoms: C10_13  and  O2_14
REMARK    5  A    between atoms: O2_14  and  C11_15
REMARK    6  A    between atoms: C11_15  and  C12_16
REMARK    7  A    between atoms: C12_16  and  N2_17
REMARK    8  A    between atoms: N3_20  and  C15_21
REMARK    9  A    between atoms: C15_21  and  C16_26
REMARK   10  A    between atoms: N4_22  and  O3_24
REMARK   11  A    between atoms: C23_33  and  O4_34
REMARK   12  A    between atoms: O4_34  and  C24_35
REMARK   13  A    between atoms: C24_35  and  C25_36
REMARK   14  A    between atoms: C25_36  and  N5_37
ROOT
HETATM    1  C6  UNL     1      13.731  20.528  16.770  1.00  0.00     0.086 C
HETATM    2  C7  UNL     1      13.475  20.363  15.310  1.00  0.00     0.026 C
HETATM    3  C8  UNL     1      13.209  21.625  14.570  1.00  0.00     0.011 C
HETATM    4  C9  UNL     1      14.241  22.635  15.005  1.00  0.00     0.038 C
HETATM    5  C23 UNL     1      13.935  23.046  16.376  1.00  0.00     0.129 C
HETATM    6  C30 UNL     1      14.216  21.812  17.258  1.00  0.00     0.057 C
ENDROOT
BRANCH   4   7
HETATM    7  C10 UNL     1      14.476  23.701  13.962  1.00  0.00     0.174 C
BRANCH   7   8
HETATM    8  O2  UNL     1      15.758  23.894  13.634  1.00  0.00    -0.389 OA
BRANCH   8   9
HETATM    9  C11 UNL     1      16.176  25.171  13.508  1.00  0.00     0.187 C
BRANCH   9  10
HETATM   10  C12 UNL     1      16.944  25.790  14.608  1.00  0.00     0.143 C
BRANCH  10  11
HETATM   11  N2  UNL     1      18.331  25.994  14.450  1.00  0.00    -0.407 N
HETATM   12  C13 UNL     1      19.179  24.992  15.047  1.00  0.00     0.136 C
HETATM   13  C14 UNL     1      19.707  25.577  16.356  1.00  0.00     0.143 C
HETATM   14  N3  UNL     1      20.618  26.661  16.002  1.00  0.00    -0.366 N
HETATM   15  C21 UNL     1      20.331  27.278  14.694  1.00  0.00     0.143 C
HETATM   16  C22 UNL     1      18.811  27.329  14.615  1.00  0.00     0.136 C
BRANCH  14  17
HETATM   17  C15 UNL     1      21.678  27.116  16.794  1.00  0.00     0.103 C
HETATM   18  N4  UNL     1      21.449  27.858  17.816  1.00  0.00    -0.257 N
ATOM     19  H4  UNL     1      22.221  28.190  18.395  1.00  0.00     0.195 HD
BRANCH  18  20
HETATM   20  O3  UNL     1      20.158  28.200  18.123  1.00  0.00    -0.288 OA
ATOM     21  H3  UNL     1      19.987  29.017  18.574  1.00  0.00     0.244 HD
ENDBRANCH  18  20
BRANCH  17  22
HETATM   22  C16 UNL     1      23.069  26.762  16.476  1.00  0.00     0.055 C
HETATM   23  C17 UNL     1      23.974  26.674  17.680  1.00  0.00     0.012 C
HETATM   24  C18 UNL     1      25.356  26.687  17.047  1.00  0.00     0.001 C
HETATM   25  C19 UNL     1      25.216  27.755  15.993  1.00  0.00     0.001 C
HETATM   26  C20 UNL     1      23.760  27.830  15.655  1.00  0.00     0.012 C
ENDBRANCH  17  22
ENDBRANCH  14  17
ENDBRANCH  10  11
ENDBRANCH   9  10
ENDBRANCH   8   9
ENDBRANCH   7   8
ENDBRANCH   4   7
BRANCH   5  27
HETATM   27  O4  UNL     1      14.802  24.036  16.800  1.00  0.00    -0.384 OA
BRANCH  27  28
HETATM   28  C24 UNL     1      15.977  23.660  17.354  1.00  0.00     0.198 C
BRANCH  28  29
HETATM   29  C25 UNL     1      16.519  24.635  18.359  1.00  0.00     0.298 C
BRANCH  29  30
HETATM   30  N5  UNL     1      17.758  24.116  18.951  1.00  0.00     0.094 N
HETATM   31  C26 UNL     1      17.855  24.617  20.305  1.00  0.00     0.298 C
HETATM   32  C27 UNL     1      18.855  23.867  21.144  1.00  0.00     0.198 C
HETATM   33  O5  UNL     1      18.761  22.488  20.961  1.00  0.00    -0.388 OA
HETATM   34  C28 UNL     1      17.567  22.151  20.304  1.00  0.00     0.198 C
HETATM   35  C29 UNL     1      17.686  22.672  18.885  1.00  0.00     0.298 C
ENDBRANCH  29  30
ENDBRANCH  28  29
ENDBRANCH  27  28
ENDBRANCH   5  27
BRANCH   1  36
HETATM   36  N1  UNL     1      12.561  20.039  17.472  1.00  0.00    -0.356 N
HETATM   37  C5  UNL     1      12.613  18.845  18.237  1.00  0.00     0.225 C
HETATM   38  O1  UNL     1      13.701  18.186  18.315  1.00  0.00    -0.273 OA
ATOM     39  H1  UNL     1      11.687  20.561  17.416  1.00  0.00     0.162 HD
BRANCH  37  40
HETATM   40  C2  UNL     1      11.421  18.333  18.958  1.00  0.00     0.030 C
HETATM   41  C1  UNL     1      10.132  18.869  18.359  1.00  0.00     0.024 C
HETATM   42  C3  UNL     1      11.351  16.822  18.884  1.00  0.00     0.024 C
HETATM   43  C4  UNL     1      11.457  18.701  20.435  1.00  0.00     0.024 C
ENDBRANCH  37  40
ENDBRANCH   1  36
TORSDOF 14
ENDMDL