MODEL 2
REMARK VINA RESULT: -9.079465742      2.657     10.759
REMARK  14 active torsions:
REMARK  status: ('A' for Active; 'I' for Inactive)
REMARK    1  A    between atoms: C3_3  and  C4_4
REMARK    2  A    between atoms: C4_4  and  N1_5
REMARK    3  A    between atoms: C10_11  and  O1_12
REMARK    4  A    between atoms: C12_14  and  O2_15
REMARK    5  A    between atoms: O2_15  and  C13_16
REMARK    6  A    between atoms: C13_16  and  C14_17
REMARK    7  A    between atoms: C14_17  and  C15_18
REMARK    8  A    between atoms: C15_18  and  C16_19
REMARK    9  A    between atoms: C16_19  and  C17_20
REMARK   10  A    between atoms: C17_20  and  C18_21
REMARK   11  A    between atoms: C25_29  and  O3_30
REMARK   12  A    between atoms: N3_32  and  C26_33
REMARK   13  A    between atoms: C26_33  and  C27_34
REMARK   14  A    between atoms: C27_34  and  C28_35
REMARK       I    between atoms: C28_35  and  N4_37
ROOT
HETATM    1  N1  UNL     1      16.700  23.508  14.876  1.00  0.00    -0.329 N
HETATM    2  C5  UNL     1      16.219  24.379  13.959  1.00  0.00     0.013 A
HETATM    3  C6  UNL     1      15.118  23.930  13.089  1.00  0.00     0.068 C
HETATM    4  C7  UNL     1      16.740  25.655  13.834  1.00  0.00     0.037 A
HETATM    5  C8  UNL     1      17.771  26.070  14.650  1.00  0.00    -0.019 A
HETATM    6  C9  UNL     1      18.313  27.346  14.546  1.00  0.00     0.052 A
HETATM    7  C10 UNL     1      19.344  27.714  15.388  1.00  0.00     0.102 A
HETATM    8  C12 UNL     1      19.830  26.835  16.313  1.00  0.00     0.102 A
HETATM    9  C20 UNL     1      19.289  25.585  16.405  1.00  0.00     0.054 A
HETATM   10  C21 UNL     1      18.254  25.178  15.579  1.00  0.00    -0.000 A
HETATM   11  C22 UNL     1      17.704  23.916  15.668  1.00  0.00     0.023 A
HETATM   12  C23 UNL     1      18.301  23.018  16.715  1.00  0.00     0.069 C
ENDROOT
BRANCH   1  13
HETATM   13  C4  UNL     1      16.155  22.232  15.034  1.00  0.00     0.112 C
BRANCH  13  14
HETATM   14  C3  UNL     1      15.087  21.801  15.604  1.00  0.00     0.035 A
HETATM   15  C2  UNL     1      14.636  21.916  16.891  1.00  0.00     0.040 A
HETATM   16  C1  UNL     1      15.209  22.542  17.899  1.00  0.00     0.044 C
HETATM   17  N3  UNL     1      13.430  21.270  17.030  1.00  0.00    -0.326 N
HETATM   18  C25 UNL     1      13.100  20.742  15.847  1.00  0.00     0.168 A
HETATM   19  C24 UNL     1      14.090  21.049  14.955  1.00  0.00     0.111 A
HETATM   20  N2  UNL     1      14.129  20.672  13.566  1.00  0.00    -0.097 NA
BRANCH  17  21
HETATM   21  C26 UNL     1      12.634  21.153  18.245  1.00  0.00     0.140 C
BRANCH  21  22
HETATM   22  C27 UNL     1      13.328  20.195  19.186  1.00  0.00     0.123 C
BRANCH  22  23
HETATM   23  C28 UNL     1      13.244  18.794  18.680  1.00  0.00     0.221 C
HETATM   24  O4  UNL     1      14.178  18.341  17.992  1.00  0.00    -0.273 OA
HETATM   25  N4  UNL     1      12.131  17.977  18.964  1.00  0.00    -0.348 N
HETATM   26  C29 UNL     1      10.994  18.442  19.765  1.00  0.00     0.152 C
HETATM   27  C32 UNL     1      12.073  16.633  18.464  1.00  0.00     0.152 C
HETATM   28  C30 UNL     1       9.719  18.113  18.997  1.00  0.00     0.187 C
HETATM   29  O5  UNL     1       9.750  16.785  18.585  1.00  0.00    -0.388 OA
HETATM   30  C31 UNL     1      10.774  16.522  17.676  1.00  0.00     0.187 C
ENDBRANCH  22  23
ENDBRANCH  21  22
ENDBRANCH  17  21
BRANCH  18  31
HETATM   31  O3  UNL     1      11.943  19.996  15.538  1.00  0.00    -0.344 OA
ATOM     32  H3  UNL     1      11.392  19.563  16.179  1.00  0.00     0.219 HD
ENDBRANCH  18  31
ENDBRANCH  13  14
ENDBRANCH   1  13
BRANCH   8  33
HETATM   33  O2  UNL     1      20.866  27.234  17.143  1.00  0.00    -0.348 OA
BRANCH  33  34
HETATM   34  C13 UNL     1      20.837  27.260  18.535  1.00  0.00     0.176 C
BRANCH  34  35
HETATM   35  C14 UNL     1      21.943  26.331  19.022  1.00  0.00     0.027 C
BRANCH  35  36
HETATM   36  C15 UNL     1      21.192  25.105  19.597  1.00  0.00     0.002 C
BRANCH  36  37
HETATM   37  C16 UNL     1      19.867  25.531  20.128  1.00  0.00     0.000 C
BRANCH  37  38
HETATM   38  C17 UNL     1      19.169  24.501  20.929  1.00  0.00    -0.000 C
BRANCH  38  39
HETATM   39  C18 UNL     1      18.068  23.713  20.366  1.00  0.00    -0.005 C
HETATM   40  C19 UNL     1      18.231  22.239  20.401  1.00  0.00     0.005 C
ENDBRANCH  38  39
ENDBRANCH  37  38
ENDBRANCH  36  37
ENDBRANCH  35  36
ENDBRANCH  34  35
ENDBRANCH  33  34
ENDBRANCH   8  33
BRANCH   7  41
HETATM   41  O1  UNL     1      19.868  28.995  15.263  1.00  0.00    -0.353 OA
HETATM   42  C11 UNL     1      20.894  29.306  14.362  1.00  0.00     0.210 C
ENDBRANCH   7  41
TORSDOF 14
ENDMDL