MODEL 5
REMARK VINA RESULT: -8.167678001      5.902     10.623
REMARK  14 active torsions:
REMARK  status: ('A' for Active; 'I' for Inactive)
REMARK    1  A    between atoms: C2_2  and  C3_3
REMARK    2  A    between atoms: C3_3  and  C4_4
REMARK    3  A    between atoms: C4_4  and  C5_5
REMARK    4  A    between atoms: C5_5  and  O1_6
REMARK    5  A    between atoms: O1_6  and  C6_7
REMARK    6  A    between atoms: C9_10  and  C10_11
REMARK    7  A    between atoms: C13_16  and  N2_17
REMARK    8  A    between atoms: N2_17  and  C14_18
REMARK    9  A    between atoms: C14_18  and  C15_19
REMARK   10  A    between atoms: N3_22  and  C18_23
REMARK   11  A    between atoms: C18_23  and  C19_24
REMARK   12  A    between atoms: C19_24  and  O2_25
REMARK   13  A    between atoms: C19_24  and  C20_27
REMARK   14  A    between atoms: C20_27  and  N4_28
ROOT
HETATM    1  C10 UNL     1      13.888  20.696  17.853  1.00  0.00     0.118 A
HETATM    2  N1  UNL     1      13.796  19.768  18.847  1.00  0.00    -0.344 N
ATOM      3  H1  UNL     1      14.581  19.631  19.484  1.00  0.00     0.167 HD
HETATM    4  C11 UNL     1      12.687  19.035  18.995  1.00  0.00     0.026 A
HETATM    5  C12 UNL     1      11.606  19.182  18.167  1.00  0.00     0.046 A
HETATM    6  C13 UNL     1      11.675  20.121  17.148  1.00  0.00     0.190 A
HETATM    7  N6  UNL     1      12.847  20.848  17.043  1.00  0.00    -0.316 N
ATOM      8  H6  UNL     1      12.916  21.543  16.300  1.00  0.00     0.170 HD
HETATM    9  C27 UNL     1      10.434  18.316  18.434  1.00  0.00     0.213 C
HETATM   10  O3  UNL     1      10.160  18.425  19.785  1.00  0.00    -0.386 OA
HETATM   11  C28 UNL     1      11.158  18.048  20.635  1.00  0.00     0.174 C
HETATM   12  C29 UNL     1      12.538  18.001  20.073  1.00  0.00     0.084 C
ENDROOT
BRANCH   6  13
HETATM   13  N2  UNL     1      10.731  20.281  16.412  1.00  0.00    -0.403 NA
BRANCH  13  14
HETATM   14  C14 UNL     1       9.694  20.459  15.600  1.00  0.00     0.164 C
BRANCH  14  15
HETATM   15  C15 UNL     1      10.015  20.707  14.115  1.00  0.00     0.068 C
HETATM   16  C16 UNL     1       8.760  20.875  13.319  1.00  0.00     0.043 C
HETATM   17  C17 UNL     1       8.897  19.896  12.172  1.00  0.00     0.273 C
HETATM   18  N3  UNL     1       9.792  18.894  12.618  1.00  0.00     0.091 N
HETATM   19  C26 UNL     1      10.667  19.502  13.556  1.00  0.00     0.283 C
BRANCH  18  20
HETATM   20  C18 UNL     1       9.213  17.703  13.153  1.00  0.00     0.305 C
BRANCH  20  21
HETATM   21  C19 UNL     1      10.132  17.057  14.175  1.00  0.00     0.174 C
BRANCH  21  22
HETATM   22  O2  UNL     1      10.819  16.007  13.595  1.00  0.00    -0.392 OA
ATOM     23  H2  UNL     1      11.585  15.795  14.114  1.00  0.00     0.210 HD
ENDBRANCH  21  22
BRANCH  21  24
HETATM   24  C20 UNL     1       9.399  16.617  15.401  1.00  0.00     0.305 C
BRANCH  24  25
HETATM   25  N4  UNL     1       9.435  15.186  15.629  1.00  0.00     0.094 N
HETATM   26  C21 UNL     1       8.135  14.668  15.228  1.00  0.00     0.302 C
HETATM   27  C22 UNL     1       7.062  14.926  16.243  1.00  0.00     0.302 C
HETATM   28  N5  UNL     1       7.302  14.134  17.442  1.00  0.00     0.087 N
HETATM   29  C23 UNL     1       7.009  14.943  18.621  1.00  0.00     0.310 C
HETATM   30  C24 UNL     1       8.696  13.717  17.451  1.00  0.00     0.302 C
HETATM   31  C25 UNL     1       9.568  14.917  17.056  1.00  0.00     0.302 C
ENDBRANCH  24  25
ENDBRANCH  21  24
ENDBRANCH  20  21
ENDBRANCH  18  20
ENDBRANCH  14  15
ENDBRANCH  13  14
ENDBRANCH   6  13
BRANCH   1  32
HETATM   32  C9  UNL     1      15.103  21.494  17.706  1.00  0.00     0.009 A
HETATM   33  C8  UNL     1      15.694  21.567  16.458  1.00  0.00     0.018 A
HETATM   34  C7  UNL     1      16.852  22.305  16.239  1.00  0.00     0.038 A
HETATM   35  C6  UNL     1      17.463  22.997  17.256  1.00  0.00     0.074 A
HETATM   36  C31 UNL     1      16.868  22.927  18.526  1.00  0.00    -0.028 A
HETATM   37  C30 UNL     1      15.717  22.186  18.715  1.00  0.00     0.024 A
HETATM   38  C32 UNL     1      17.481  23.655  19.689  1.00  0.00     0.051 C
BRANCH  35  39
HETATM   39  O1  UNL     1      18.601  23.754  17.143  1.00  0.00    -0.351 OA
BRANCH  39  40
HETATM   40  C5  UNL     1      18.796  24.994  16.578  1.00  0.00     0.175 C
BRANCH  40  41
HETATM   41  C4  UNL     1      18.912  25.073  15.100  1.00  0.00     0.027 C
BRANCH  41  42
HETATM   42  C3  UNL     1      17.903  26.027  14.485  1.00  0.00     0.002 C
BRANCH  42  43
HETATM   43  C2  UNL     1      16.485  25.681  14.890  1.00  0.00    -0.004 C
HETATM   44  C1  UNL     1      15.888  24.823  13.782  1.00  0.00     0.005 C
ENDBRANCH  42  43
ENDBRANCH  41  42
ENDBRANCH  40  41
ENDBRANCH  39  40
ENDBRANCH  35  39
ENDBRANCH   1  32
TORSDOF 14
ENDMDL