MODEL 5
REMARK VINA RESULT: -8.421580100      2.508      7.235
REMARK  12 active torsions:
REMARK  status: ('A' for Active; 'I' for Inactive)
REMARK    1  A    between atoms: C2_2  and  C3_3
REMARK    2  A    between atoms: C3_3  and  N1_4
REMARK    3  A    between atoms: N1_4  and  C4_5
REMARK    4  A    between atoms: N1_4  and  C10_15
REMARK    5  A    between atoms: C4_5  and  C5_6
REMARK    6  A    between atoms: C10_15  and  O1_16
REMARK    7  A    between atoms: C11_18  and  N4_19
REMARK    8  A    between atoms: C16_25  and  N5_26
REMARK    9  A    between atoms: C22_33  and  C24_35
REMARK   10  A    between atoms: C24_35  and  C25_36
REMARK   11  A    between atoms: C25_36  and  C26_37
REMARK   12  A    between atoms: C26_37  and  N6_38
ROOT
HETATM    1  N4  UNL     1      15.116  24.360  16.273  1.00  0.00    -0.305 N
HETATM    2  C12 UNL     1      13.747  24.012  16.528  1.00  0.00     0.229 C
HETATM    3  O2  UNL     1      13.444  24.022  17.729  1.00  0.00    -0.273 OA
HETATM    4  C13 UNL     1      12.664  23.651  15.630  1.00  0.00     0.143 C
HETATM    5  C14 UNL     1      12.923  22.410  14.880  1.00  0.00    -0.030 A
HETATM    6  C15 UNL     1      11.964  21.442  15.025  1.00  0.00     0.038 A
HETATM    7  C16 UNL     1      12.087  20.201  14.378  1.00  0.00     0.029 A
HETATM    8  C19 UNL     1      13.185  19.959  13.590  1.00  0.00     0.030 A
HETATM    9  C20 UNL     1      14.149  20.912  13.435  1.00  0.00     0.021 A
HETATM   10  C21 UNL     1      14.017  22.151  14.086  1.00  0.00     0.009 A
HETATM   11  S1  UNL     1      15.358  23.246  13.753  1.00  0.00    -0.098 SA
HETATM   12  C22 UNL     1      15.879  24.306  15.076  1.00  0.00     0.089 C
HETATM   13  C23 UNL     1      16.082  25.679  14.428  1.00  0.00     0.052 C
ENDROOT
BRANCH   1  14
HETATM   14  C11 UNL     1      15.812  24.730  17.448  1.00  0.00     0.151 C
HETATM   15  C10 UNL     1      16.297  23.889  18.468  1.00  0.00     0.154 C
BRANCH  15  16
HETATM   16  N1  UNL     1      16.418  22.540  18.717  1.00  0.00    -0.355 N
BRANCH  16  17
HETATM   17  C3  UNL     1      16.931  21.810  19.852  1.00  0.00     0.125 C
BRANCH  17  18
HETATM   18  C2  UNL     1      18.453  21.829  19.944  1.00  0.00     0.015 C
HETATM   19  C1  UNL     1      18.774  22.545  21.250  1.00  0.00     0.006 C
ENDBRANCH  17  18
ENDBRANCH  16  17
BRANCH  16  20
HETATM   20  C4  UNL     1      15.973  21.590  17.639  1.00  0.00     0.183 C
BRANCH  20  21
HETATM   21  C5  UNL     1      14.847  20.765  18.062  1.00  0.00     0.042 A
HETATM   22  C6  UNL     1      14.722  19.518  17.456  1.00  0.00     0.114 A
HETATM   23  N2  UNL     1      13.715  18.695  17.781  1.00  0.00    -0.366 N
HETATM   24  C7  UNL     1      12.797  19.050  18.700  1.00  0.00     0.020 A
ATOM     25  H2  UNL     1      13.643  17.786  17.325  1.00  0.00     0.165 HD
HETATM   26  C8  UNL     1      11.679  18.182  19.100  1.00  0.00     0.069 C
HETATM   27  C9  UNL     1      12.908  20.296  19.315  1.00  0.00     0.112 A
HETATM   28  N3  UNL     1      13.928  21.096  18.967  1.00  0.00    -0.365 N
ATOM     29  H3  UNL     1      14.004  22.006  19.420  1.00  0.00     0.165 HD
ENDBRANCH  20  21
ENDBRANCH  16  20
ENDBRANCH  15  16
BRANCH  15  30
HETATM   30  O1  UNL     1      16.781  24.590  19.491  1.00  0.00    -0.345 OA
ATOM     31  H1  UNL     1      16.152  25.247  19.766  1.00  0.00     0.219 HD
ENDBRANCH  15  30
ENDBRANCH   1  14
BRANCH  12  32
HETATM   32  C24 UNL     1      17.316  23.872  15.418  1.00  0.00     0.045 C
BRANCH  32  33
HETATM   33  C25 UNL     1      18.310  24.984  15.022  1.00  0.00     0.033 C
BRANCH  33  34
HETATM   34  C26 UNL     1      19.452  24.828  16.039  1.00  0.00     0.272 C
BRANCH  34  35
HETATM   35  N6  UNL     1      19.262  25.636  17.201  1.00  0.00     0.091 N
HETATM   36  C27 UNL     1      20.058  25.109  18.286  1.00  0.00     0.300 C
HETATM   37  C28 UNL     1      20.055  25.994  19.495  1.00  0.00     0.262 C
HETATM   38  N7  UNL     1      20.182  27.393  19.182  1.00  0.00    -0.072 N
HETATM   39  C29 UNL     1      20.629  27.595  17.831  1.00  0.00     0.262 C
ATOM     40  H72 UNL     1      19.313  27.895  19.365  1.00  0.00     0.277 HD
ATOM     41  H71 UNL     1      20.787  27.871  19.849  1.00  0.00     0.277 HD
HETATM   42  C30 UNL     1      19.630  27.002  16.889  1.00  0.00     0.300 C
ENDBRANCH  34  35
ENDBRANCH  33  34
ENDBRANCH  32  33
ENDBRANCH  12  32
BRANCH   7  43
HETATM   43  N5  UNL     1      11.105  19.208  14.529  1.00  0.00    -0.390 N
HETATM   44  C17 UNL     1      10.818  18.376  13.353  1.00  0.00     0.149 C
HETATM   45  C18 UNL     1      10.428  19.043  15.780  1.00  0.00     0.149 C
ENDBRANCH   7  43
TORSDOF 12
ENDMDL