MODEL 3
REMARK VINA RESULT: -8.176475956      2.556      4.579
REMARK  13 active torsions:
REMARK  status: ('A' for Active; 'I' for Inactive)
REMARK    1  A    between atoms: C2_2  and  C3_3
REMARK    2  A    between atoms: C3_3  and  C4_4
REMARK       I    between atoms: C4_4  and  N1_6
REMARK    3  A    between atoms: N1_6  and  C5_8
REMARK    4  A    between atoms: C5_8  and  C6_9
REMARK    5  A    between atoms: C14_17  and  C15_18
REMARK    6  A    between atoms: C16_21  and  N3_22
REMARK    7  A    between atoms: N3_22  and  C17_24
REMARK    8  A    between atoms: C17_24  and  C18_25
REMARK    9  A    between atoms: C22_32  and  N5_33
REMARK   10  A    between atoms: N6_36  and  C25_37
REMARK   11  A    between atoms: C25_37  and  C26_38
REMARK   12  A    between atoms: C26_38  and  C27_39
REMARK   13  A    between atoms: C27_39  and  N7_40
ROOT
HETATM    1  C15 UNL     1      17.586  23.387  16.691  1.00  0.00     0.118 A
HETATM    2  N2  UNL     1      18.376  23.596  17.780  1.00  0.00    -0.179 N
ATOM      3  H2  UNL     1      19.185  24.207  17.667  1.00  0.00     0.185 HD
HETATM    4  C16 UNL     1      18.172  23.062  18.979  1.00  0.00     0.694 A
HETATM    5  N4  UNL     1      17.120  22.264  19.136  1.00  0.00    -0.022 N
ATOM      6  H4  UNL     1      16.933  21.837  20.043  1.00  0.00     0.203 HD
HETATM    7  C22 UNL     1      16.298  22.021  18.090  1.00  0.00     0.696 A
HETATM    8  N8  UNL     1      16.540  22.584  16.879  1.00  0.00    -0.179 N
ATOM      9  H8  UNL     1      15.911  22.388  16.101  1.00  0.00     0.185 HD
ENDROOT
BRANCH   1  10
HETATM   10  C14 UNL     1      17.954  24.030  15.454  1.00  0.00     0.065 C
HETATM   11  C6  UNL     1      17.500  25.419  15.136  1.00  0.00    -0.014 C
HETATM   12  C7  UNL     1      17.467  26.344  16.286  1.00  0.00     0.012 C
HETATM   13  C12 UNL     1      18.423  25.913  13.992  1.00  0.00     0.012 C
HETATM   14  C8  UNL     1      18.760  26.926  16.733  1.00  0.00     0.001 C
HETATM   15  C9  UNL     1      19.905  25.940  16.824  1.00  0.00     0.005 C
HETATM   16  C10 UNL     1      20.185  25.229  15.557  1.00  0.00    -0.014 C
HETATM   17  C11 UNL     1      19.822  26.157  14.401  1.00  0.00     0.005 C
HETATM   18  C13 UNL     1      19.467  23.954  15.292  1.00  0.00     0.017 C
BRANCH  11  19
HETATM   19  C5  UNL     1      16.146  25.434  14.451  1.00  0.00     0.133 C
BRANCH  19  20
HETATM   20  N1  UNL     1      15.876  24.222  13.689  1.00  0.00    -0.360 N
HETATM   21  C4  UNL     1      14.838  23.341  14.068  1.00  0.00     0.217 C
HETATM   22  O1  UNL     1      14.147  23.617  15.074  1.00  0.00    -0.274 OA
ATOM     23  H1  UNL     1      16.445  24.006  12.869  1.00  0.00     0.162 HD
BRANCH  21  24
HETATM   24  C3  UNL     1      14.556  22.119  13.311  1.00  0.00     0.102 C
BRANCH  24  25
HETATM   25  C2  UNL     1      13.956  21.039  14.188  1.00  0.00     0.005 C
HETATM   26  C1  UNL     1      13.221  20.026  13.339  1.00  0.00     0.005 C
ENDBRANCH  24  25
ENDBRANCH  21  24
ENDBRANCH  19  20
ENDBRANCH  11  19
ENDBRANCH   1  10
BRANCH   4  27
HETATM   27  N3  UNL     1      18.980  23.317  19.960  1.00  0.00    -0.223 N
ATOM     28  H3  UNL     1      19.655  22.609  20.246  1.00  0.00     0.177 HD
BRANCH  27  29
HETATM   29  C17 UNL     1      18.946  24.583  20.659  1.00  0.00     0.170 C
BRANCH  29  30
HETATM   30  C18 UNL     1      20.310  25.171  20.850  1.00  0.00     0.139 C
HETATM   31  C19 UNL     1      20.365  26.656  20.730  1.00  0.00     0.035 C
HETATM   32  C20 UNL     1      21.621  26.889  19.923  1.00  0.00     0.029 C
HETATM   33  C21 UNL     1      22.274  25.532  19.864  1.00  0.00     0.168 C
HETATM   34  O2  UNL     1      21.161  24.676  19.842  1.00  0.00    -0.384 OA
ENDBRANCH  29  30
ENDBRANCH  27  29
ENDBRANCH   4  27
BRANCH   7  35
HETATM   35  N5  UNL     1      15.169  21.171  18.262  1.00  0.00    -0.211 N
HETATM   36  C23 UNL     1      14.139  21.547  19.210  1.00  0.00     0.185 C
HETATM   37  C24 UNL     1      13.535  20.328  19.861  1.00  0.00     0.078 C
HETATM   38  N6  UNL     1      13.065  19.423  18.898  1.00  0.00    -0.390 N
HETATM   39  C30 UNL     1      13.448  19.705  17.576  1.00  0.00     0.142 C
HETATM   40  C31 UNL     1      14.971  19.935  17.537  1.00  0.00     0.161 C
BRANCH  38  41
HETATM   41  C25 UNL     1      12.814  18.084  19.267  1.00  0.00     0.123 C
BRANCH  41  42
HETATM   42  C26 UNL     1      11.606  17.915  20.167  1.00  0.00     0.050 C
BRANCH  42  43
HETATM   43  C27 UNL     1      10.335  17.924  19.332  1.00  0.00     0.273 C
BRANCH  43  44
HETATM   44  N7  UNL     1      10.475  17.273  18.062  1.00  0.00     0.080 N
HETATM   45  C28 UNL     1       9.747  16.004  18.168  1.00  0.00     0.309 C
HETATM   46  C29 UNL     1       9.857  17.978  16.960  1.00  0.00     0.309 C
ENDBRANCH  43  44
ENDBRANCH  42  43
ENDBRANCH  41  42
ENDBRANCH  38  41
ENDBRANCH   7  35
TORSDOF 13
ENDMDL