MODEL 2
REMARK VINA RESULT: -8.304827916      0.823      1.596
REMARK  14 active torsions:
REMARK  status: ('A' for Active; 'I' for Inactive)
REMARK    1  A    between atoms: C2_2  and  C3_3
REMARK    2  A    between atoms: C3_3  and  C4_4
REMARK    3  A    between atoms: C4_4  and  C9_11
REMARK    4  A    between atoms: C5_5  and  C6_6
REMARK    5  A    between atoms: C6_6  and  O1_7
REMARK    6  A    between atoms: O1_7  and  C7_8
REMARK    7  A    between atoms: C9_11  and  N1_12
REMARK    8  A    between atoms: C9_11  and  C16_20
REMARK    9  A    between atoms: N1_12  and  N2_13
REMARK   10  A    between atoms: C16_20  and  C24_35
REMARK   11  A    between atoms: N3_21  and  N4_23
REMARK       I    between atoms: N4_23  and  C17_25
REMARK   12  A    between atoms: C17_25  and  C18_27
REMARK   13  A    between atoms: C18_27  and  N5_28
REMARK       I    between atoms: C24_35  and  N7_37
REMARK   14  A    between atoms: N7_37  and  C25_39
ROOT
HETATM    1  C16 UNL     1      18.052  24.960  18.672  1.00  0.00     0.159 C
HETATM    2  N3  UNL     1      17.876  24.088  19.577  1.00  0.00    -0.290 N
ATOM      3  H3  UNL     1      18.675  23.892  20.180  1.00  0.00     0.187 HD
ENDROOT
BRANCH   1   4
HETATM    4  C9  UNL     1      19.355  25.655  18.534  1.00  0.00     0.170 C
BRANCH   4   5
HETATM    5  C4  UNL     1      20.272  25.738  19.701  1.00  0.00    -0.014 C
HETATM    6  C5  UNL     1      20.133  26.408  20.787  1.00  0.00     0.010 C
BRANCH   5   7
HETATM    7  C3  UNL     1      21.483  24.806  19.675  1.00  0.00     0.041 C
BRANCH   7   8
HETATM    8  C2  UNL     1      22.681  25.473  19.112  1.00  0.00     0.000 C
HETATM    9  C1  UNL     1      23.933  24.823  19.688  1.00  0.00     0.005 C
ENDBRANCH   7   8
ENDBRANCH   5   7
BRANCH   6  10
HETATM   10  C6  UNL     1      21.000  26.383  22.006  1.00  0.00     0.207 C
BRANCH  10  11
HETATM   11  O1  UNL     1      22.009  27.399  21.852  1.00  0.00    -0.318 OA
BRANCH  11  12
HETATM   12  C7  UNL     1      23.308  27.249  22.303  1.00  0.00     0.255 C
HETATM   13  C8  UNL     1      23.623  26.390  23.477  1.00  0.00     0.126 C
HETATM   14  O2  UNL     1      24.231  27.842  21.716  1.00  0.00    -0.266 OA
ENDBRANCH  11  12
ENDBRANCH  10  11
ENDBRANCH   6  10
ENDBRANCH   4   5
BRANCH   4  15
HETATM   15  N1  UNL     1      19.753  26.070  17.461  1.00  0.00    -0.325 NA
BRANCH  15  16
HETATM   16  N2  UNL     1      20.180  26.525  16.328  1.00  0.00    -0.263 N
HETATM   17  C10 UNL     1      19.784  25.918  15.040  1.00  0.00     0.156 C
HETATM   18  C11 UNL     1      19.052  26.851  14.142  1.00  0.00     0.022 C
HETATM   19  C12 UNL     1      19.488  28.275  14.162  1.00  0.00     0.002 C
HETATM   20  C13 UNL     1      20.952  28.501  13.943  1.00  0.00     0.002 C
HETATM   21  C14 UNL     1      21.808  27.855  14.999  1.00  0.00     0.022 C
HETATM   22  C15 UNL     1      21.121  27.685  16.302  1.00  0.00     0.156 C
ENDBRANCH  15  16
ENDBRANCH   4  15
ENDBRANCH   1   4
BRANCH   1  23
HETATM   23  C24 UNL     1      17.112  25.068  17.570  1.00  0.00     0.273 C
HETATM   24  O4  UNL     1      16.242  26.001  17.660  1.00  0.00    -0.266 OA
HETATM   25  N7  UNL     1      17.001  24.323  16.393  1.00  0.00    -0.351 N
ATOM     26  H7  UNL     1      17.656  23.565  16.203  1.00  0.00     0.163 HD
BRANCH  25  27
HETATM   27  C25 UNL     1      15.938  24.634  15.433  1.00  0.00     0.084 C
HETATM   28  C26 UNL     1      16.437  24.517  13.997  1.00  0.00     0.025 C
HETATM   29  C27 UNL     1      15.300  23.983  13.144  1.00  0.00     0.002 C
HETATM   30  C28 UNL     1      15.124  22.510  13.460  1.00  0.00     0.000 C
HETATM   31  C29 UNL     1      14.949  22.393  14.967  1.00  0.00     0.002 C
HETATM   32  C30 UNL     1      14.745  23.775  15.608  1.00  0.00     0.025 C
ENDBRANCH  25  27
ENDBRANCH   1  23
BRANCH   2  33
HETATM   33  N4  UNL     1      16.706  23.366  19.838  1.00  0.00    -0.265 N
HETATM   34  C17 UNL     1      16.550  22.096  19.213  1.00  0.00     0.275 C
HETATM   35  O3  UNL     1      17.529  21.749  18.460  1.00  0.00    -0.265 OA
ATOM     36  H4  UNL     1      15.986  23.739  20.457  1.00  0.00     0.190 HD
BRANCH  34  37
HETATM   37  C18 UNL     1      15.416  21.248  19.394  1.00  0.00     0.171 C
BRANCH  37  38
HETATM   38  N5  UNL     1      14.603  20.968  18.232  1.00  0.00    -0.335 N
HETATM   39  C19 UNL     1      14.865  19.718  17.636  1.00  0.00     0.113 C
HETATM   40  C20 UNL     1      13.884  18.672  18.005  1.00  0.00     0.107 C
HETATM   41  N6  UNL     1      12.640  19.124  18.433  1.00  0.00    -0.368 N
HETATM   42  C21 UNL     1      12.223  18.502  19.655  1.00  0.00     0.154 C
HETATM   43  C22 UNL     1      12.203  20.429  18.225  1.00  0.00     0.107 C
HETATM   44  C23 UNL     1      13.293  21.476  18.217  1.00  0.00     0.113 C
ENDBRANCH  37  38
ENDBRANCH  34  37
ENDBRANCH   2  33
TORSDOF 14
ENDMDL