MODEL 5
REMARK VINA RESULT: -8.965291011      0.864      1.237
REMARK  13 active torsions:
REMARK  status: ('A' for Active; 'I' for Inactive)
REMARK    1  A    between atoms: C2_2  and  C3_3
REMARK    2  A    between atoms: C3_3  and  C4_4
REMARK    3  A    between atoms: C3_3  and  N1_6
REMARK    4  A    between atoms: N1_6  and  C6_7
REMARK    5  A    between atoms: N3_19  and  C16_20
REMARK    6  A    between atoms: C16_20  and  C17_21
REMARK       I    between atoms: C17_21  and  N4_23
REMARK    7  A    between atoms: N4_23  and  C18_24
REMARK    8  A    between atoms: N4_23  and  C21_30
REMARK    9  A    between atoms: C18_24  and  C19_25
REMARK   10  A    between atoms: C19_25  and  N5_26
REMARK   11  A    between atoms: C21_30  and  C22_31
REMARK       I    between atoms: C22_31  and  N6_33
REMARK   12  A    between atoms: N6_33  and  C24_35
REMARK   13  A    between atoms: C24_35  and  C25_36
ROOT
HETATM    1  C17 UNL     1      16.572  21.738  16.366  1.00  0.00     0.240 C
HETATM    2  O1  UNL     1      17.262  20.678  16.410  1.00  0.00    -0.271 OA
HETATM    3  N4  UNL     1      15.188  21.674  16.654  1.00  0.00    -0.340 N
ENDROOT
BRANCH   3   4
HETATM    4  C18 UNL     1      14.375  22.869  16.608  1.00  0.00     0.154 C
BRANCH   4   5
HETATM    5  C19 UNL     1      14.574  23.532  15.261  1.00  0.00     0.251 C
BRANCH   5   6
HETATM    6  N5  UNL     1      13.957  22.764  14.196  1.00  0.00    -0.077 N
HETATM    7  C20 UNL     1      14.888  22.659  13.067  1.00  0.00     0.267 C
ATOM      8  H52 UNL     1      13.634  21.851  14.517  1.00  0.00     0.276 HD
ATOM      9  H51 UNL     1      13.054  23.148  13.917  1.00  0.00     0.276 HD
ENDBRANCH   5   6
ENDBRANCH   4   5
ENDBRANCH   3   4
BRANCH   3  10
HETATM   10  C21 UNL     1      14.600  20.397  17.005  1.00  0.00     0.228 C
BRANCH  10  11
HETATM   11  C22 UNL     1      13.115  20.418  16.811  1.00  0.00     0.237 C
HETATM   12  O2  UNL     1      12.683  20.681  15.665  1.00  0.00    -0.272 OA
HETATM   13  N6  UNL     1      12.273  20.145  17.897  1.00  0.00    -0.349 N
HETATM   14  C23 UNL     1      12.813  19.887  19.215  1.00  0.00     0.153 C
BRANCH  13  15
HETATM   15  C24 UNL     1      10.821  20.071  17.743  1.00  0.00     0.182 C
BRANCH  15  16
HETATM   16  C25 UNL     1      10.442  18.667  17.395  1.00  0.00     0.029 A
HETATM   17  C26 UNL     1       9.949  17.776  18.321  1.00  0.00     0.059 A
HETATM   18  C27 UNL     1       9.579  16.475  18.000  1.00  0.00     0.071 A
HETATM   19  N7  UNL     1       9.083  15.412  18.652  1.00  0.00    -0.338 N
HETATM   20  C30 UNL     1       9.720  16.072  16.688  1.00  0.00     0.119 A
HETATM   21  C28 UNL     1       8.924  14.385  17.767  1.00  0.00     0.121 A
ATOM     22  H7  UNL     1       8.862  15.377  19.647  1.00  0.00     0.168 HD
HETATM   23  C29 UNL     1       8.412  13.021  18.012  1.00  0.00     0.098 C
HETATM   24  O3  UNL     1       9.322  14.827  16.591  1.00  0.00    -0.294 OA
HETATM   25  C31 UNL     1      10.217  16.978  15.775  1.00  0.00     0.127 A
HETATM   26  N8  UNL     1      10.564  18.227  16.121  1.00  0.00    -0.365 N
ATOM     27  H8  UNL     1      10.928  18.859  15.408  1.00  0.00     0.165 HD
ENDBRANCH  15  16
ENDBRANCH  13  15
ENDBRANCH  10  11
ENDBRANCH   3  10
BRANCH   1  28
HETATM   28  C16 UNL     1      17.267  23.000  16.010  1.00  0.00     0.254 C
BRANCH  28  29
HETATM   29  N3  UNL     1      18.004  23.445  17.177  1.00  0.00    -0.256 N
HETATM   30  C6  UNL     1      18.812  24.498  17.153  1.00  0.00     0.201 A
HETATM   31  C7  UNL     1      19.497  24.855  18.358  1.00  0.00     0.035 A
HETATM   32  C8  UNL     1      20.328  25.940  18.348  1.00  0.00     0.018 A
HETATM   33  C13 UNL     1      19.324  24.134  19.502  1.00  0.00     0.003 A
HETATM   34  C9  UNL     1      20.982  26.276  19.524  1.00  0.00     0.008 A
HETATM   35  C10 UNL     1      20.817  25.556  20.688  1.00  0.00    -0.061 A
HETATM   36  C11 UNL     1      21.547  25.960  21.941  1.00  0.00     0.048 C
HETATM   37  C12 UNL     1      19.979  24.464  20.696  1.00  0.00     0.021 A
HETATM   38  C14 UNL     1      18.467  23.047  19.457  1.00  0.00     0.033 A
HETATM   39  C15 UNL     1      18.295  22.272  20.712  1.00  0.00     0.070 C
HETATM   40  N2  UNL     1      17.856  22.762  18.302  1.00  0.00    -0.299 N
ATOM     41  H2  UNL     1      17.228  21.958  18.286  1.00  0.00     0.187 HD
BRANCH  30  42
HETATM   42  N1  UNL     1      19.006  25.172  16.162  1.00  0.00    -0.423 NA
BRANCH  42  43
HETATM   43  C3  UNL     1      19.358  25.517  14.914  1.00  0.00     0.164 C
BRANCH  43  44
HETATM   44  C2  UNL     1      18.482  26.566  14.222  1.00  0.00     0.035 C
HETATM   45  C1  UNL     1      17.056  26.109  14.075  1.00  0.00     0.008 C
ENDBRANCH  43  44
BRANCH  43  46
HETATM   46  C4  UNL     1      20.827  25.967  14.817  1.00  0.00     0.035 C
HETATM   47  C5  UNL     1      20.943  27.433  14.549  1.00  0.00     0.008 C
ENDBRANCH  43  46
ENDBRANCH  42  43
ENDBRANCH  30  42
ENDBRANCH  28  29
ENDBRANCH   1  28
TORSDOF 13
ENDMDL