MODEL 2
REMARK VINA RESULT: -9.697916808      2.528     10.841
REMARK  12 active torsions:
REMARK  status: ('A' for Active; 'I' for Inactive)
REMARK    1  A    between atoms: C2_2  and  C3_3
REMARK    2  A    between atoms: C3_3  and  C4_4
REMARK    3  A    between atoms: C4_4  and  N1_5
REMARK       I    between atoms: N1_5  and  C5_7
REMARK       I    between atoms: C5_7  and  N2_9
REMARK       I    between atoms: N3_12  and  C8_13
REMARK    4  A    between atoms: C8_13  and  C9_15
REMARK    5  A    between atoms: C9_15  and  C10_17
REMARK    6  A    between atoms: C10_17  and  C11_18
REMARK    7  A    between atoms: C10_17  and  N4_25
REMARK    8  A    between atoms: C11_18  and  C12_19
REMARK       I    between atoms: N4_25  and  C18_27
REMARK    9  A    between atoms: C18_27  and  C19_29
REMARK   10  A    between atoms: C19_29  and  C20_30
REMARK   11  A    between atoms: C19_29  and  N5_37
REMARK   12  A    between atoms: C20_30  and  C21_31
ROOT
HETATM    1  C10 UNL     1      13.402  22.790  15.472  1.00  0.00     0.165 C
ENDROOT
BRANCH   1   2
HETATM    2  C9  UNL     1      14.617  22.728  14.568  1.00  0.00     0.239 C
HETATM    3  O3  UNL     1      15.050  21.556  14.359  1.00  0.00    -0.285 OA
BRANCH   2   4
HETATM    4  C8  UNL     1      15.249  23.845  13.987  1.00  0.00     0.291 C
HETATM    5  N3  UNL     1      16.103  24.764  14.648  1.00  0.00    -0.342 N
HETATM    6  C7  UNL     1      16.447  24.772  16.021  1.00  0.00     0.146 C
HETATM    7  C28 UNL     1      16.740  25.831  13.844  1.00  0.00     0.146 C
HETATM    8  C6  UNL     1      17.956  24.475  16.119  1.00  0.00     0.147 C
HETATM    9  N2  UNL     1      18.580  25.645  15.490  1.00  0.00    -0.331 N
HETATM   10  C5  UNL     1      19.582  26.345  16.213  1.00  0.00     0.318 C
HETATM   11  C29 UNL     1      18.170  26.057  14.185  1.00  0.00     0.147 C
HETATM   12  N1  UNL     1      20.286  27.482  15.725  1.00  0.00    -0.343 N
HETATM   13  O1  UNL     1      19.872  25.925  17.384  1.00  0.00    -0.247 OA
ATOM     14  H1  UNL     1      20.088  27.848  14.794  1.00  0.00     0.164 HD
HETATM   15  O2  UNL     1      15.058  24.089  12.733  1.00  0.00    -0.264 OA
BRANCH  12  16
HETATM   16  C4  UNL     1      21.285  28.115  16.556  1.00  0.00     0.124 C
BRANCH  16  17
HETATM   17  C3  UNL     1      22.587  28.198  15.823  1.00  0.00     0.019 C
BRANCH  17  18
HETATM   18  C2  UNL     1      22.561  29.363  14.877  1.00  0.00    -0.003 C
HETATM   19  C1  UNL     1      23.886  30.110  15.012  1.00  0.00     0.005 C
ENDBRANCH  17  18
ENDBRANCH  16  17
ENDBRANCH  12  16
ENDBRANCH   2   4
ENDBRANCH   1   2
BRANCH   1  20
HETATM   20  C11 UNL     1      12.127  22.616  14.826  1.00  0.00     0.038 C
BRANCH  20  21
HETATM   21  C12 UNL     1      11.455  21.305  14.679  1.00  0.00    -0.012 C
HETATM   22  C13 UNL     1      11.979  20.377  13.677  1.00  0.00     0.005 C
HETATM   23  C14 UNL     1      11.388  18.982  13.902  1.00  0.00     0.000 C
HETATM   24  C15 UNL     1      10.045  19.099  14.520  1.00  0.00     0.000 C
HETATM   25  C16 UNL     1       9.268  20.275  13.996  1.00  0.00     0.000 C
HETATM   26  C17 UNL     1       9.969  21.548  14.335  1.00  0.00     0.005 C
ENDBRANCH  20  21
ENDBRANCH   1  20
BRANCH   1  27
HETATM   27  N4  UNL     1      13.733  21.923  16.569  1.00  0.00    -0.347 N
HETATM   28  C18 UNL     1      13.884  22.448  17.890  1.00  0.00     0.243 C
HETATM   29  O4  UNL     1      13.705  23.677  18.074  1.00  0.00    -0.271 OA
ATOM     30  H4  UNL     1      13.861  20.924  16.404  1.00  0.00     0.163 HD
BRANCH  28  31
HETATM   31  C19 UNL     1      14.256  21.547  19.042  1.00  0.00     0.202 C
BRANCH  31  32
HETATM   32  C20 UNL     1      13.865  20.187  18.646  1.00  0.00     0.041 C
BRANCH  32  33
HETATM   33  C21 UNL     1      12.525  19.658  18.915  1.00  0.00    -0.012 C
HETATM   34  C22 UNL     1      11.722  19.137  17.757  1.00  0.00     0.005 C
HETATM   35  C23 UNL     1      10.291  18.892  18.252  1.00  0.00     0.000 C
HETATM   36  C24 UNL     1      10.241  17.971  19.424  1.00  0.00     0.000 C
HETATM   37  C25 UNL     1      11.628  17.497  19.748  1.00  0.00     0.000 C
HETATM   38  C26 UNL     1      12.468  18.707  20.099  1.00  0.00     0.005 C
ENDBRANCH  32  33
ENDBRANCH  31  32
BRANCH  31  39
HETATM   39  N5  UNL     1      15.652  21.777  19.302  1.00  0.00    -0.257 N
HETATM   40  C27 UNL     1      16.693  21.607  18.471  1.00  0.00     0.220 A
HETATM   41  N6  UNL     1      17.816  21.927  19.127  1.00  0.00    -0.279 N
HETATM   42  N7  UNL     1      17.443  22.287  20.341  1.00  0.00    -0.227 N
ATOM     43  H6  UNL     1      18.768  21.900  18.761  1.00  0.00     0.189 HD
HETATM   44  N8  UNL     1      16.141  22.196  20.446  1.00  0.00    -0.224 N
ATOM     45  H7  UNL     1      18.074  22.590  21.083  1.00  0.00     0.210 HD
ATOM     46  H8  UNL     1      15.596  22.414  21.280  1.00  0.00     0.210 HD
ENDBRANCH  31  39
ENDBRANCH  28  31
ENDBRANCH   1  27
TORSDOF 12
ENDMDL