MODEL 2
REMARK VINA RESULT: -9.528387144      1.701      2.296
REMARK  13 active torsions:
REMARK  status: ('A' for Active; 'I' for Inactive)
REMARK    1  A    between atoms: C2_2  and  O1_3
REMARK    2  A    between atoms: O1_3  and  C3_4
REMARK    3  A    between atoms: C10_13  and  O2_14
REMARK    4  A    between atoms: O2_14  and  C11_15
REMARK    5  A    between atoms: C11_15  and  C12_16
REMARK    6  A    between atoms: C12_16  and  C13_17
REMARK    7  A    between atoms: C13_17  and  C14_18
REMARK    8  A    between atoms: C14_18  and  O3_19
REMARK    9  A    between atoms: O3_19  and  C15_20
REMARK   10  A    between atoms: N2_22  and  O4_23
REMARK   11  A    between atoms: C23_31  and  N3_32
REMARK   12  A    between atoms: N3_32  and  C24_34
REMARK   13  A    between atoms: C24_34  and  C25_35
ROOT
HETATM    1  C3  UNL     1      17.324  25.591  15.911  1.00  0.00     0.083 A
HETATM    2  C4  UNL     1      17.148  26.155  14.676  1.00  0.00     0.039 A
HETATM    3  C5  UNL     1      18.100  26.959  14.101  1.00  0.00     0.021 A
HETATM    4  C6  UNL     1      19.279  27.221  14.762  1.00  0.00     0.049 A
HETATM    5  C7  UNL     1      19.511  26.671  16.025  1.00  0.00     0.065 A
HETATM    6  C8  UNL     1      18.525  25.862  16.588  1.00  0.00     0.058 A
HETATM    7  C9  UNL     1      18.657  25.214  17.864  1.00  0.00     0.122 A
HETATM    8  N1  UNL     1      18.232  23.896  17.875  1.00  0.00    -0.322 N
ATOM      9  H1  UNL     1      17.804  23.522  17.028  1.00  0.00     0.169 HD
HETATM   10  C10 UNL     1      18.348  23.091  18.921  1.00  0.00     0.147 A
HETATM   11  C22 UNL     1      18.924  23.580  20.077  1.00  0.00     0.104 A
HETATM   12  C23 UNL     1      19.352  24.892  20.085  1.00  0.00     0.107 A
HETATM   13  N4  UNL     1      19.201  25.660  18.980  1.00  0.00    -0.328 N
ATOM     14  H4  UNL     1      19.523  26.628  19.012  1.00  0.00     0.169 HD
HETATM   15  C26 UNL     1      20.842  27.077  16.444  1.00  0.00     0.262 A
HETATM   16  O7  UNL     1      21.456  26.801  17.501  1.00  0.00    -0.267 OA
HETATM   17  N5  UNL     1      21.431  27.899  15.417  1.00  0.00    -0.284 N
HETATM   18  C27 UNL     1      22.768  28.505  15.474  1.00  0.00     0.163 C
HETATM   19  C28 UNL     1      20.475  27.985  14.394  1.00  0.00     0.261 A
HETATM   20  O8  UNL     1      20.605  28.625  13.299  1.00  0.00    -0.267 OA
ENDROOT
BRANCH  10  21
HETATM   21  O2  UNL     1      17.928  21.772  18.947  1.00  0.00    -0.336 OA
BRANCH  21  22
HETATM   22  C11 UNL     1      16.603  21.505  18.504  1.00  0.00     0.177 C
BRANCH  22  23
HETATM   23  C12 UNL     1      15.582  21.897  19.550  1.00  0.00     0.029 C
BRANCH  23  24
HETATM   24  C13 UNL     1      14.236  21.952  18.859  1.00  0.00     0.029 C
BRANCH  24  25
HETATM   25  C14 UNL     1      13.688  20.568  18.564  1.00  0.00     0.176 C
BRANCH  25  26
HETATM   26  O3  UNL     1      12.440  20.669  17.945  1.00  0.00    -0.349 OA
BRANCH  26  27
HETATM   27  C15 UNL     1      12.230  20.352  16.623  1.00  0.00     0.092 A
HETATM   28  C16 UNL     1      13.191  20.500  15.645  1.00  0.00     0.160 A
HETATM   29  N2  UNL     1      12.975  20.186  14.357  1.00  0.00    -0.238 N
HETATM   30  C17 UNL     1      11.770  19.700  13.961  1.00  0.00     0.036 A
HETATM   31  C18 UNL     1      11.552  19.360  12.538  1.00  0.00     0.071 C
HETATM   32  C19 UNL     1      10.784  19.538  14.909  1.00  0.00     0.036 A
HETATM   33  C20 UNL     1      10.987  19.854  16.233  1.00  0.00    -0.025 A
HETATM   34  C21 UNL     1       9.931  19.679  17.252  1.00  0.00     0.051 C
BRANCH  29  35
HETATM   35  O4  UNL     1      13.942  20.337  13.383  1.00  0.00    -0.283 OA
ATOM     36  H4  UNL     1      14.224  19.619  12.827  1.00  0.00     0.245 HD
ENDBRANCH  29  35
ENDBRANCH  26  27
ENDBRANCH  25  26
ENDBRANCH  24  25
ENDBRANCH  23  24
ENDBRANCH  22  23
ENDBRANCH  21  22
ENDBRANCH  10  21
BRANCH  12  37
HETATM   37  N3  UNL     1      19.891  25.363  21.156  1.00  0.00    -0.366 N
ATOM     38  H3  UNL     1      19.321  25.528  21.986  1.00  0.00     0.161 HD
BRANCH  37  39
HETATM   39  C24 UNL     1      21.303  25.657  21.180  1.00  0.00     0.234 C
BRANCH  39  40
HETATM   40  C25 UNL     1      21.516  27.128  21.338  1.00  0.00     0.191 C
HETATM   41  O5  UNL     1      22.470  27.561  22.019  1.00  0.00    -0.647 OA
HETATM   42  O6  UNL     1      20.663  28.065  20.731  1.00  0.00    -0.647 OA
ENDBRANCH  39  40
ENDBRANCH  37  39
ENDBRANCH  12  37
BRANCH   1  43
HETATM   43  O1  UNL     1      16.351  24.775  16.488  1.00  0.00    -0.350 OA
BRANCH  43  44
HETATM   44  C2  UNL     1      15.479  24.110  15.606  1.00  0.00     0.171 C
HETATM   45  C1  UNL     1      15.982  22.784  15.118  1.00  0.00     0.034 C
ENDBRANCH  43  44
ENDBRANCH   1  43
TORSDOF 13
ENDMDL