MODEL 2
REMARK VINA RESULT: -9.157624364      1.528      2.561
REMARK  15 active torsions:
REMARK  status: ('A' for Active; 'I' for Inactive)
REMARK    1  A    between atoms: C4_4  and  C5_5
REMARK    2  A    between atoms: C5_5  and  C6_6
REMARK    3  A    between atoms: C6_6  and  C7_7
REMARK    4  A    between atoms: C9_9  and  C10_10
REMARK    5  A    between atoms: C10_10  and  C11_11
REMARK    6  A    between atoms: C11_11  and  C12_12
REMARK    7  A    between atoms: C14_14  and  C15_15
REMARK    8  A    between atoms: C15_15  and  C16_16
REMARK    9  A    between atoms: C16_16  and  C17_17
REMARK   10  A    between atoms: C19_19  and  C20_20
REMARK   11  A    between atoms: C20_20  and  N1_21
REMARK   12  A    between atoms: C22_25  and  C23_26
REMARK   13  A    between atoms: C23_26  and  O1_27
REMARK   14  A    between atoms: C23_26  and  C24_29
REMARK   15  A    between atoms: C24_29  and  N3_30
ROOT
HETATM    1  C17 UNL     1      13.510  15.275  13.270  1.00  0.00    -0.086 C
HETATM    2  C18 UNL     1      12.867  13.932  13.500  1.00  0.00     0.043 C
HETATM    3  C19 UNL     1      14.480  15.600  14.078  1.00  0.00    -0.003 C
ENDROOT
BRANCH   1   4
HETATM    4  C16 UNL     1      13.015  16.139  12.217  1.00  0.00     0.037 C
BRANCH   4   5
HETATM    5  C15 UNL     1      13.435  15.830  10.806  1.00  0.00     0.031 C
BRANCH   5   6
HETATM    6  C14 UNL     1      14.845  15.983  10.485  1.00  0.00    -0.024 C
HETATM    7  C12 UNL     1      15.454  17.055  10.139  1.00  0.00    -0.087 C
HETATM    8  C13 UNL     1      16.948  16.962   9.850  1.00  0.00     0.043 C
BRANCH   7   9
HETATM    9  C11 UNL     1      14.835  18.409   9.987  1.00  0.00     0.037 C
BRANCH   9  10
HETATM   10  C10 UNL     1      15.672  19.355  10.770  1.00  0.00     0.031 C
BRANCH  10  11
HETATM   11  C9  UNL     1      15.920  20.692  10.320  1.00  0.00    -0.024 C
HETATM   12  C7  UNL     1      16.698  21.225   9.422  1.00  0.00    -0.087 C
HETATM   13  C8  UNL     1      17.650  20.466   8.595  1.00  0.00     0.043 C
BRANCH  12  14
HETATM   14  C6  UNL     1      16.645  22.716   9.266  1.00  0.00     0.037 C
BRANCH  14  15
HETATM   15  C5  UNL     1      17.123  23.258   7.977  1.00  0.00     0.031 C
BRANCH  15  16
HETATM   16  C4  UNL     1      18.184  24.264   8.087  1.00  0.00    -0.024 C
HETATM   17  C2  UNL     1      18.790  24.806   7.027  1.00  0.00    -0.091 C
HETATM   18  C1  UNL     1      19.855  25.816   7.149  1.00  0.00     0.042 C
HETATM   19  C3  UNL     1      18.360  24.363   5.681  1.00  0.00     0.042 C
ENDBRANCH  15  16
ENDBRANCH  14  15
ENDBRANCH  12  14
ENDBRANCH  10  11
ENDBRANCH   9  10
ENDBRANCH   7   9
ENDBRANCH   5   6
ENDBRANCH   4   5
ENDBRANCH   1   4
BRANCH   3  20
HETATM   20  C20 UNL     1      15.215  16.862  14.060  1.00  0.00     0.177 C
BRANCH  20  21
HETATM   21  N1  UNL     1      16.642  16.635  14.339  1.00  0.00    -0.283 N
HETATM   22  C21 UNL     1      17.572  16.465  13.392  1.00  0.00     0.202 A
HETATM   23  N2  UNL     1      18.755  16.288  14.020  1.00  0.00    -0.338 N
HETATM   24  C22 UNL     1      18.544  16.350  15.325  1.00  0.00     0.128 A
ATOM     25  H2  UNL     1      19.656  16.133  13.567  1.00  0.00     0.168 HD
HETATM   26  N4  UNL     1      17.238  16.565  15.514  1.00  0.00    -0.283 N
ATOM     27  H4  UNL     1      16.777  16.659  16.420  1.00  0.00     0.188 HD
BRANCH  24  28
HETATM   28  C23 UNL     1      19.565  16.206  16.381  1.00  0.00     0.215 C
BRANCH  28  29
HETATM   29  O1  UNL     1      20.239  15.003  16.314  1.00  0.00    -0.386 OA
ATOM     30  H1  UNL     1      20.987  15.031  15.729  1.00  0.00     0.210 HD
ENDBRANCH  28  29
BRANCH  28  31
HETATM   31  C24 UNL     1      20.455  17.418  16.397  1.00  0.00     0.311 C
BRANCH  31  32
HETATM   32  N3  UNL     1      19.839  18.528  17.095  1.00  0.00     0.091 N
HETATM   33  C25 UNL     1      19.678  18.243  18.511  1.00  0.00     0.272 C
HETATM   34  C26 UNL     1      19.638  19.594  19.193  1.00  0.00     0.032 C
HETATM   35  C27 UNL     1      20.386  20.523  18.292  1.00  0.00     0.032 C
HETATM   36  C28 UNL     1      20.633  19.742  17.032  1.00  0.00     0.272 C
ENDBRANCH  31  32
ENDBRANCH  28  31
ENDBRANCH  24  28
ENDBRANCH  20  21
ENDBRANCH   3  20
TORSDOF 15
ENDMDL