MODEL 2
REMARK VINA RESULT: -8.661188753      1.604      2.324
REMARK  15 active torsions:
REMARK  status: ('A' for Active; 'I' for Inactive)
REMARK    1  A    between atoms: C2_2  and  O2_4
REMARK    2  A    between atoms: O2_4  and  C3_5
REMARK    3  A    between atoms: C3_5  and  C4_6
REMARK    4  A    between atoms: C4_6  and  C5_7
REMARK    5  A    between atoms: C7_12  and  C8_13
REMARK    6  A    between atoms: C8_13  and  C9_14
REMARK    7  A    between atoms: C9_14  and  C10_15
REMARK    8  A    between atoms: C12_17  and  C13_18
REMARK    9  A    between atoms: C13_18  and  C14_19
REMARK   10  A    between atoms: C14_19  and  C15_20
REMARK   11  A    between atoms: C17_22  and  C18_23
REMARK   12  A    between atoms: C18_23  and  C19_24
REMARK   13  A    between atoms: C19_24  and  C20_25
REMARK   14  A    between atoms: C20_25  and  C21_26
REMARK   15  A    between atoms: C21_26  and  C22_27
ROOT
HETATM    1  C9  UNL     1      14.403  15.646  14.384  1.00  0.00     0.038 C
ENDROOT
BRANCH   1   2
HETATM    2  C8  UNL     1      15.574  14.756  14.486  1.00  0.00     0.068 C
BRANCH   2   3
HETATM    3  C7  UNL     1      16.730  15.447  15.224  1.00  0.00     0.296 C
HETATM    4  O5  UNL     1      17.262  16.474  14.482  1.00  0.00    -0.355 OA
HETATM    5  C6  UNL     1      18.189  17.149  15.222  1.00  0.00     0.226 C
HETATM    6  C4  UNL     1      19.003  16.289  16.152  1.00  0.00     0.226 C
HETATM    7  O7  UNL     1      18.529  15.057  16.377  1.00  0.00    -0.211 OA
HETATM    8  O6  UNL     1      17.760  14.539  15.465  1.00  0.00    -0.207 OA
BRANCH   6   9
HETATM    9  C3  UNL     1      19.259  17.044  17.425  1.00  0.00     0.234 C
BRANCH   9  10
HETATM   10  O2  UNL     1      19.017  18.396  17.403  1.00  0.00    -0.318 OA
BRANCH  10  11
HETATM   11  C2  UNL     1      19.851  19.443  17.651  1.00  0.00     0.254 C
HETATM   12  C1  UNL     1      20.092  19.828  19.088  1.00  0.00     0.126 C
HETATM   13  O1  UNL     1      20.407  20.078  16.729  1.00  0.00    -0.266 OA
ENDBRANCH  10  11
ENDBRANCH   9  10
ENDBRANCH   6   9
BRANCH   6  14
HETATM   14  C5  UNL     1      20.358  16.158  15.492  1.00  0.00     0.217 C
HETATM   15  O3  UNL     1      21.038  15.135  15.676  1.00  0.00    -0.645 OA
HETATM   16  O4  UNL     1      20.814  17.194  14.689  1.00  0.00    -0.645 OA
ENDBRANCH   6  14
ENDBRANCH   2   3
ENDBRANCH   1   2
BRANCH   1  17
HETATM   17  C10 UNL     1      13.863  15.669  12.955  1.00  0.00    -0.087 C
HETATM   18  C11 UNL     1      12.515  15.053  12.835  1.00  0.00     0.043 C
HETATM   19  C12 UNL     1      14.598  16.214  12.046  1.00  0.00    -0.024 C
BRANCH  19  20
HETATM   20  C13 UNL     1      14.379  16.393  10.621  1.00  0.00     0.031 C
BRANCH  20  21
HETATM   21  C14 UNL     1      15.385  17.195   9.887  1.00  0.00     0.037 C
BRANCH  21  22
HETATM   22  C15 UNL     1      14.911  18.644  10.017  1.00  0.00    -0.087 C
HETATM   23  C16 UNL     1      13.478  18.911   9.857  1.00  0.00     0.043 C
HETATM   24  C17 UNL     1      15.797  19.581  10.266  1.00  0.00    -0.024 C
BRANCH  24  25
HETATM   25  C18 UNL     1      15.394  21.006  10.404  1.00  0.00     0.027 C
BRANCH  25  26
HETATM   26  C19 UNL     1      15.921  21.850   9.261  1.00  0.00     0.004 C
BRANCH  26  27
HETATM   27  C20 UNL     1      17.413  21.762   9.134  1.00  0.00     0.004 C
BRANCH  27  28
HETATM   28  C21 UNL     1      17.795  22.317   7.778  1.00  0.00     0.027 C
BRANCH  28  29
HETATM   29  C22 UNL     1      18.589  23.558   7.953  1.00  0.00    -0.025 C
HETATM   30  C23 UNL     1      18.822  24.420   6.989  1.00  0.00    -0.091 C
HETATM   31  C24 UNL     1      18.271  24.177   5.609  1.00  0.00     0.042 C
HETATM   32  C25 UNL     1      19.626  25.650   7.221  1.00  0.00     0.042 C
ENDBRANCH  28  29
ENDBRANCH  27  28
ENDBRANCH  26  27
ENDBRANCH  25  26
ENDBRANCH  24  25
ENDBRANCH  21  22
ENDBRANCH  20  21
ENDBRANCH  19  20
ENDBRANCH   1  17
TORSDOF 15
ENDMDL