MODEL 5
REMARK VINA RESULT: -7.815397055      4.512      8.497
REMARK  17 active torsions:
REMARK  status: ('A' for Active; 'I' for Inactive)
REMARK    1  A    between atoms: O1_2  and  C2_3
REMARK    2  A    between atoms: C2_3  and  C3_5
REMARK    3  A    between atoms: C4_7  and  C5_8
REMARK    4  A    between atoms: C6_9  and  O4_10
REMARK    5  A    between atoms: C6_9  and  C7_12
REMARK    6  A    between atoms: C7_12  and  O6_14
REMARK    7  A    between atoms: O6_14  and  C8_15
REMARK    8  A    between atoms: C8_15  and  C9_16
REMARK    9  A    between atoms: C10_17  and  C12_19
REMARK   10  A    between atoms: C12_19  and  C13_20
REMARK   11  A    between atoms: C13_20  and  C14_21
REMARK   12  A    between atoms: C15_22  and  C17_24
REMARK   13  A    between atoms: C17_24  and  C18_25
REMARK   14  A    between atoms: C18_25  and  C19_26
REMARK   15  A    between atoms: C20_27  and  C22_29
REMARK   16  A    between atoms: C22_29  and  C23_30
REMARK   17  A    between atoms: C23_30  and  C24_31
ROOT
HETATM    1  C9  UNL     1      12.742  14.923  12.248  1.00  0.00     0.002 C
HETATM    2  C10 UNL     1      12.809  14.790  13.554  1.00  0.00    -0.085 C
HETATM    3  C11 UNL     1      12.384  13.479  14.187  1.00  0.00     0.043 C
ENDROOT
BRANCH   2   4
HETATM    4  C12 UNL     1      13.341  15.841  14.415  1.00  0.00     0.037 C
BRANCH   4   5
HETATM    5  C13 UNL     1      14.575  15.478  15.143  1.00  0.00     0.031 C
BRANCH   5   6
HETATM    6  C14 UNL     1      15.692  16.421  15.134  1.00  0.00    -0.024 C
HETATM    7  C15 UNL     1      16.955  15.947  15.086  1.00  0.00    -0.087 C
HETATM    8  C16 UNL     1      17.130  14.493  15.049  1.00  0.00     0.043 C
BRANCH   7   9
HETATM    9  C17 UNL     1      18.038  16.939  15.093  1.00  0.00     0.037 C
BRANCH   9  10
HETATM   10  C18 UNL     1      19.085  16.788  16.125  1.00  0.00     0.031 C
BRANCH  10  11
HETATM   11  C19 UNL     1      20.454  16.907  15.531  1.00  0.00    -0.024 C
HETATM   12  C20 UNL     1      21.269  17.881  15.833  1.00  0.00    -0.087 C
HETATM   13  C21 UNL     1      20.832  18.945  16.814  1.00  0.00     0.043 C
BRANCH  12  14
HETATM   14  C22 UNL     1      22.623  18.004  15.308  1.00  0.00     0.037 C
BRANCH  14  15
HETATM   15  C23 UNL     1      22.751  18.309  13.865  1.00  0.00     0.031 C
BRANCH  15  16
HETATM   16  C24 UNL     1      23.803  19.280  13.498  1.00  0.00    -0.024 C
HETATM   17  C25 UNL     1      23.966  19.552  12.198  1.00  0.00    -0.091 C
HETATM   18  C26 UNL     1      23.121  18.902  11.174  1.00  0.00     0.042 C
HETATM   19  C27 UNL     1      25.008  20.519  11.775  1.00  0.00     0.042 C
ENDBRANCH  15  16
ENDBRANCH  14  15
ENDBRANCH  12  14
ENDBRANCH  10  11
ENDBRANCH   9  10
ENDBRANCH   7   9
ENDBRANCH   5   6
ENDBRANCH   4   5
ENDBRANCH   2   4
BRANCH   1  20
HETATM   20  C8  UNL     1      13.098  16.091  11.449  1.00  0.00     0.207 C
BRANCH  20  21
HETATM   21  O6  UNL     1      11.846  16.671  11.018  1.00  0.00    -0.312 OA
BRANCH  21  22
HETATM   22  C7  UNL     1      11.765  17.403   9.835  1.00  0.00     0.316 C
HETATM   23  O5  UNL     1      11.798  16.756   8.765  1.00  0.00    -0.257 OA
BRANCH  22  24
HETATM   24  C6  UNL     1      11.647  18.855   9.840  1.00  0.00     0.140 C
HETATM   25  C5  UNL     1      12.684  19.652   9.726  1.00  0.00     0.050 C
BRANCH  25  26
HETATM   26  C4  UNL     1      14.039  19.089   9.585  1.00  0.00     0.187 A
HETATM   27  C3  UNL     1      15.039  19.543  10.656  1.00  0.00     0.254 A
HETATM   28  O3  UNL     1      15.128  19.885   9.329  1.00  0.00    -0.361 OA
BRANCH  27  29
HETATM   29  C2  UNL     1      15.893  18.468  11.226  1.00  0.00     0.290 C
HETATM   30  O2  UNL     1      15.803  18.190  12.457  1.00  0.00    -0.262 OA
BRANCH  29  31
HETATM   31  O1  UNL     1      16.785  17.753  10.477  1.00  0.00    -0.324 OA
HETATM   32  C1  UNL     1      16.588  16.411  10.074  1.00  0.00     0.213 C
ENDBRANCH  29  31
ENDBRANCH  27  29
ENDBRANCH  25  26
BRANCH  24  33
HETATM   33  O4  UNL     1      10.390  19.441   9.972  1.00  0.00    -0.355 OA
ATOM     34  H4  UNL     1       9.746  18.991  10.505  1.00  0.00     0.218 HD
ENDBRANCH  24  33
ENDBRANCH  22  24
ENDBRANCH  21  22
ENDBRANCH  20  21
ENDBRANCH   1  20
TORSDOF 17
ENDMDL