MODEL 3
REMARK VINA RESULT: -8.966033055      2.921      8.896
REMARK  13 active torsions:
REMARK  status: ('A' for Active; 'I' for Inactive)
REMARK    1  A    between atoms: C2_2  and  C4_4
REMARK    2  A    between atoms: C5_5  and  C6_6
REMARK    3  A    between atoms: C5_5  and  N2_17
REMARK    4  A    between atoms: C6_6  and  C7_7
REMARK    5  A    between atoms: C7_7  and  C8_8
REMARK    6  A    between atoms: C8_8  and  O1_9
REMARK    7  A    between atoms: O1_9  and  C9_10
REMARK       I    between atoms: C9_10  and  N1_12
REMARK    8  A    between atoms: N1_12  and  C10_14
REMARK    9  A    between atoms: C15_20  and  C16_21
REMARK   10  A    between atoms: N3_22  and  O3_24
REMARK   11  A    between atoms: O3_24  and  C17_25
REMARK   12  A    between atoms: C17_25  and  C18_26
REMARK   13  A    between atoms: C18_26  and  C19_27
ROOT
HETATM    1  N2  UNL     1      14.933  16.369  11.207  1.00  0.00    -0.287 NA
HETATM    2  C13 UNL     1      13.894  16.754  10.350  1.00  0.00     0.096 C
HETATM    3  C14 UNL     1      13.511  18.153  10.172  1.00  0.00     0.024 C
HETATM    4  C15 UNL     1      14.625  19.152  10.396  1.00  0.00     0.028 C
HETATM    5  C25 UNL     1      15.950  18.557  10.543  1.00  0.00     0.024 C
HETATM    6  C26 UNL     1      16.047  17.274  11.267  1.00  0.00     0.096 C
ENDROOT
BRANCH   1   7
HETATM    7  C5  UNL     1      14.521  15.957  12.568  1.00  0.00    -0.016 C
HETATM    8  C4  UNL     1      13.197  15.507  12.788  1.00  0.00    -0.004 C
BRANCH   8   9
HETATM    9  C2  UNL     1      12.854  14.284  13.557  1.00  0.00     0.001 C
HETATM   10  C1  UNL     1      12.370  14.752  14.972  1.00  0.00     0.013 C
HETATM   11  C3  UNL     1      11.523  13.679  12.992  1.00  0.00     0.013 C
ENDBRANCH   8   9
BRANCH   7  12
HETATM   12  C6  UNL     1      15.496  16.477  13.519  1.00  0.00     0.053 C
BRANCH  12  13
HETATM   13  C7  UNL     1      16.077  15.561  14.539  1.00  0.00     0.032 C
BRANCH  13  14
HETATM   14  C8  UNL     1      17.541  15.754  14.785  1.00  0.00     0.181 C
BRANCH  14  15
HETATM   15  O1  UNL     1      17.701  16.908  15.537  1.00  0.00    -0.304 OA
BRANCH  15  16
HETATM   16  C9  UNL     1      18.848  17.306  16.152  1.00  0.00     0.360 C
HETATM   17  O2  UNL     1      19.926  16.680  16.030  1.00  0.00    -0.239 OA
HETATM   18  N1  UNL     1      18.810  18.474  16.996  1.00  0.00    -0.333 N
ATOM     19  H1  UNL     1      17.929  18.977  17.101  1.00  0.00     0.165 HD
BRANCH  18  20
HETATM   20  C10 UNL     1      19.970  18.954  17.695  1.00  0.00     0.078 C
HETATM   21  C11 UNL     1      19.384  19.517  19.030  1.00  0.00     0.032 C
HETATM   22  C12 UNL     1      20.695  20.057  16.990  1.00  0.00     0.032 C
ENDBRANCH  18  20
ENDBRANCH  15  16
ENDBRANCH  14  15
ENDBRANCH  13  14
ENDBRANCH  12  13
ENDBRANCH   7  12
ENDBRANCH   1   7
BRANCH   4  23
HETATM   23  C16 UNL     1      14.541  20.215   9.373  1.00  0.00     0.091 C
HETATM   24  N3  UNL     1      15.349  21.068   9.004  1.00  0.00    -0.281 N
ATOM     25  H3  UNL     1      14.902  21.627   8.278  1.00  0.00     0.193 HD
BRANCH  24  26
HETATM   26  O3  UNL     1      16.571  21.540   9.183  1.00  0.00    -0.281 OA
BRANCH  26  27
HETATM   27  C17 UNL     1      17.600  21.386   8.162  1.00  0.00     0.201 C
BRANCH  27  28
HETATM   28  C18 UNL     1      18.514  22.550   8.469  1.00  0.00     0.033 C
BRANCH  28  29
HETATM   29  C19 UNL     1      18.162  23.857   7.900  1.00  0.00    -0.013 C
HETATM   30  C20 UNL     1      19.117  24.948   8.132  1.00  0.00     0.005 C
HETATM   31  C21 UNL     1      19.513  25.764   6.926  1.00  0.00     0.000 C
HETATM   32  C22 UNL     1      18.615  25.661   5.740  1.00  0.00     0.000 C
HETATM   33  C23 UNL     1      18.490  24.160   5.435  1.00  0.00     0.000 C
HETATM   34  C24 UNL     1      17.644  23.622   6.531  1.00  0.00     0.005 C
ENDBRANCH  28  29
ENDBRANCH  27  28
ENDBRANCH  26  27
ENDBRANCH  24  26
ENDBRANCH   4  23
TORSDOF 13
ENDMDL