MODEL 4
REMARK VINA RESULT: -8.456887694      0.965      3.682
REMARK  15 active torsions:
REMARK  status: ('A' for Active; 'I' for Inactive)
REMARK    1  A    between atoms: C2_2  and  C3_3
REMARK    2  A    between atoms: C3_3  and  C4_4
REMARK    3  A    between atoms: C4_4  and  C5_5
REMARK    4  A    between atoms: C6_6  and  C7_7
REMARK    5  A    between atoms: C7_7  and  C8_8
REMARK    6  A    between atoms: C14_17  and  C16_19
REMARK    7  A    between atoms: C16_19  and  O4_20
REMARK    8  A    between atoms: C16_19  and  C17_22
REMARK    9  A    between atoms: C17_22  and  C18_23
REMARK   10  A    between atoms: C18_23  and  C19_24
REMARK   11  A    between atoms: C19_24  and  C20_25
REMARK   12  A    between atoms: C19_24  and  O5_31
REMARK   13  A    between atoms: C20_25  and  C21_26
REMARK   14  A    between atoms: C21_26  and  C22_27
REMARK   15  A    between atoms: O5_31  and  C26_32
ROOT
HETATM    1  C8  UNL     1      14.922  15.483  12.639  1.00  0.00     0.157 C
HETATM    2  O1  UNL     1      15.361  15.272  13.889  1.00  0.00    -0.340 OA
HETATM    3  C9  UNL     1      16.064  16.203  14.572  1.00  0.00     0.235 C
HETATM    4  C10 UNL     1      15.963  17.621  14.123  1.00  0.00     0.079 C
HETATM    5  C11 UNL     1      15.986  17.767  12.618  1.00  0.00     0.041 C
HETATM    6  C12 UNL     1      15.743  16.489  11.937  1.00  0.00    -0.060 C
HETATM    7  C13 UNL     1      16.259  16.285  10.739  1.00  0.00     0.017 C
HETATM    8  O2  UNL     1      15.808  16.024  15.961  1.00  0.00    -0.196 OA
HETATM    9  O3  UNL     1      16.493  14.901  15.836  1.00  0.00    -0.218 OA
HETATM   10  C14 UNL     1      17.368  15.664  15.017  1.00  0.00     0.177 C
HETATM   11  C15 UNL     1      18.045  14.840  13.953  1.00  0.00     0.058 C
ENDROOT
BRANCH  10  12
HETATM   12  C16 UNL     1      18.268  16.451  15.904  1.00  0.00     0.161 C
BRANCH  12  13
HETATM   13  O4  UNL     1      17.970  17.789  15.979  1.00  0.00    -0.392 OA
ATOM     14  H4  UNL     1      18.438  18.333  15.356  1.00  0.00     0.210 HD
ENDBRANCH  12  13
BRANCH  12  15
HETATM   15  C17 UNL     1      19.735  16.154  15.649  1.00  0.00     0.037 C
BRANCH  15  16
HETATM   16  C18 UNL     1      20.425  17.327  14.999  1.00  0.00     0.034 C
BRANCH  16  17
HETATM   17  C19 UNL     1      21.330  18.028  15.970  1.00  0.00     0.121 C
BRANCH  17  18
HETATM   18  C20 UNL     1      20.936  19.447  16.189  1.00  0.00     0.036 C
BRANCH  18  19
HETATM   19  C21 UNL     1      20.826  19.833  17.644  1.00  0.00     0.030 C
BRANCH  19  20
HETATM   20  C22 UNL     1      19.971  18.923  18.415  1.00  0.00    -0.025 C
HETATM   21  C23 UNL     1      19.883  19.046  19.723  1.00  0.00    -0.091 C
HETATM   22  C24 UNL     1      20.637  20.097  20.447  1.00  0.00     0.042 C
HETATM   23  C25 UNL     1      19.020  18.124  20.493  1.00  0.00     0.042 C
ENDBRANCH  19  20
ENDBRANCH  18  19
ENDBRANCH  17  18
BRANCH  17  24
HETATM   24  O5  UNL     1      22.619  17.995  15.452  1.00  0.00    -0.386 OA
BRANCH  24  25
HETATM   25  C26 UNL     1      22.705  17.875  14.093  1.00  0.00     0.163 C
HETATM   26  C27 UNL     1      23.472  18.993  13.453  1.00  0.00     0.033 C
ENDBRANCH  24  25
ENDBRANCH  17  24
ENDBRANCH  16  17
ENDBRANCH  15  16
ENDBRANCH  12  15
ENDBRANCH  10  12
BRANCH   1  27
HETATM   27  C7  UNL     1      13.440  15.771  12.523  1.00  0.00     0.063 C
BRANCH  27  28
HETATM   28  C6  UNL     1      12.738  14.899  13.530  1.00  0.00    -0.028 C
HETATM   29  C5  UNL     1      12.296  13.697  13.215  1.00  0.00    -0.030 C
BRANCH  29  30
HETATM   30  C4  UNL     1      11.610  12.864  14.226  1.00  0.00     0.030 C
BRANCH  30  31
HETATM   31  C3  UNL     1      11.793  13.436  15.618  1.00  0.00     0.030 C
BRANCH  31  32
HETATM   32  C2  UNL     1      10.676  12.948  16.464  1.00  0.00    -0.037 C
HETATM   33  C1  UNL     1       9.417  13.287  16.237  1.00  0.00     0.007 C
ENDBRANCH  31  32
ENDBRANCH  30  31
ENDBRANCH  29  30
ENDBRANCH  27  28
ENDBRANCH   1  27
TORSDOF 15
ENDMDL