MODEL 2
REMARK VINA RESULT: -7.953753598      0.747      2.421
REMARK  15 active torsions:
REMARK  status: ('A' for Active; 'I' for Inactive)
REMARK    1  A    between atoms: O1_2  and  C2_3
REMARK    2  A    between atoms: C4_5  and  C5_6
REMARK    3  A    between atoms: C5_6  and  C17_18
REMARK    4  A    between atoms: C6_7  and  C7_8
REMARK    5  A    between atoms: C7_8  and  C8_9
REMARK    6  A    between atoms: C8_9  and  C9_10
REMARK    7  A    between atoms: C9_10  and  C11_12
REMARK    8  A    between atoms: C11_12  and  C12_13
REMARK    9  A    between atoms: C12_13  and  C13_14
REMARK   10  A    between atoms: C13_14  and  C14_15
REMARK   11  A    between atoms: C17_18  and  O2_19
REMARK   12  A    between atoms: C17_18  and  C18_21
REMARK   13  A    between atoms: C22_25  and  O3_26
REMARK   14  A    between atoms: C25_29  and  O4_30
REMARK   15  A    between atoms: C27_32  and  O5_33
ROOT
HETATM    1  C5  UNL     1      15.721  19.869   9.543  1.00  0.00    -0.022 C
HETATM    2  C6  UNL     1      16.978  19.714   9.164  1.00  0.00    -0.016 C
ENDROOT
BRANCH   1   3
HETATM    3  C4  UNL     1      15.100  18.745  10.271  1.00  0.00    -0.022 A
HETATM    4  C3  UNL     1      15.704  18.119  11.331  1.00  0.00     0.052 A
HETATM    5  C2  UNL     1      15.144  17.029  11.994  1.00  0.00     0.105 A
HETATM    6  C27 UNL     1      13.927  16.530  11.590  1.00  0.00     0.135 A
HETATM    7  C25 UNL     1      13.303  17.142  10.529  1.00  0.00     0.105 A
HETATM    8  C24 UNL     1      13.884  18.235   9.879  1.00  0.00     0.052 A
BRANCH   5   9
HETATM    9  O1  UNL     1      15.787  16.422  13.063  1.00  0.00    -0.353 OA
HETATM   10  C1  UNL     1      16.011  17.185  14.250  1.00  0.00     0.210 C
ENDBRANCH   5   9
BRANCH   6  11
HETATM   11  O5  UNL     1      13.338  15.464  12.208  1.00  0.00    -0.351 OA
HETATM   12  C28 UNL     1      12.709  15.461  13.452  1.00  0.00     0.210 C
ENDBRANCH   6  11
BRANCH   7  13
HETATM   13  O4  UNL     1      12.078  16.644  10.120  1.00  0.00    -0.353 OA
HETATM   14  C26 UNL     1      11.402  17.242   9.061  1.00  0.00     0.210 C
ENDBRANCH   7  13
ENDBRANCH   1   3
BRANCH   1  15
HETATM   15  C17 UNL     1      15.093  21.159   9.274  1.00  0.00     0.158 C
BRANCH  15  16
HETATM   16  O2  UNL     1      14.339  21.131   8.069  1.00  0.00    -0.390 OA
ATOM     17  H2  UNL     1      14.357  21.971   7.627  1.00  0.00     0.210 HD
ENDBRANCH  15  16
BRANCH  15  18
HETATM   18  C18 UNL     1      14.305  21.779  10.371  1.00  0.00     0.048 C
HETATM   19  C19 UNL     1      12.832  21.652  10.397  1.00  0.00     0.010 C
HETATM   20  C20 UNL     1      12.388  22.697  11.445  1.00  0.00     0.003 C
HETATM   21  C21 UNL     1      13.406  23.788  11.367  1.00  0.00     0.032 C
HETATM   22  C22 UNL     1      14.530  23.287  10.505  1.00  0.00     0.127 C
BRANCH  22  23
HETATM   23  O3  UNL     1      14.534  23.925   9.279  1.00  0.00    -0.390 OA
HETATM   24  C23 UNL     1      14.764  25.272   9.478  1.00  0.00     0.202 C
ENDBRANCH  22  23
ENDBRANCH  15  18
ENDBRANCH   1  15
BRANCH   2  25
HETATM   25  C7  UNL     1      17.868  20.610   8.448  1.00  0.00     0.028 C
BRANCH  25  26
HETATM   26  C8  UNL     1      18.000  21.971   9.075  1.00  0.00     0.008 C
BRANCH  26  27
HETATM   27  C9  UNL     1      18.410  22.972   8.022  1.00  0.00    -0.018 C
HETATM   28  C10 UNL     1      17.566  22.977   6.802  1.00  0.00     0.010 C
BRANCH  27  29
HETATM   29  C11 UNL     1      18.342  24.375   8.644  1.00  0.00     0.004 C
BRANCH  29  30
HETATM   30  C12 UNL     1      19.210  25.327   7.857  1.00  0.00     0.001 C
BRANCH  30  31
HETATM   31  C13 UNL     1      18.382  26.080   6.820  1.00  0.00     0.004 C
BRANCH  31  32
HETATM   32  C14 UNL     1      19.276  26.846   5.873  1.00  0.00    -0.023 C
HETATM   33  C15 UNL     1      20.690  26.366   5.899  1.00  0.00     0.009 C
HETATM   34  C16 UNL     1      18.780  26.800   4.458  1.00  0.00     0.009 C
ENDBRANCH  31  32
ENDBRANCH  30  31
ENDBRANCH  29  30
ENDBRANCH  27  29
ENDBRANCH  26  27
ENDBRANCH  25  26
ENDBRANCH   2  25
TORSDOF 15
ENDMDL