MODEL 1
REMARK VINA RESULT: -8.546013064      0.000      0.000
REMARK  16 active torsions:
REMARK  status: ('A' for Active; 'I' for Inactive)
REMARK    1  A    between atoms: C2_2  and  C3_3
REMARK    2  A    between atoms: C3_3  and  C4_4
REMARK    3  A    between atoms: C6_6  and  C7_7
REMARK    4  A    between atoms: C9_9  and  C10_10
REMARK    5  A    between atoms: C10_10  and  C11_11
REMARK    6  A    between atoms: C11_11  and  C12_12
REMARK    7  A    between atoms: C13_13  and  C15_15
REMARK    8  A    between atoms: C15_15  and  C16_16
REMARK    9  A    between atoms: C16_16  and  C17_17
REMARK   10  A    between atoms: C21_21  and  O1_22
REMARK   11  A    between atoms: O1_22  and  C22_23
REMARK   12  A    between atoms: C22_23  and  C23_25
REMARK   13  A    between atoms: C23_25  and  C24_26
REMARK   14  A    between atoms: C24_26  and  C25_27
REMARK   15  A    between atoms: C25_27  and  O3_28
REMARK   16  A    between atoms: C25_27  and  O4_30
ROOT
HETATM    1  C4  UNL     1      12.091  13.985  15.152  1.00  0.00    -0.077 A
HETATM    2  C5  UNL     1      12.964  14.837  15.657  1.00  0.00    -0.012 A
HETATM    3  C6  UNL     1      13.370  15.864  14.661  1.00  0.00     0.067 A
HETATM    4  C21 UNL     1      12.577  15.538  13.460  1.00  0.00     0.151 A
HETATM    5  C27 UNL     1      11.787  14.321  13.745  1.00  0.00     0.041 A
HETATM    6  C28 UNL     1      12.160  13.139  12.871  1.00  0.00     0.017 C
ENDROOT
BRANCH   3   7
HETATM    7  C7  UNL     1      14.830  15.880  14.452  1.00  0.00    -0.077 C
HETATM    8  C8  UNL     1      15.487  17.163  14.118  1.00  0.00     0.044 C
HETATM    9  C9  UNL     1      15.549  14.787  14.550  1.00  0.00    -0.023 C
BRANCH   9  10
HETATM   10  C10 UNL     1      17.000  14.656  14.369  1.00  0.00     0.031 C
BRANCH  10  11
HETATM   11  C11 UNL     1      17.695  14.755  15.731  1.00  0.00     0.031 C
BRANCH  11  12
HETATM   12  C12 UNL     1      18.619  15.942  15.737  1.00  0.00    -0.024 C
HETATM   13  C13 UNL     1      19.176  16.367  16.861  1.00  0.00    -0.087 C
HETATM   14  C14 UNL     1      18.925  15.702  18.173  1.00  0.00     0.043 C
BRANCH  13  15
HETATM   15  C15 UNL     1      20.079  17.535  16.837  1.00  0.00     0.037 C
BRANCH  15  16
HETATM   16  C16 UNL     1      19.372  18.796  17.280  1.00  0.00     0.031 C
BRANCH  16  17
HETATM   17  C17 UNL     1      20.338  19.541  18.161  1.00  0.00    -0.024 C
HETATM   18  C18 UNL     1      20.216  19.448  19.469  1.00  0.00    -0.091 C
HETATM   19  C19 UNL     1      21.157  20.172  20.373  1.00  0.00     0.042 C
HETATM   20  C20 UNL     1      19.143  18.621  20.089  1.00  0.00     0.042 C
ENDBRANCH  16  17
ENDBRANCH  15  16
ENDBRANCH  13  15
ENDBRANCH  11  12
ENDBRANCH  10  11
ENDBRANCH   9  10
ENDBRANCH   3   7
BRANCH   4  21
HETATM   21  O1  UNL     1      13.359  15.432  12.278  1.00  0.00    -0.314 OA
BRANCH  21  22
HETATM   22  C22 UNL     1      13.076  16.252  11.221  1.00  0.00     0.259 C
HETATM   23  O2  UNL     1      11.880  16.566  10.994  1.00  0.00    -0.265 OA
BRANCH  22  24
HETATM   24  C23 UNL     1      14.098  16.812  10.298  1.00  0.00     0.116 C
BRANCH  24  25
HETATM   25  C24 UNL     1      14.521  18.193  10.685  1.00  0.00     0.070 C
BRANCH  25  26
HETATM   26  C25 UNL     1      14.049  19.155   9.612  1.00  0.00     0.256 C
BRANCH  26  27
HETATM   27  O3  UNL     1      12.634  19.153   9.645  1.00  0.00    -0.371 OA
ATOM     28  H3  UNL     1      12.352  18.270   9.438  1.00  0.00     0.212 HD
ENDBRANCH  26  27
BRANCH  26  29
HETATM   29  O4  UNL     1      14.429  20.451   9.915  1.00  0.00    -0.366 OA
HETATM   30  C26 UNL     1      15.546  20.505  10.736  1.00  0.00     0.204 C
ENDBRANCH  26  29
ENDBRANCH  25  26
ENDBRANCH  24  25
ENDBRANCH  22  24
ENDBRANCH  21  22
ENDBRANCH   4  21
BRANCH   1  31
HETATM   31  C3  UNL     1      11.449  12.811  15.853  1.00  0.00     0.034 C
BRANCH  31  32
HETATM   32  C2  UNL     1      10.325  13.326  16.750  1.00  0.00    -0.000 C
HETATM   33  C1  UNL     1       9.031  13.408  15.988  1.00  0.00     0.005 C
ENDBRANCH  31  32
ENDBRANCH   1  31
TORSDOF 16
ENDMDL