MODEL 2
REMARK VINA RESULT: -8.846383967      3.411      9.700
REMARK  15 active torsions:
REMARK  status: ('A' for Active; 'I' for Inactive)
REMARK    1  A    between atoms: C2_2  and  C3_3
REMARK    2  A    between atoms: C3_3  and  O1_4
REMARK    3  A    between atoms: C3_3  and  C4_6
REMARK    4  A    between atoms: C3_3  and  O3_27
REMARK    5  A    between atoms: C4_6  and  C5_7
REMARK    6  A    between atoms: C5_7  and  C6_8
REMARK    7  A    between atoms: C12_15  and  C13_16
REMARK    8  A    between atoms: C13_16  and  C14_17
REMARK    9  A    between atoms: C14_17  and  C15_18
REMARK   10  A    between atoms: C15_18  and  C18_21
REMARK   11  A    between atoms: C18_21  and  C19_22
REMARK   12  A    between atoms: C19_22  and  C20_23
REMARK   13  A    between atoms: C20_23  and  C21_24
REMARK   14  A    between atoms: O3_27  and  C24_28
REMARK   15  A    between atoms: C24_28  and  C25_29
ROOT
HETATM    1  C6  UNL     1      14.678  18.353   9.861  1.00  0.00     0.015 C
HETATM    2  C7  UNL     1      14.022  17.265  10.681  1.00  0.00     0.014 C
HETATM    3  C8  UNL     1      15.158  16.355  11.150  1.00  0.00     0.015 C
HETATM    4  C9  UNL     1      16.134  16.192   9.997  1.00  0.00     0.010 C
HETATM    5  C10 UNL     1      16.937  17.499   9.959  1.00  0.00     0.033 C
HETATM    6  C11 UNL     1      16.044  18.546  10.585  1.00  0.00     0.126 C
HETATM    7  O2  UNL     1      15.896  18.392  11.960  1.00  0.00    -0.380 OA
HETATM    8  C12 UNL     1      15.935  17.033  12.259  1.00  0.00     0.126 C
ENDROOT
BRANCH   1   9
HETATM    9  C5  UNL     1      13.933  19.612   9.804  1.00  0.00     0.013 C
BRANCH   9  10
HETATM   10  C4  UNL     1      14.671  20.876   9.987  1.00  0.00     0.074 C
BRANCH  10  11
HETATM   11  C3  UNL     1      14.621  21.935   8.963  1.00  0.00     0.185 C
BRANCH  11  12
HETATM   12  C2  UNL     1      15.720  21.963   7.977  1.00  0.00     0.031 C
HETATM   13  C1  UNL     1      16.899  21.381   8.190  1.00  0.00     0.012 C
ENDBRANCH  11  12
BRANCH  11  14
HETATM   14  O1  UNL     1      14.864  23.181   9.723  1.00  0.00    -0.362 OA
ATOM     15  H1  UNL     1      14.259  23.086  10.450  1.00  0.00     0.213 HD
ENDBRANCH  11  14
BRANCH  11  16
HETATM   16  O3  UNL     1      13.403  22.181   8.432  1.00  0.00    -0.320 OA
BRANCH  16  17
HETATM   17  C24 UNL     1      12.617  23.208   8.711  1.00  0.00     0.169 C
BRANCH  17  18
HETATM   18  C25 UNL     1      11.473  23.089   9.612  1.00  0.00     0.072 A
HETATM   19  C26 UNL     1      11.518  22.619  10.919  1.00  0.00     0.120 A
HETATM   20  N1  UNL     1      10.289  22.627  11.437  1.00  0.00    -0.360 N
HETATM   21  C27 UNL     1       9.473  23.092  10.477  1.00  0.00     0.182 A
ATOM     22  H1  UNL     1      10.022  22.336  12.377  1.00  0.00     0.166 HD
HETATM   23  N2  UNL     1      10.181  23.371   9.377  1.00  0.00    -0.345 N
HETATM   24  C28 UNL     1       9.602  23.888   8.127  1.00  0.00     0.157 C
ENDBRANCH  17  18
ENDBRANCH  16  17
ENDBRANCH  11  16
ENDBRANCH  10  11
ENDBRANCH   9  10
ENDBRANCH   1   9
BRANCH   8  25
HETATM   25  C13 UNL     1      15.372  16.720  13.618  1.00  0.00     0.033 C
BRANCH  25  26
HETATM   26  C14 UNL     1      14.910  15.263  13.635  1.00  0.00     0.011 C
BRANCH  26  27
HETATM   27  C15 UNL     1      13.562  15.113  14.258  1.00  0.00    -0.048 C
HETATM   28  C16 UNL     1      12.441  15.353  13.264  1.00  0.00     0.015 C
HETATM   29  C17 UNL     1      13.407  16.062  15.404  1.00  0.00     0.015 C
BRANCH  27  30
HETATM   30  C18 UNL     1      13.404  13.683  14.721  1.00  0.00     0.008 C
BRANCH  30  31
HETATM   31  C19 UNL     1      12.050  13.109  14.459  1.00  0.00     0.001 C
BRANCH  31  32
HETATM   32  C20 UNL     1      11.217  12.984  15.708  1.00  0.00     0.004 C
BRANCH  32  33
HETATM   33  C21 UNL     1       9.868  13.656  15.592  1.00  0.00    -0.023 C
HETATM   34  C22 UNL     1       9.194  13.139  14.340  1.00  0.00     0.009 C
HETATM   35  C23 UNL     1       8.981  13.369  16.763  1.00  0.00     0.009 C
ENDBRANCH  32  33
ENDBRANCH  31  32
ENDBRANCH  30  31
ENDBRANCH  27  30
ENDBRANCH  26  27
ENDBRANCH  25  26
ENDBRANCH   8  25
TORSDOF 15
ENDMDL