MODEL 2
REMARK VINA RESULT: -8.629965092      1.699      2.950
REMARK  16 active torsions:
REMARK  status: ('A' for Active; 'I' for Inactive)
REMARK    1  A    between atoms: C2_2  and  C3_3
REMARK    2  A    between atoms: C3_3  and  C4_4
REMARK    3  A    between atoms: C4_4  and  C5_5
REMARK    4  A    between atoms: C6_6  and  C7_7
REMARK    5  A    between atoms: C7_7  and  C8_8
REMARK    6  A    between atoms: C9_9  and  C10_10
REMARK    7  A    between atoms: C10_10  and  C11_11
REMARK    8  A    between atoms: C12_12  and  C13_13
REMARK    9  A    between atoms: C13_13  and  C14_14
REMARK   10  A    between atoms: C15_15  and  C16_16
REMARK   11  A    between atoms: C16_16  and  C17_17
REMARK   12  A    between atoms: C18_18  and  C19_19
REMARK   13  A    between atoms: C20_20  and  C21_21
REMARK   14  A    between atoms: C24_25  and  O2_26
REMARK   15  A    between atoms: C26_30  and  O4_31
REMARK   16  A    between atoms: O4_31  and  C27_32
ROOT
HETATM    1  C17 UNL     1      15.768  17.952  11.908  1.00  0.00    -0.023 C
HETATM    2  C18 UNL     1      15.989  18.934  11.095  1.00  0.00    -0.004 C
ENDROOT
BRANCH   1   3
HETATM    3  C16 UNL     1      14.789  16.891  11.613  1.00  0.00     0.054 C
BRANCH   3   4
HETATM    4  C15 UNL     1      14.803  15.879  12.715  1.00  0.00    -0.027 C
HETATM    5  C14 UNL     1      15.785  15.914  13.593  1.00  0.00    -0.027 C
BRANCH   5   6
HETATM    6  C13 UNL     1      15.827  14.919  14.703  1.00  0.00     0.053 C
BRANCH   6   7
HETATM    7  C12 UNL     1      17.134  15.061  15.422  1.00  0.00    -0.027 C
HETATM    8  C11 UNL     1      18.260  14.765  14.823  1.00  0.00    -0.027 C
BRANCH   8   9
HETATM    9  C10 UNL     1      19.545  14.924  15.583  1.00  0.00     0.053 C
BRANCH   9  10
HETATM   10  C9  UNL     1      19.612  16.285  16.124  1.00  0.00    -0.027 C
HETATM   11  C8  UNL     1      20.548  17.165  15.961  1.00  0.00    -0.027 C
BRANCH  11  12
HETATM   12  C7  UNL     1      21.763  16.917  15.159  1.00  0.00     0.053 C
BRANCH  12  13
HETATM   13  C6  UNL     1      22.604  18.132  15.086  1.00  0.00    -0.027 C
HETATM   14  C5  UNL     1      23.128  18.609  14.008  1.00  0.00    -0.030 C
BRANCH  14  15
HETATM   15  C4  UNL     1      23.037  18.093  12.618  1.00  0.00     0.027 C
BRANCH  15  16
HETATM   16  C3  UNL     1      24.254  18.497  11.819  1.00  0.00     0.003 C
BRANCH  16  17
HETATM   17  C2  UNL     1      25.060  19.563  12.463  1.00  0.00    -0.004 C
HETATM   18  C1  UNL     1      25.058  20.815  11.655  1.00  0.00     0.005 C
ENDBRANCH  16  17
ENDBRANCH  15  16
ENDBRANCH  14  15
ENDBRANCH  12  13
ENDBRANCH  11  12
ENDBRANCH   9  10
ENDBRANCH   8   9
ENDBRANCH   6   7
ENDBRANCH   5   6
ENDBRANCH   3   4
ENDBRANCH   1   3
BRANCH   2  19
HETATM   19  C19 UNL     1      15.357  19.178   9.807  1.00  0.00    -0.002 C
HETATM   20  C20 UNL     1      15.234  20.393   9.319  1.00  0.00     0.008 C
BRANCH  20  21
HETATM   21  C21 UNL     1      15.731  21.564  10.058  1.00  0.00     0.182 C
HETATM   22  O1  UNL     1      17.095  21.715  10.039  1.00  0.00    -0.371 OA
HETATM   23  C22 UNL     1      17.658  22.027   8.837  1.00  0.00     0.154 C
HETATM   24  C23 UNL     1      17.866  20.847   7.916  1.00  0.00     0.042 C
HETATM   25  C24 UNL     1      16.962  23.145   8.094  1.00  0.00     0.218 C
HETATM   26  C25 UNL     1      15.989  23.747   9.039  1.00  0.00     0.190 C
HETATM   27  O3  UNL     1      16.008  24.925   9.285  1.00  0.00    -0.292 OA
HETATM   28  C26 UNL     1      14.997  22.837   9.663  1.00  0.00     0.236 C
BRANCH  25  29
HETATM   29  O2  UNL     1      17.831  24.057   7.541  1.00  0.00    -0.385 OA
ATOM     30  H2  UNL     1      18.134  23.812   6.674  1.00  0.00     0.210 HD
ENDBRANCH  25  29
BRANCH  28  31
HETATM   31  O4  UNL     1      14.035  22.542   8.638  1.00  0.00    -0.305 OA
BRANCH  31  32
HETATM   32  C27 UNL     1      12.694  22.831   8.799  1.00  0.00     0.255 C
HETATM   33  C28 UNL     1      12.115  24.153   8.376  1.00  0.00     0.126 C
HETATM   34  O5  UNL     1      11.972  21.941   9.315  1.00  0.00    -0.266 OA
ENDBRANCH  31  32
ENDBRANCH  28  31
ENDBRANCH  20  21
ENDBRANCH   2  19
TORSDOF 16
ENDMDL