MODEL 5
REMARK VINA RESULT: -7.854742638      1.126      1.410
REMARK  16 active torsions:
REMARK  status: ('A' for Active; 'I' for Inactive)
REMARK    1  A    between atoms: C2_2  and  C3_3
REMARK    2  A    between atoms: C3_3  and  C5_5
REMARK    3  A    between atoms: C5_5  and  O2_7
REMARK    4  A    between atoms: O2_7  and  C6_8
REMARK    5  A    between atoms: C6_8  and  C8_10
REMARK    6  A    between atoms: C6_8  and  C25_30
REMARK    7  A    between atoms: C8_10  and  O3_13
REMARK    8  A    between atoms: O3_13  and  C11_14
REMARK    9  A    between atoms: C11_14  and  C12_15
REMARK   10  A    between atoms: C13_16  and  C15_18
REMARK   11  A    between atoms: C15_18  and  C16_19
REMARK   12  A    between atoms: C16_19  and  C17_20
REMARK   13  A    between atoms: C18_21  and  C20_23
REMARK   14  A    between atoms: C20_23  and  C21_24
REMARK   15  A    between atoms: C21_24  and  C22_25
REMARK   16  A    between atoms: C23_26  and  O4_28
ROOT
HETATM    1  O3  UNL     1      14.205  21.437  10.672  1.00  0.00    -0.374 OA
ENDROOT
BRANCH   1   2
HETATM    2  C8  UNL     1      13.241  22.420  10.565  1.00  0.00     0.088 C
HETATM    3  C9  UNL     1      12.059  21.799   9.849  1.00  0.00     0.049 C
HETATM    4  C10 UNL     1      12.781  22.787  11.994  1.00  0.00     0.049 C
BRANCH   2   5
HETATM    5  C6  UNL     1      13.758  23.676   9.901  1.00  0.00     0.130 C
HETATM    6  C7  UNL     1      13.023  23.749   8.570  1.00  0.00     0.053 C
BRANCH   5   7
HETATM    7  O2  UNL     1      15.086  23.729   9.843  1.00  0.00    -0.304 OA
BRANCH   7   8
HETATM    8  C5  UNL     1      16.087  23.712   8.971  1.00  0.00     0.263 C
HETATM    9  O1  UNL     1      16.618  24.820   8.728  1.00  0.00    -0.265 OA
BRANCH   8  10
HETATM   10  C3  UNL     1      16.626  22.518   8.268  1.00  0.00     0.081 C
HETATM   11  C4  UNL     1      17.572  22.928   7.149  1.00  0.00     0.020 C
BRANCH  10  12
HETATM   12  C2  UNL     1      17.373  21.571   9.150  1.00  0.00     0.010 C
HETATM   13  C1  UNL     1      18.000  20.442   8.379  1.00  0.00     0.006 C
ENDBRANCH  10  12
ENDBRANCH   8  10
ENDBRANCH   7   8
ENDBRANCH   5   7
BRANCH   5  14
HETATM   14  C25 UNL     1      13.261  24.919  10.680  1.00  0.00     0.113 A
HETATM   15  C26 UNL     1      11.836  25.381  10.430  1.00  0.00     0.051 C
HETATM   16  C27 UNL     1      14.219  26.126  10.561  1.00  0.00     0.209 A
HETATM   17  O5  UNL     1      14.011  25.425  11.714  1.00  0.00    -0.372 OA
ENDBRANCH   5  14
ENDBRANCH   2   5
ENDBRANCH   1   2
BRANCH   1  18
HETATM   18  C11 UNL     1      13.996  20.340   9.900  1.00  0.00     0.196 C
BRANCH  18  19
HETATM   19  C12 UNL     1      14.505  19.049  10.356  1.00  0.00     0.001 C
HETATM   20  C13 UNL     1      14.000  17.848  10.300  1.00  0.00    -0.085 C
HETATM   21  C14 UNL     1      12.702  17.447   9.732  1.00  0.00     0.043 C
BRANCH  20  22
HETATM   22  C15 UNL     1      14.814  16.666  10.851  1.00  0.00     0.037 C
BRANCH  22  23
HETATM   23  C16 UNL     1      14.526  16.587  12.332  1.00  0.00     0.031 C
BRANCH  23  24
HETATM   24  C17 UNL     1      13.917  15.323  12.736  1.00  0.00    -0.024 C
HETATM   25  C18 UNL     1      13.759  14.997  14.030  1.00  0.00    -0.087 C
HETATM   26  C19 UNL     1      14.230  15.981  15.060  1.00  0.00     0.043 C
BRANCH  25  27
HETATM   27  C20 UNL     1      13.120  13.724  14.354  1.00  0.00     0.037 C
BRANCH  27  28
HETATM   28  C21 UNL     1      12.085  13.789  15.438  1.00  0.00     0.034 C
BRANCH  28  29
HETATM   29  C22 UNL     1      10.731  14.026  14.927  1.00  0.00     0.005 C
HETATM   30  C23 UNL     1       9.676  13.631  15.642  1.00  0.00     0.035 C
HETATM   31  C24 UNL     1       9.858  12.961  16.947  1.00  0.00     0.075 C
BRANCH  30  32
HETATM   32  O4  UNL     1       8.380  13.858  15.149  1.00  0.00    -0.366 OA
ATOM     33  H4  UNL     1       7.739  14.294  15.697  1.00  0.00     0.217 HD
ENDBRANCH  30  32
ENDBRANCH  28  29
ENDBRANCH  27  28
ENDBRANCH  25  27
ENDBRANCH  23  24
ENDBRANCH  22  23
ENDBRANCH  20  22
ENDBRANCH  18  19
ENDBRANCH   1  18
TORSDOF 16
ENDMDL