MODEL 3
REMARK VINA RESULT: 9.945799939      4.220      9.992
REMARK  1 active torsions:
REMARK  status: ('A' for Active; 'I' for Inactive)
REMARK    1  A    between atoms: C1_2  and  C2_3
REMARK       I    between atoms: C1_2  and  N1_10
ROOT
HETATM    1  O1  UNL     1       6.139 -18.375  23.550  1.00  0.00    -0.267 OA
HETATM    2  C1  UNL     1       6.917 -17.902  22.687  1.00  0.00     0.258 C
HETATM    3  N1  UNL     1       7.029 -16.529  22.443  1.00  0.00    -0.325 N
HETATM    4  C8  UNL     1       6.275 -15.506  23.141  1.00  0.00     0.147 C
HETATM    5  C9  UNL     1       4.984 -15.966  23.720  1.00  0.00     0.133 C
HETATM    6  N2  UNL     1       4.105 -14.843  23.941  1.00  0.00    -0.418 N
ATOM      7  H2  UNL     1       3.137 -14.956  24.241  1.00  0.00     0.153 HD
HETATM    8  C10 UNL     1       4.694 -13.562  23.708  1.00  0.00     0.141 C
HETATM    9  C11 UNL     1       3.896 -12.525  24.497  1.00  0.00     0.251 C
HETATM   10  N3  UNL     1       4.730 -11.820  25.450  1.00  0.00    -0.074 N
ATOM     11  H31 UNL     1       5.653 -12.247  25.526  1.00  0.00     0.277 HD
ATOM     12  H32 UNL     1       4.409 -11.966  26.407  1.00  0.00     0.277 HD
HETATM   13  C12 UNL     1       4.825 -10.394  25.129  1.00  0.00     0.234 C
HETATM   14  C13 UNL     1       5.932  -9.815  25.949  1.00  0.00     0.055 C
HETATM   15  C14 UNL     1       7.198  -9.567  25.174  1.00  0.00     0.234 C
HETATM   16  N4  UNL     1       7.560 -10.641  24.298  1.00  0.00    -0.073 N
ATOM     17  H41 UNL     1       6.769 -11.003  23.767  1.00  0.00     0.277 HD
ATOM     18  H42 UNL     1       7.791 -11.499  24.798  1.00  0.00     0.277 HD
HETATM   19  C15 UNL     1       8.644 -10.172  23.449  1.00  0.00     0.258 C
HETATM   20  C16 UNL     1       9.554 -11.303  23.085  1.00  0.00     0.195 C
HETATM   21  O2  UNL     1       8.885 -12.512  22.987  1.00  0.00    -0.387 OA
HETATM   22  C17 UNL     1       9.840 -13.522  22.892  1.00  0.00     0.193 C
HETATM   23  C18 UNL     1       9.601 -14.424  21.710  1.00  0.00     0.196 C
HETATM   24  O3  UNL     1       9.128 -15.674  22.090  1.00  0.00    -0.370 OA
HETATM   25  C19 UNL     1       7.964 -16.036  21.418  1.00  0.00     0.296 C
ENDROOT
BRANCH   2  26
HETATM   26  C2  UNL     1       7.728 -18.832  21.920  1.00  0.00     0.070 A
HETATM   27  C3  UNL     1       8.881 -19.404  22.413  1.00  0.00     0.020 A
HETATM   28  C4  UNL     1       9.619 -20.281  21.648  1.00  0.00     0.001 A
HETATM   29  C5  UNL     1       9.229 -20.618  20.364  1.00  0.00     0.003 A
HETATM   30  C6  UNL     1       8.081 -20.052  19.866  1.00  0.00     0.043 A
HETATM   31  C7  UNL     1       7.333 -19.162  20.641  1.00  0.00     0.132 A
HETATM   32  F1  UNL     1       6.207 -18.623  20.118  1.00  0.00    -0.205 F
ENDBRANCH   2  26
TORSDOF 1
ENDMDL