MODEL 5
REMARK VINA RESULT: -4.959271114      3.867      6.275
REMARK  1 active torsions:
REMARK  status: ('A' for Active; 'I' for Inactive)
REMARK    1  A    between atoms: C7_13  and  N3_14
ROOT
HETATM    1  O1  UNL     1       6.590 -12.298  24.747  1.00  0.00    -0.264 OA
HETATM    2  C1  UNL     1       7.193 -13.130  24.010  1.00  0.00     0.297 C
HETATM    3  N1  UNL     1       7.792 -12.904  22.731  1.00  0.00    -0.288 N
ATOM      4  H1  UNL     1       7.812 -12.013  22.234  1.00  0.00     0.172 HD
HETATM    5  C2  UNL     1       8.362 -14.136  22.258  1.00  0.00     0.266 C
HETATM    6  O2  UNL     1       8.636 -14.352  21.063  1.00  0.00    -0.269 OA
HETATM    7  C3  UNL     1       8.515 -14.982  23.454  1.00  0.00     0.213 A
HETATM    8  N2  UNL     1       9.818 -15.057  24.026  1.00  0.00    -0.361 N
ATOM      9  H2  UNL     1      10.451 -14.389  24.466  1.00  0.00     0.161 HD
HETATM   10  C4  UNL     1       9.874 -16.448  23.731  1.00  0.00     0.039 A
HETATM   11  C5  UNL     1      10.549 -17.652  23.759  1.00  0.00     0.032 A
HETATM   12  C6  UNL     1       9.944 -18.783  23.224  1.00  0.00     0.031 A
HETATM   13  C7  UNL     1       8.677 -18.763  22.656  1.00  0.00     0.030 A
HETATM   14  C15 UNL     1       8.017 -17.553  22.637  1.00  0.00     0.042 A
HETATM   15  C16 UNL     1       8.616 -16.430  23.167  1.00  0.00     0.016 A
HETATM   16  C17 UNL     1       7.412 -14.560  24.317  1.00  0.00     0.259 C
HETATM   17  O4  UNL     1       6.728 -15.192  25.169  1.00  0.00    -0.283 OA
ENDROOT
BRANCH  13  18
HETATM   18  N3  UNL     1       8.055 -19.900  22.105  1.00  0.00    -0.380 N
HETATM   19  C8  UNL     1       7.987 -21.047  22.960  1.00  0.00     0.128 C
HETATM   20  C9  UNL     1       7.414 -22.258  22.280  1.00  0.00     0.068 C
HETATM   21  C10 UNL     1       8.087 -22.629  21.009  1.00  0.00     0.013 A
HETATM   22  S1  UNL     1       8.379 -24.252  20.539  1.00  0.00    -0.016 SA
HETATM   23  C12 UNL     1       8.615 -21.938  19.949  1.00  0.00     0.026 A
HETATM   24  N4  UNL     1       9.136 -23.983  19.061  1.00  0.00    -0.293 N
HETATM   25  C11 UNL     1       9.151 -22.657  18.954  1.00  0.00     0.259 A
ATOM     26  H4  UNL     1       9.499 -24.673  18.403  1.00  0.00     0.177 HD
HETATM   27  O3  UNL     1       9.678 -22.129  17.902  1.00  0.00    -0.267 OA
HETATM   28  C13 UNL     1       8.606 -20.417  19.878  1.00  0.00     0.065 C
HETATM   29  C14 UNL     1       7.531 -19.862  20.754  1.00  0.00     0.128 C
ENDBRANCH  13  18
TORSDOF 1
ENDMDL