MODEL 2
REMARK VINA RESULT: -3.404653114      0.180      1.526
REMARK  2 active torsions:
REMARK  status: ('A' for Active; 'I' for Inactive)
REMARK    1  A    between atoms: C13_17  and  C15_20
REMARK    2  A    between atoms: C16_21  and  O2_22
ROOT
HETATM    1  N1  UNL     1       8.932 -16.360  20.217  1.00  0.00    -0.195 NA
HETATM    2  C1  UNL     1       8.414 -17.223  20.826  1.00  0.00     0.087 C
HETATM    3  C2  UNL     1       7.733 -18.340  21.590  1.00  0.00     0.166 C
HETATM    4  C3  UNL     1       6.896 -18.957  20.528  1.00  0.00     0.087 C
HETATM    5  N2  UNL     1       6.235 -19.428  19.669  1.00  0.00    -0.195 NA
HETATM    6  C4  UNL     1       6.848 -17.611  22.517  1.00  0.00     0.082 C
HETATM    7  C5  UNL     1       7.690 -16.490  23.087  1.00  0.00    -0.039 A
HETATM    8  C6  UNL     1       7.166 -15.236  22.906  1.00  0.00     0.050 A
HETATM    9  C7  UNL     1       7.910 -14.191  23.413  1.00  0.00     0.117 A
HETATM   10  F1  UNL     1       7.469 -12.897  23.281  1.00  0.00    -0.206 F
HETATM   11  C8  UNL     1       9.112 -14.388  24.065  1.00  0.00     0.043 A
HETATM   12  C9  UNL     1       9.613 -15.661  24.231  1.00  0.00     0.018 A
HETATM   13  C10 UNL     1       8.887 -16.741  23.731  1.00  0.00     0.016 A
HETATM   14  C11 UNL     1       9.554 -18.022  23.990  1.00  0.00     0.162 C
HETATM   15  O1  UNL     1      10.668 -18.023  24.526  1.00  0.00    -0.292 OA
HETATM   16  C12 UNL     1       8.892 -19.326  23.606  1.00  0.00     0.116 C
HETATM   17  C13 UNL     1       8.763 -19.272  22.071  1.00  0.00     0.126 C
HETATM   18  C14 UNL     1      10.076 -18.732  21.685  1.00  0.00     0.078 C
HETATM   19  N3  UNL     1      11.129 -18.254  21.394  1.00  0.00    -0.196 NA
ENDROOT
BRANCH  17  20
HETATM   20  C15 UNL     1       8.627 -20.683  21.664  1.00  0.00     0.087 A
HETATM   21  C16 UNL     1       8.051 -21.614  22.539  1.00  0.00     0.157 A
HETATM   22  N4  UNL     1       7.871 -22.902  22.211  1.00  0.00    -0.288 N
HETATM   23  C17 UNL     1       8.236 -23.382  21.021  1.00  0.00     0.329 A
ATOM     24  H4  UNL     1       7.445 -23.532  22.890  1.00  0.00     0.172 HD
HETATM   25  O3  UNL     1       8.063 -24.607  20.716  1.00  0.00    -0.247 OA
HETATM   26  N5  UNL     1       8.792 -22.533  20.150  1.00  0.00    -0.275 N
HETATM   27  C18 UNL     1       8.989 -21.216  20.447  1.00  0.00     0.261 A
ATOM     28  H5  UNL     1       9.077 -22.881  19.235  1.00  0.00     0.173 HD
HETATM   29  O4  UNL     1       9.513 -20.456  19.603  1.00  0.00    -0.267 OA
BRANCH  21  30
HETATM   30  O2  UNL     1       7.648 -21.234  23.778  1.00  0.00    -0.345 OA
ATOM     31  H2  UNL     1       7.188 -21.844  24.343  1.00  0.00     0.219 HD
ENDBRANCH  21  30
ENDBRANCH  17  20
TORSDOF 2
ENDMDL