MODEL 2
REMARK VINA RESULT: -6.935636853      1.315      2.024
REMARK  6 active torsions:
REMARK  status: ('A' for Active; 'I' for Inactive)
REMARK    1  A    between atoms: N1_2  and  C2_3
REMARK    2  A    between atoms: N1_2  and  C13_29
REMARK    3  A    between atoms: C2_3  and  O1_4
REMARK    4  A    between atoms: C2_3  and  N2_6
REMARK    5  A    between atoms: N3_9  and  C5_10
REMARK    6  A    between atoms: C8_18  and  N6_19
ROOT
HETATM    1  C5  UNL     1       8.793 -18.528  21.939  1.00  0.00     0.682 A
HETATM    2  N4  UNL     1       8.994 -19.272  20.830  1.00  0.00    -0.185 N
ATOM      3  H4  UNL     1       9.287 -18.896  19.929  1.00  0.00     0.184 HD
HETATM    4  C6  UNL     1       8.756 -20.571  21.068  1.00  0.00     0.133 A
HETATM    5  C7  UNL     1       8.795 -21.743  20.342  1.00  0.00     0.147 A
HETATM    6  S1  UNL     1       9.230 -21.672  18.763  1.00  0.00    -0.057 SA
HETATM    7  N5  UNL     1       8.490 -22.939  20.881  1.00  0.00    -0.179 N
ATOM      8  H5  UNL     1       8.528 -23.788  20.317  1.00  0.00     0.185 HD
HETATM    9  C8  UNL     1       8.129 -22.994  22.190  1.00  0.00     0.680 A
HETATM   10  N7  UNL     1       8.085 -21.859  22.916  1.00  0.00    -0.170 N
HETATM   11  C9  UNL     1       7.705 -21.879  24.312  1.00  0.00     0.177 C
HETATM   12  C10 UNL     1       8.390 -20.640  22.389  1.00  0.00     0.169 A
HETATM   13  N8  UNL     1       8.420 -19.395  22.895  1.00  0.00    -0.173 N
ATOM     14  H8  UNL     1       8.195 -19.148  23.857  1.00  0.00     0.186 HD
ENDROOT
BRANCH   1  15
HETATM   15  N3  UNL     1       8.935 -17.134  22.109  1.00  0.00    -0.214 N
HETATM   16  C4  UNL     1       9.036 -16.288  20.942  1.00  0.00     0.161 C
HETATM   17  C3  UNL     1       8.167 -15.040  21.213  1.00  0.00     0.147 C
HETATM   18  N2  UNL     1       8.649 -14.379  22.393  1.00  0.00    -0.344 N
HETATM   19  C12 UNL     1       9.560 -15.169  23.268  1.00  0.00     0.147 C
HETATM   20  C11 UNL     1       8.977 -16.571  23.423  1.00  0.00     0.161 C
BRANCH  18  21
HETATM   21  C2  UNL     1       8.380 -13.086  22.842  1.00  0.00     0.221 C
BRANCH  21  22
HETATM   22  N1  UNL     1       9.152 -11.940  22.609  1.00  0.00    -0.289 N
HETATM   23  C1  UNL     1       9.194 -10.801  23.455  1.00  0.00     0.159 C
BRANCH  22  24
HETATM   24  C13 UNL     1      10.002 -11.877  21.394  1.00  0.00     0.322 C
HETATM   25  C14 UNL     1      10.658 -10.501  21.434  1.00  0.00     0.117 C
HETATM   26  F1  UNL     1       9.249 -12.021  20.260  1.00  0.00    -0.183 F
HETATM   27  F2  UNL     1      10.950 -12.865  21.456  1.00  0.00    -0.183 F
ENDBRANCH  22  24
ENDBRANCH  21  22
BRANCH  21  28
HETATM   28  O1  UNL     1       7.289 -12.929  23.558  1.00  0.00    -0.332 OA
ATOM     29  H1  UNL     1       6.466 -13.148  23.137  1.00  0.00     0.220 HD
ENDBRANCH  21  28
ENDBRANCH  18  21
ENDBRANCH   1  15
BRANCH   9  30
HETATM   30  N6  UNL     1       7.833 -24.132  22.722  1.00  0.00    -0.234 N
ATOM     31  H62 UNL     1       8.093 -25.006  22.265  1.00  0.00     0.174 HD
ATOM     32  H61 UNL     1       7.333 -24.157  23.611  1.00  0.00     0.174 HD
ENDBRANCH   9  30
TORSDOF 6
ENDMDL