MODEL 5
REMARK VINA RESULT: 0.217105757      3.876      7.219
REMARK  1 active torsions:
REMARK  status: ('A' for Active; 'I' for Inactive)
REMARK    1  A    between atoms: C10_18  and  C11_19
REMARK       I    between atoms: C11_19  and  N3_21
ROOT
HETATM    1  N1  UNL     1       6.522 -15.080  25.992  1.00  0.00    -0.386 N
ATOM      2  H11 UNL     1       7.032 -14.612  26.741  1.00  0.00     0.157 HD
ATOM      3  H12 UNL     1       5.732 -15.543  26.442  1.00  0.00     0.157 HD
HETATM    4  C1  UNL     1       6.797 -15.093  24.762  1.00  0.00     0.119 C
HETATM    5  N2  UNL     1       6.090 -15.741  23.724  1.00  0.00    -0.250 N
ATOM      6  H2  UNL     1       5.243 -16.292  23.866  1.00  0.00     0.196 HD
HETATM    7  O1  UNL     1       6.674 -15.543  22.518  1.00  0.00    -0.236 OA
HETATM    8  C2  UNL     1       7.961 -15.083  22.777  1.00  0.00     0.230 C
HETATM    9  O2  UNL     1       8.784 -16.189  22.873  1.00  0.00    -0.314 OA
HETATM   10  C3  UNL     1       8.686 -17.054  21.796  1.00  0.00     0.167 C
HETATM   11  C4  UNL     1      10.102 -17.449  21.436  1.00  0.00     0.068 C
HETATM   12  C5  UNL     1      10.668 -18.491  22.326  1.00  0.00     0.005 C
HETATM   13  C6  UNL     1      10.006 -18.620  23.676  1.00  0.00     0.000 C
HETATM   14  C7  UNL     1       8.506 -18.756  23.561  1.00  0.00     0.005 C
HETATM   15  C8  UNL     1       8.010 -18.362  22.189  1.00  0.00     0.068 C
HETATM   16  O3  UNL     1       8.024 -16.431  20.772  1.00  0.00    -0.354 OA
HETATM   17  C9  UNL     1       8.580 -15.199  20.449  1.00  0.00     0.191 C
HETATM   18  C10 UNL     1       8.432 -14.258  21.635  1.00  0.00     0.168 C
HETATM   19  C16 UNL     1       7.943 -14.422  24.109  1.00  0.00     0.216 C
HETATM   20 CL1  UNL     1       7.605 -12.697  24.071  1.00  0.00    -0.111 Cl
ENDROOT
BRANCH  18  21
HETATM   21  C11 UNL     1       9.712 -13.582  21.852  1.00  0.00     0.231 C
HETATM   22  O4  UNL     1      10.573 -14.153  22.568  1.00  0.00    -0.273 OA
HETATM   23  N3  UNL     1      10.051 -12.319  21.307  1.00  0.00    -0.348 N
HETATM   24  C12 UNL     1      11.334 -11.684  21.544  1.00  0.00     0.153 C
HETATM   25  C15 UNL     1       9.123 -11.562  20.462  1.00  0.00     0.153 C
HETATM   26  C13 UNL     1      11.618 -10.766  20.369  1.00  0.00     0.252 C
HETATM   27  N4  UNL     1      10.665  -9.667  20.310  1.00  0.00    -0.072 N
HETATM   28  C14 UNL     1       9.381 -10.089  20.779  1.00  0.00     0.252 C
ATOM     29  H42 UNL     1      11.002  -8.847  20.814  1.00  0.00     0.277 HD
ATOM     30  H41 UNL     1      10.613  -9.261  19.376  1.00  0.00     0.277 HD
ENDBRANCH  18  21
TORSDOF 1
ENDMDL