MODEL 1
REMARK VINA RESULT: 0.857953610      0.000      0.000
REMARK  1 active torsions:
REMARK  status: ('A' for Active; 'I' for Inactive)
REMARK    1  A    between atoms: C13_22  and  N5_23
ROOT
HETATM    1  N5  UNL     1       8.481 -22.120  20.878  1.00  0.00    -0.375 N
HETATM    2  C14 UNL     1       7.715 -23.041  21.693  1.00  0.00     0.143 C
HETATM    3  C15 UNL     1       8.226 -24.459  21.514  1.00  0.00     0.154 C
HETATM    4  N6  UNL     1       8.450 -24.745  20.112  1.00  0.00    -0.317 N
HETATM    5  C16 UNL     1       8.936 -25.992  19.744  1.00  0.00     0.179 C
HETATM    6  N7  UNL     1       9.329 -27.021  19.426  1.00  0.00    -0.172 NA
HETATM    7  C17 UNL     1       8.159 -23.719  19.116  1.00  0.00     0.154 C
HETATM    8  C18 UNL     1       8.911 -22.474  19.537  1.00  0.00     0.143 C
ENDROOT
BRANCH   1   9
HETATM    9  C13 UNL     1       8.840 -20.835  21.363  1.00  0.00     0.070 A
HETATM   10  C12 UNL     1      10.120 -20.388  21.184  1.00  0.00     0.035 A
HETATM   11  C11 UNL     1      10.441 -19.150  21.658  1.00  0.00     0.032 A
HETATM   12  C10 UNL     1       9.515 -18.304  22.324  1.00  0.00     0.041 A
HETATM   13  N1  UNL     1      10.010 -17.041  22.754  1.00  0.00    -0.383 N
HETATM   14  C9  UNL     1       8.228 -18.761  22.500  1.00  0.00     0.035 A
HETATM   15  C1  UNL     1      11.279 -17.057  23.499  1.00  0.00     0.149 C
HETATM   16  C2  UNL     1       9.413 -15.738  22.519  1.00  0.00     0.150 C
HETATM   17  C3  UNL     1       9.648 -14.750  23.603  1.00  0.00     0.252 C
HETATM   18  N2  UNL     1       8.537 -14.391  24.412  1.00  0.00    -0.072 N
HETATM   19  C4  UNL     1       7.536 -13.707  23.628  1.00  0.00     0.251 C
ATOM     20  H22 UNL     1       8.148 -15.197  24.901  1.00  0.00     0.277 HD
ATOM     21  H21 UNL     1       8.821 -13.843  25.224  1.00  0.00     0.277 HD
HETATM   22  C5  UNL     1       6.124 -14.040  24.070  1.00  0.00     0.141 C
HETATM   23  N3  UNL     1       6.026 -15.291  24.738  1.00  0.00    -0.418 N
HETATM   24  C6  UNL     1       5.163 -16.261  24.115  1.00  0.00     0.141 C
ATOM     25  H3  UNL     1       6.533 -15.488  25.600  1.00  0.00     0.153 HD
HETATM   26  C7  UNL     1       5.385 -16.465  22.667  1.00  0.00     0.251 C
HETATM   27  N4  UNL     1       6.070 -17.680  22.305  1.00  0.00    -0.070 N
HETATM   28  C8  UNL     1       7.132 -18.036  23.192  1.00  0.00     0.276 C
ATOM     29  H42 UNL     1       5.409 -18.450  22.212  1.00  0.00     0.277 HD
ATOM     30  H41 UNL     1       6.409 -17.627  21.344  1.00  0.00     0.277 HD
HETATM   31  C19 UNL     1       7.919 -20.027  22.011  1.00  0.00     0.153 A
HETATM   32  F1  UNL     1       6.641 -20.482  22.192  1.00  0.00    -0.203 F
ENDBRANCH   1   9
TORSDOF 1
ENDMDL