MODEL 3
REMARK VINA RESULT: -7.342396023      1.003      1.003
REMARK  3 active torsions:
REMARK  status: ('A' for Active; 'I' for Inactive)
REMARK    1  A    between atoms: N1_2  and  C2_4
REMARK    2  A    between atoms: C3_7  and  C4_8
REMARK       I    between atoms: C4_8  and  N3_10
REMARK       I    between atoms: N3_10  and  C5_12
REMARK       I    between atoms: C5_12  and  N4_14
REMARK    3  A    between atoms: N4_14  and  C6_16
ROOT
HETATM    1  C4  UNL     1       8.182 -14.315  22.580  1.00  0.00     0.277 C
HETATM    2  O1  UNL     1       7.081 -13.930  23.016  1.00  0.00    -0.266 OA
HETATM    3  N3  UNL     1       9.208 -13.343  22.440  1.00  0.00    -0.274 N
ATOM      4  H3  UNL     1      10.125 -13.615  22.086  1.00  0.00     0.173 HD
HETATM    5  C5  UNL     1       8.958 -12.009  22.790  1.00  0.00     0.329 C
HETATM    6  O2  UNL     1       7.834 -11.652  23.229  1.00  0.00    -0.247 OA
HETATM    7  N4  UNL     1       9.966 -11.019  22.660  1.00  0.00    -0.287 N
ATOM      8  H4  UNL     1      10.293 -10.496  23.472  1.00  0.00     0.172 HD
ENDROOT
BRANCH   1   9
HETATM    9  C3  UNL     1       8.404 -15.748  22.219  1.00  0.00     0.116 A
HETATM   10  N2  UNL     1       7.578 -16.422  21.467  1.00  0.00    -0.331 N
HETATM   11  C2  UNL     1       7.849 -17.694  21.193  1.00  0.00     0.145 A
ATOM     12  H2  UNL     1       6.737 -15.980  21.095  1.00  0.00     0.168 HD
HETATM   13  S2  UNL     1       9.314 -17.964  22.018  1.00  0.00    -0.057 SA
HETATM   14  C8  UNL     1       9.514 -16.408  22.685  1.00  0.00     0.015 A
HETATM   15  C9  UNL     1      10.616 -15.873  23.561  1.00  0.00     0.059 C
BRANCH  11  16
HETATM   16  N1  UNL     1       7.161 -18.544  20.466  1.00  0.00    -0.375 N
HETATM   17  C1  UNL     1       7.591 -19.872  20.197  1.00  0.00     0.148 C
ATOM     18  H1  UNL     1       6.271 -18.235  20.074  1.00  0.00     0.161 HD
ENDBRANCH  11  16
ENDBRANCH   1   9
BRANCH   7  19
HETATM   19  C6  UNL     1      10.468 -10.792  21.466  1.00  0.00     0.169 A
HETATM   20  N5  UNL     1      11.713 -11.056  21.053  1.00  0.00    -0.278 N
HETATM   21  N6  UNL     1      12.030 -10.770  19.858  1.00  0.00    -0.286 N
ATOM     22  H5  UNL     1      12.393 -11.479  21.686  1.00  0.00     0.189 HD
HETATM   23  C7  UNL     1      11.141 -10.222  19.044  1.00  0.00     0.139 A
ATOM     24  H6  UNL     1      12.974 -10.962  19.524  1.00  0.00     0.188 HD
HETATM   25 BR1  UNL     1      11.375  -9.699  17.202  1.00  0.00    -0.021 Br
HETATM   26  S1  UNL     1       9.772 -10.114  20.060  1.00  0.00    -0.026 SA
ENDBRANCH   7  19
TORSDOF 3
ENDMDL