MODEL 3
REMARK VINA RESULT: -5.795422216      2.819      5.318
REMARK  3 active torsions:
REMARK  status: ('A' for Active; 'I' for Inactive)
REMARK    1  A    between atoms: C4_5  and  N2_6
REMARK    2  A    between atoms: N2_6  and  C5_8
REMARK    3  A    between atoms: C18_30  and  N5_31
ROOT
HETATM    1  N1  UNL     1       8.165 -22.043  23.150  1.00  0.00    -0.191 NA
HETATM    2  C1  UNL     1       8.501 -20.936  23.019  1.00  0.00     0.102 C
HETATM    3  C2  UNL     1       8.931 -19.595  22.870  1.00  0.00     0.075 C
HETATM    4  C3  UNL     1      10.305 -19.346  23.009  1.00  0.00     0.073 C
HETATM    5  C4  UNL     1      11.030 -18.231  22.618  1.00  0.00     0.107 C
HETATM    6  N4  UNL     1      10.487 -17.075  22.158  1.00  0.00    -0.341 N
ATOM      7  H4  UNL     1      11.079 -16.501  21.558  1.00  0.00     0.167 HD
HETATM    8  C9  UNL     1       9.254 -16.608  22.408  1.00  0.00     0.065 A
HETATM    9  C10 UNL     1       8.071 -17.302  22.589  1.00  0.00     0.095 A
HETATM   10  C11 UNL     1       6.876 -16.656  22.801  1.00  0.00     0.303 A
HETATM   11  O3  UNL     1       5.841 -17.333  22.957  1.00  0.00    -0.259 OA
HETATM   12  O4  UNL     1       6.882 -15.337  22.831  1.00  0.00    -0.274 OA
HETATM   13  C12 UNL     1       7.979 -14.622  22.667  1.00  0.00     0.092 A
HETATM   14  C13 UNL     1       7.884 -13.238  22.716  1.00  0.00     0.041 A
HETATM   15  C14 UNL     1       9.034 -12.500  22.548  1.00  0.00     0.045 A
HETATM   16  C15 UNL     1      10.249 -13.118  22.334  1.00  0.00     0.117 A
HETATM   17  F1  UNL     1      11.372 -12.377  22.170  1.00  0.00    -0.206 F
HETATM   18  C16 UNL     1      10.363 -14.496  22.281  1.00  0.00     0.059 A
HETATM   19  C17 UNL     1       9.220 -15.239  22.448  1.00  0.00     0.029 A
HETATM   20  C18 UNL     1       7.915 -18.684  22.599  1.00  0.00     0.065 C
ENDROOT
BRANCH  20  21
HETATM   21  N5  UNL     1       6.734 -19.120  22.339  1.00  0.00    -0.397 N
ATOM     22  H52 UNL     1       6.183 -19.424  23.141  1.00  0.00     0.156 HD
ATOM     23  H51 UNL     1       6.414 -19.144  21.370  1.00  0.00     0.156 HD
ENDBRANCH  20  21
BRANCH   5  24
HETATM   24  N2  UNL     1      12.278 -18.315  22.698  1.00  0.00    -0.338 N
ATOM     25  H2  UNL     1      12.786 -18.078  21.846  1.00  0.00     0.167 HD
BRANCH  24  26
HETATM   26  C5  UNL     1      13.075 -18.686  23.781  1.00  0.00     0.107 A
HETATM   27  C6  UNL     1      12.873 -18.349  25.044  1.00  0.00     0.109 A
HETATM   28  C7  UNL     1      13.935 -18.940  25.879  1.00  0.00     0.250 A
HETATM   29  O1  UNL     1      14.086 -18.849  27.107  1.00  0.00    -0.268 OA
HETATM   30  N3  UNL     1      14.803 -19.671  24.989  1.00  0.00    -0.289 N
HETATM   31  C8  UNL     1      14.270 -19.517  23.675  1.00  0.00     0.275 A
ATOM     32  H3  UNL     1      15.637 -20.197  25.250  1.00  0.00     0.172 HD
HETATM   33  O2  UNL     1      14.803 -20.040  22.662  1.00  0.00    -0.266 OA
ENDBRANCH  24  26
ENDBRANCH   5  24
TORSDOF 3
ENDMDL