MODEL 1
REMARK VINA RESULT: -3.180309249      0.000      0.000
REMARK  4 active torsions:
REMARK  status: ('A' for Active; 'I' for Inactive)
REMARK    1  A    between atoms: C2_2  and  O1_3
REMARK    2  A    between atoms: C2_2  and  N1_5
REMARK    3  A    between atoms: N2_13  and  C6_14
REMARK    4  A    between atoms: C7_18  and  C8_19
REMARK       I    between atoms: C8_19  and  N4_21
ROOT
HETATM    1  N1  UNL     1       7.411 -16.435  22.416  1.00  0.00    -0.313 N
HETATM    2  C3  UNL     1       6.885 -17.015  21.158  1.00  0.00     0.137 C
HETATM    3  C4  UNL     1       7.812 -18.154  20.760  1.00  0.00     0.077 C
HETATM    4  C5  UNL     1       8.687 -18.657  21.869  1.00  0.00     0.160 C
HETATM    5  S1  UNL     1       7.670 -19.637  23.008  1.00  0.00    -0.041 SA
HETATM    6  S2  UNL     1       7.216 -21.416  21.894  1.00  0.00    -0.010 SA
HETATM    7  S3  UNL     1       9.022 -21.574  20.735  1.00  0.00    -0.010 SA
HETATM    8  S4  UNL     1       9.993 -19.736  21.279  1.00  0.00    -0.041 SA
HETATM    9  N2  UNL     1       9.329 -17.601  22.658  1.00  0.00    -0.295 N
HETATM   10  C7  UNL     1       8.806 -16.266  22.380  1.00  0.00     0.184 C
ENDROOT
BRANCH  10  11
HETATM   11  C8  UNL     1       9.460 -15.147  22.982  1.00  0.00     0.292 C
HETATM   12  O2  UNL     1      10.666 -15.155  23.418  1.00  0.00    -0.264 OA
HETATM   13  N4  UNL     1       8.808 -13.898  23.143  1.00  0.00    -0.297 N
HETATM   14  C9  UNL     1       9.236 -12.825  22.526  1.00  0.00     0.203 C
ATOM     15  H4  UNL     1       7.991 -13.833  23.750  1.00  0.00     0.171 HD
HETATM   16  N5  UNL     1       8.550 -11.611  22.722  1.00  0.00    -0.066 NA
HETATM   17  N6  UNL     1      10.377 -12.949  21.688  1.00  0.00    -0.066 NA
ENDBRANCH  10  11
BRANCH   1  18
HETATM   18  C2  UNL     1       6.531 -16.184  23.438  1.00  0.00     0.115 C
HETATM   19  C1  UNL     1       5.098 -16.577  23.547  1.00  0.00     0.097 C
BRANCH  18  20
HETATM   20  O1  UNL     1       6.912 -15.508  24.495  1.00  0.00    -0.349 OA
ATOM     21  H1  UNL     1       7.855 -15.551  24.602  1.00  0.00     0.219 HD
ENDBRANCH  18  20
ENDBRANCH   1  18
BRANCH   9  22
HETATM   22  C6  UNL     1      10.347 -17.855  23.590  1.00  0.00     0.180 C
HETATM   23  N3  UNL     1      11.582 -17.794  23.197  1.00  0.00    -0.395 N
ATOM     24  H32 UNL     1      11.791 -17.565  22.225  1.00  0.00     0.156 HD
ATOM     25  H31 UNL     1      12.321 -17.979  23.874  1.00  0.00     0.156 HD
ENDBRANCH   9  22
TORSDOF 4
ENDMDL