MODEL 4
REMARK VINA RESULT: -5.649998834      1.325      2.178
REMARK  6 active torsions:
REMARK  status: ('A' for Active; 'I' for Inactive)
REMARK    1  A    between atoms: C3_5  and  N2_6
REMARK    2  A    between atoms: C6_11  and  N3_12
REMARK    3  A    between atoms: N3_12  and  C7_14
REMARK    4  A    between atoms: C7_14  and  O1_15
REMARK    5  A    between atoms: C7_14  and  C8_17
REMARK    6  A    between atoms: C9_18  and  O2_19
ROOT
HETATM    1  N3  UNL     1       7.569 -20.072  22.031  1.00  0.00    -0.357 N
ATOM      2  H3  UNL     1       6.993 -20.103  22.871  1.00  0.00     0.162 HD
ENDROOT
BRANCH   1   3
HETATM    3  C6  UNL     1       8.038 -21.200  21.844  1.00  0.00     0.061 C
HETATM    4  C5  UNL     1       8.615 -21.529  20.614  1.00  0.00    -0.020 C
HETATM    5  C4  UNL     1       8.552 -22.788  20.035  1.00  0.00    -0.006 C
HETATM    6  C15 UNL     1       9.363 -20.596  19.786  1.00  0.00     0.042 C
HETATM    7  C3  UNL     1       8.155 -24.006  20.543  1.00  0.00     0.106 C
HETATM    8  C17 UNL     1       9.021 -22.637  18.648  1.00  0.00     0.043 C
HETATM    9  N1  UNL     1       7.952 -24.309  21.856  1.00  0.00    -0.345 N
HETATM   10  C2  UNL     1       7.989 -23.493  22.924  1.00  0.00     0.031 C
ATOM     11  H1  UNL     1       7.743 -25.287  22.055  1.00  0.00     0.167 HD
HETATM   12  C1  UNL     1       8.083 -24.118  24.262  1.00  0.00     0.070 C
HETATM   13  C14 UNL     1       7.949 -22.117  22.917  1.00  0.00     0.083 C
HETATM   14 CL1  UNL     1       7.752 -21.373  24.499  1.00  0.00    -0.080 Cl
HETATM   15  C16 UNL     1      10.073 -21.570  18.821  1.00  0.00     0.009 C
BRANCH   7  16
HETATM   16  N2  UNL     1       7.937 -24.998  19.751  1.00  0.00    -0.385 N
ATOM     17  H22 UNL     1       7.493 -25.846  20.102  1.00  0.00     0.157 HD
ATOM     18  H21 UNL     1       8.249 -24.827  18.794  1.00  0.00     0.157 HD
ENDBRANCH   7  16
ENDBRANCH   1   3
BRANCH   1  19
HETATM   19  C7  UNL     1       7.532 -18.800  21.536  1.00  0.00     0.274 C
BRANCH  19  20
HETATM   20  O1  UNL     1       8.253 -18.763  20.342  1.00  0.00    -0.371 OA
ATOM     21  H1  UNL     1       7.640 -18.717  19.617  1.00  0.00     0.212 HD
ENDBRANCH  19  20
BRANCH  19  22
HETATM   22  C8  UNL     1       8.036 -17.674  22.324  1.00  0.00     0.114 A
HETATM   23  C9  UNL     1       7.140 -16.754  22.815  1.00  0.00     0.172 A
HETATM   24  N4  UNL     1       7.498 -15.685  23.549  1.00  0.00    -0.293 N
HETATM   25  C10 UNL     1       6.540 -14.733  24.055  1.00  0.00     0.162 C
HETATM   26  C11 UNL     1       8.795 -15.502  23.821  1.00  0.00     0.317 A
HETATM   27  O3  UNL     1       9.209 -14.516  24.509  1.00  0.00    -0.262 OA
HETATM   28  C12 UNL     1       9.694 -16.420  23.331  1.00  0.00     0.316 A
HETATM   29  O4  UNL     1      10.923 -16.258  23.581  1.00  0.00    -0.262 OA
HETATM   30  N5  UNL     1       9.333 -17.470  22.608  1.00  0.00    -0.310 N
HETATM   31  C13 UNL     1      10.235 -18.456  22.076  1.00  0.00     0.160 C
BRANCH  23  32
HETATM   32  O2  UNL     1       5.755 -16.864  22.581  1.00  0.00    -0.344 OA
ATOM     33  H2  UNL     1       5.385 -16.794  21.709  1.00  0.00     0.219 HD
ENDBRANCH  23  32
ENDBRANCH  19  22
ENDBRANCH   1  19
TORSDOF 6
ENDMDL