MODEL 3
REMARK VINA RESULT: -7.177667315      1.126      1.270
REMARK  6 active torsions:
REMARK  status: ('A' for Active; 'I' for Inactive)
REMARK    1  A    between atoms: C13_13  and  C14_14
REMARK    2  A    between atoms: C14_14  and  C15_15
REMARK    3  A    between atoms: C15_15  and  O2_17
REMARK    4  A    between atoms: C17_19  and  C19_21
REMARK    5  A    between atoms: C19_21  and  O4_23
REMARK    6  A    between atoms: C22_27  and  O6_28
ROOT
HETATM    1  C1  UNL     1       2.872  -3.042  26.681  1.00  0.00     0.046 C
HETATM    2  C2  UNL     1       4.061  -3.089  26.079  1.00  0.00     0.038 C
HETATM    3  C3  UNL     1       5.349  -2.590  26.705  1.00  0.00     0.074 C
HETATM    4  C4  UNL     1       6.189  -2.569  25.473  1.00  0.00     0.064 C
HETATM    5  C5  UNL     1       5.743  -3.900  24.888  1.00  0.00     0.136 C
HETATM    6  C6  UNL     1       6.417  -4.184  23.618  1.00  0.00     0.034 C
HETATM    7  C7  UNL     1       7.771  -3.459  23.490  1.00  0.00     0.016 C
HETATM    8  C8  UNL     1       8.442  -3.439  24.874  1.00  0.00     0.006 C
HETATM    9  C9  UNL     1       8.373  -4.791  25.489  1.00  0.00     0.020 C
HETATM   10  C10 UNL     1       9.916  -2.996  24.751  1.00  0.00    -0.012 C
HETATM   11  C11 UNL     1      10.114  -1.938  23.747  1.00  0.00     0.021 C
HETATM   12  C12 UNL     1      10.606  -4.242  24.170  1.00  0.00     0.021 C
HETATM   13  C13 UNL     1      10.424  -2.796  26.131  1.00  0.00    -0.040 C
HETATM   14  C17 UNL     1       9.654  -1.880  27.045  1.00  0.00     0.132 C
HETATM   15  C18 UNL     1       9.997  -2.396  28.491  1.00  0.00     0.039 C
HETATM   16  C21 UNL     1       8.190  -2.070  26.881  1.00  0.00     0.184 C
HETATM   17  O5  UNL     1       7.532  -1.954  27.917  1.00  0.00    -0.293 OA
HETATM   18  C22 UNL     1       7.640  -2.366  25.585  1.00  0.00     0.134 C
HETATM   19  O7  UNL     1       4.335  -3.590  24.795  1.00  0.00    -0.350 OA
ENDROOT
BRANCH  13  20
HETATM   20  C14 UNL     1      11.846  -2.971  26.441  1.00  0.00     0.087 C
BRANCH  20  21
HETATM   21  C15 UNL     1      12.877  -2.030  26.132  1.00  0.00     0.282 C
HETATM   22  O1  UNL     1      13.340  -1.779  25.023  1.00  0.00    -0.260 OA
BRANCH  21  23
HETATM   23  O2  UNL     1      13.493  -1.259  27.152  1.00  0.00    -0.323 OA
HETATM   24  C16 UNL     1      13.634  -1.722  28.455  1.00  0.00     0.213 C
ENDBRANCH  21  23
ENDBRANCH  20  21
ENDBRANCH  13  20
BRANCH  14  25
HETATM   25  C19 UNL     1       9.990  -0.483  27.112  1.00  0.00     0.278 C
HETATM   26  O3  UNL     1      10.397  -0.002  28.189  1.00  0.00    -0.264 OA
BRANCH  25  27
HETATM   27  O4  UNL     1       9.919   0.439  26.086  1.00  0.00    -0.325 OA
HETATM   28  C20 UNL     1      11.014   1.192  25.617  1.00  0.00     0.213 C
ENDBRANCH  25  27
ENDBRANCH  14  25
BRANCH  18  29
HETATM   29  O6  UNL     1       7.896  -1.211  24.780  1.00  0.00    -0.381 OA
ATOM     30  H6  UNL     1       8.838  -1.222  24.650  1.00  0.00     0.211 HD
ENDBRANCH  18  29
TORSDOF 6
ENDMDL