MODEL 4
REMARK VINA RESULT: -7.285702377      3.086      4.690
REMARK  6 active torsions:
REMARK  status: ('A' for Active; 'I' for Inactive)
REMARK    1  A    between atoms: O1_2  and  C2_3
REMARK    2  A    between atoms: C2_3  and  C3_5
REMARK    3  A    between atoms: C3_5  and  C5_7
REMARK    4  A    between atoms: C14_19  and  O6_20
REMARK    5  A    between atoms: O6_20  and  C15_21
REMARK    6  A    between atoms: C18_25  and  C19_26
ROOT
HETATM    1  C5  UNL     1       8.692  -2.818  26.299  1.00  0.00     0.099 C
HETATM    2  C6  UNL     1       7.307  -3.190  25.804  1.00  0.00     0.021 C
HETATM    3  C7  UNL     1       6.953  -2.464  24.541  1.00  0.00     0.002 C
HETATM    4  C8  UNL     1       7.726  -2.887  23.338  1.00  0.00     0.065 C
HETATM    5  C9  UNL     1       8.055  -4.342  23.257  1.00  0.00     0.044 C
HETATM    6  C10 UNL     1       9.516  -4.640  23.484  1.00  0.00     0.128 C
HETATM    7  C11 UNL     1       9.782  -6.012  22.872  1.00  0.00     0.040 C
HETATM    8  O3  UNL     1       9.946  -4.536  24.791  1.00  0.00    -0.316 OA
HETATM    9  C12 UNL     1       9.746  -3.719  25.862  1.00  0.00     0.264 C
HETATM   10  O4  UNL     1      10.696  -3.737  26.688  1.00  0.00    -0.265 OA
HETATM   11  C13 UNL     1       7.037  -2.501  22.076  1.00  0.00     0.160 C
HETATM   12  O5  UNL     1       7.445  -3.037  21.057  1.00  0.00    -0.295 OA
HETATM   13  C14 UNL     1       5.926  -1.542  21.978  1.00  0.00     0.202 C
HETATM   14  C17 UNL     1       5.376  -1.139  23.295  1.00  0.00     0.045 C
HETATM   15  C18 UNL     1       5.505  -2.241  24.324  1.00  0.00    -0.004 C
ENDROOT
BRANCH   1  16
HETATM   16  C3  UNL     1       8.694  -2.812  27.836  1.00  0.00     0.095 C
HETATM   17  C4  UNL     1       7.321  -3.082  28.375  1.00  0.00     0.021 C
BRANCH  16  18
HETATM   18  C2  UNL     1       9.218  -1.523  28.351  1.00  0.00     0.263 C
HETATM   19  O2  UNL     1      10.048  -1.548  29.291  1.00  0.00    -0.265 OA
BRANCH  18  20
HETATM   20  O1  UNL     1       8.842  -0.287  27.851  1.00  0.00    -0.326 OA
HETATM   21  C1  UNL     1       9.760   0.796  27.905  1.00  0.00     0.213 C
ENDBRANCH  18  20
ENDBRANCH  16  18
ENDBRANCH   1  16
BRANCH  15  22
HETATM   22  C19 UNL     1       4.663  -3.391  23.949  1.00  0.00    -0.018 C
HETATM   23  C20 UNL     1       3.233  -2.861  23.761  1.00  0.00     0.010 C
HETATM   24  C21 UNL     1       4.527  -4.464  24.971  1.00  0.00     0.010 C
ENDBRANCH  15  22
BRANCH  13  25
HETATM   25  O6  UNL     1       6.345  -0.497  21.151  1.00  0.00    -0.309 OA
BRANCH  25  26
HETATM   26  C15 UNL     1       5.571   0.262  20.338  1.00  0.00     0.255 C
HETATM   27  C16 UNL     1       4.543  -0.358  19.475  1.00  0.00     0.126 C
HETATM   28  O7  UNL     1       5.728   1.483  20.321  1.00  0.00    -0.266 OA
ENDBRANCH  25  26
ENDBRANCH  13  25
TORSDOF 6
ENDMDL