MODEL 2
REMARK VINA RESULT: -7.732005195      2.720      6.144
REMARK  7 active torsions:
REMARK  status: ('A' for Active; 'I' for Inactive)
REMARK    1  A    between atoms: C2_2  and  O2_4
REMARK    2  A    between atoms: O2_4  and  C3_5
REMARK    3  A    between atoms: C5_7  and  O3_8
REMARK    4  A    between atoms: O3_8  and  C6_9
REMARK    5  A    between atoms: C10_14  and  O5_15
REMARK    6  A    between atoms: O5_15  and  C11_16
REMARK    7  A    between atoms: C17_23  and  O7_24
ROOT
HETATM    1  C3  UNL     1       3.813  -3.409  25.177  1.00  0.00     0.135 C
HETATM    2  C4  UNL     1       4.387  -2.596  26.293  1.00  0.00     0.066 C
HETATM    3  C5  UNL     1       5.825  -2.989  26.549  1.00  0.00     0.146 C
HETATM    4  C8  UNL     1       6.714  -2.978  25.343  1.00  0.00     0.021 C
HETATM    5  C9  UNL     1       7.421  -4.366  25.378  1.00  0.00     0.022 C
HETATM    6  C10 UNL     1       7.813  -1.997  25.303  1.00  0.00     0.147 C
HETATM    7  C13 UNL     1       8.867  -2.493  24.288  1.00  0.00     0.061 C
HETATM    8  C14 UNL     1       8.210  -3.094  23.109  1.00  0.00    -0.021 C
HETATM    9  C15 UNL     1       6.950  -3.343  22.992  1.00  0.00    -0.071 C
HETATM   10  C16 UNL     1       6.361  -3.943  21.779  1.00  0.00     0.066 C
HETATM   11  C17 UNL     1       5.284  -2.997  21.244  1.00  0.00     0.122 C
HETATM   12  C18 UNL     1       4.960  -1.839  22.073  1.00  0.00     0.033 C
HETATM   13  C19 UNL     1       5.449  -1.700  23.478  1.00  0.00     0.017 C
HETATM   14  C20 UNL     1       5.979  -2.981  24.052  1.00  0.00    -0.003 C
HETATM   15  C21 UNL     1       4.846  -3.958  24.227  1.00  0.00     0.047 C
ENDROOT
BRANCH   1  16
HETATM   16  O2  UNL     1       2.801  -2.650  24.566  1.00  0.00    -0.316 OA
BRANCH  16  17
HETATM   17  C2  UNL     1       1.476  -2.973  24.504  1.00  0.00     0.255 C
HETATM   18  C1  UNL     1       0.967  -3.667  23.294  1.00  0.00     0.126 C
HETATM   19  O1  UNL     1       0.744  -2.668  25.477  1.00  0.00    -0.266 OA
ENDBRANCH  16  17
ENDBRANCH   1  16
BRANCH   3  20
HETATM   20  O3  UNL     1       6.399  -2.409  27.642  1.00  0.00    -0.315 OA
BRANCH  20  21
HETATM   21  C6  UNL     1       6.414  -2.947  28.943  1.00  0.00     0.255 C
HETATM   22  C7  UNL     1       5.222  -3.305  29.720  1.00  0.00     0.126 C
HETATM   23  O4  UNL     1       7.573  -3.092  29.371  1.00  0.00    -0.266 OA
ENDBRANCH  20  21
ENDBRANCH   3  20
BRANCH   6  24
HETATM   24  O5  UNL     1       8.589  -1.809  26.465  1.00  0.00    -0.315 OA
BRANCH  24  25
HETATM   25  C11 UNL     1       9.027  -0.547  26.836  1.00  0.00     0.255 C
HETATM   26  C12 UNL     1       9.446   0.530  25.921  1.00  0.00     0.126 C
HETATM   27  O6  UNL     1       9.074  -0.275  28.074  1.00  0.00    -0.266 OA
ENDBRANCH  24  25
ENDBRANCH   6  24
BRANCH  11  28
HETATM   28  O7  UNL     1       5.739  -2.616  19.956  1.00  0.00    -0.395 OA
ATOM     29  H7  UNL     1       4.980  -2.237  19.530  1.00  0.00     0.210 HD
ENDBRANCH  11  28
TORSDOF 7
ENDMDL