MODEL 3
REMARK VINA RESULT: -8.973876904      1.910      2.688
REMARK  5 active torsions:
REMARK  status: ('A' for Active; 'I' for Inactive)
REMARK    1  A    between atoms: C4_4  and  C5_5
REMARK    2  A    between atoms: C5_5  and  C6_6
REMARK    3  A    between atoms: C6_6  and  C7_7
REMARK    4  A    between atoms: C9_10  and  C10_11
REMARK    5  A    between atoms: C13_14  and  O1_15
ROOT
HETATM    1  C7  UNL     1       7.483  -2.365  27.190  1.00  0.00     0.019 C
HETATM    2  C8  UNL     1       8.328  -2.507  28.339  1.00  0.00     0.095 C
HETATM    3  N1  UNL     1       9.020  -2.628  29.269  1.00  0.00    -0.192 NA
HETATM    4  C9  UNL     1       7.958  -1.894  26.053  1.00  0.00    -0.001 C
ENDROOT
BRANCH   1   5
HETATM    5  C6  UNL     1       6.043  -2.780  27.368  1.00  0.00     0.053 C
BRANCH   5   6
HETATM    6  C5  UNL     1       5.349  -2.917  26.078  1.00  0.00     0.032 C
BRANCH   6   7
HETATM    7  C4  UNL     1       3.904  -2.679  26.133  1.00  0.00    -0.024 C
HETATM    8  C2  UNL     1       2.956  -2.644  25.264  1.00  0.00    -0.091 C
HETATM    9  C1  UNL     1       1.543  -2.347  25.780  1.00  0.00     0.042 C
HETATM   10  C3  UNL     1       3.033  -2.874  23.820  1.00  0.00     0.042 C
ENDBRANCH   6   7
ENDBRANCH   5   6
ENDBRANCH   1   5
BRANCH   4  11
HETATM   11  C10 UNL     1       9.390  -1.499  25.937  1.00  0.00     0.046 C
HETATM   12  C11 UNL     1      10.245  -2.636  25.408  1.00  0.00     0.009 C
HETATM   13  C12 UNL     1      11.662  -2.535  25.855  1.00  0.00     0.054 C
HETATM   14  C22 UNL     1      10.053  -2.904  23.956  1.00  0.00     0.060 C
HETATM   15  C13 UNL     1      12.391  -1.300  25.546  1.00  0.00     0.148 C
HETATM   16  C14 UNL     1      11.741  -0.023  25.983  1.00  0.00     0.083 C
HETATM   17  C16 UNL     1      12.598  -1.037  24.112  1.00  0.00     0.294 C
HETATM   18  C15 UNL     1      10.819   0.260  24.841  1.00  0.00     0.165 C
HETATM   19  O2  UNL     1      11.574  -0.182  23.729  1.00  0.00    -0.311 OA
HETATM   20  C17 UNL     1       9.469  -0.367  24.945  1.00  0.00     0.162 C
HETATM   21  O4  UNL     1       8.912  -0.769  23.772  1.00  0.00    -0.352 OA
HETATM   22  C18 UNL     1       9.401  -1.863  23.159  1.00  0.00     0.275 C
HETATM   23  O5  UNL     1       8.299  -2.468  22.452  1.00  0.00    -0.289 OA
HETATM   24  C19 UNL     1       8.433  -3.841  22.494  1.00  0.00     0.265 C
HETATM   25  O6  UNL     1       7.976  -4.655  21.681  1.00  0.00    -0.265 OA
HETATM   26  C20 UNL     1       9.228  -4.174  23.695  1.00  0.00     0.090 C
HETATM   27  C21 UNL     1      10.097  -5.354  23.377  1.00  0.00     0.021 C
HETATM   28  O3  UNL     1      13.482  -1.453  23.322  1.00  0.00    -0.262 OA
BRANCH  15  29
HETATM   29  O1  UNL     1      13.648  -1.359  26.154  1.00  0.00    -0.379 OA
ATOM     30  H1  UNL     1      13.873  -0.492  26.471  1.00  0.00     0.211 HD
ENDBRANCH  15  29
ENDBRANCH   4  11
TORSDOF 5
ENDMDL