MODEL 1
REMARK VINA RESULT: -7.684325377      0.000      0.000
REMARK  6 active torsions:
REMARK  status: ('A' for Active; 'I' for Inactive)
REMARK    1  A    between atoms: C5_7  and  O3_8
REMARK    2  A    between atoms: O3_8  and  C6_9
REMARK    3  A    between atoms: C6_9  and  C7_11
REMARK    4  A    between atoms: C16_20  and  O5_21
REMARK    5  A    between atoms: O5_21  and  C17_22
REMARK    6  A    between atoms: C19_25  and  O7_26
ROOT
HETATM    1  C1  UNL     1       9.881   0.232  24.248  1.00  0.00     0.025 C
HETATM    2  C2  UNL     1       9.411  -0.907  24.681  1.00  0.00     0.013 C
HETATM    3  C3  UNL     1       9.602  -1.917  23.610  1.00  0.00     0.289 C
HETATM    4  O1  UNL     1      10.137  -1.440  22.551  1.00  0.00    -0.260 OA
HETATM    5  O2  UNL     1       9.336  -3.270  23.482  1.00  0.00    -0.315 OA
HETATM    6  C4  UNL     1       8.296  -4.091  23.928  1.00  0.00     0.211 C
HETATM    7  C5  UNL     1       7.829  -3.596  25.283  1.00  0.00     0.157 C
HETATM    8  C11 UNL     1       9.069  -3.404  26.107  1.00  0.00     0.045 C
HETATM    9  C12 UNL     1       9.111  -2.113  26.871  1.00  0.00    -0.024 C
HETATM   10  C13 UNL     1       7.960  -2.184  27.892  1.00  0.00     0.017 C
HETATM   11  C14 UNL     1       8.847  -0.912  26.018  1.00  0.00     0.035 C
HETATM   12  C15 UNL     1       9.110   0.352  26.809  1.00  0.00     0.045 C
HETATM   13  C16 UNL     1      10.533   0.340  27.260  1.00  0.00     0.162 C
HETATM   14  C19 UNL     1      10.616  -0.743  28.348  1.00  0.00     0.156 C
HETATM   15  C20 UNL     1      10.363  -2.062  27.670  1.00  0.00    -0.011 C
HETATM   16  C21 UNL     1      11.594  -2.446  26.877  1.00  0.00     0.018 C
HETATM   17  C22 UNL     1      10.282  -3.100  28.797  1.00  0.00     0.018 C
ENDROOT
BRANCH   7  18
HETATM   18  O3  UNL     1       6.952  -4.581  25.814  1.00  0.00    -0.310 OA
BRANCH  18  19
HETATM   19  C6  UNL     1       5.590  -4.451  25.635  1.00  0.00     0.289 C
HETATM   20  O4  UNL     1       4.941  -5.442  25.239  1.00  0.00    -0.260 OA
BRANCH  19  21
HETATM   21  C7  UNL     1       4.894  -3.210  25.891  1.00  0.00     0.009 C
HETATM   22  C8  UNL     1       4.691  -2.300  24.702  1.00  0.00     0.054 C
HETATM   23  C9  UNL     1       4.441  -2.844  27.072  1.00  0.00    -0.018 C
HETATM   24  C10 UNL     1       4.585  -3.652  28.290  1.00  0.00     0.036 C
ENDBRANCH  19  21
ENDBRANCH  18  19
ENDBRANCH   7  18
BRANCH  14  25
HETATM   25  O7  UNL     1      11.925  -0.744  28.826  1.00  0.00    -0.392 OA
ATOM     26  H7  UNL     1      11.908  -1.145  29.687  1.00  0.00     0.210 HD
ENDBRANCH  14  25
BRANCH  13  27
HETATM   27  O5  UNL     1      11.000   1.569  27.732  1.00  0.00    -0.314 OA
BRANCH  27  28
HETATM   28  C17 UNL     1      10.960   2.715  26.962  1.00  0.00     0.255 C
HETATM   29  C18 UNL     1      10.069   3.842  27.332  1.00  0.00     0.126 C
HETATM   30  O6  UNL     1      11.709   2.730  25.955  1.00  0.00    -0.266 OA
ENDBRANCH  27  28
ENDBRANCH  13  27
TORSDOF 6
ENDMDL