MODEL 1
REMARK VINA RESULT: -7.244429029      0.000      0.000
REMARK  6 active torsions:
REMARK  status: ('A' for Active; 'I' for Inactive)
REMARK    1  A    between atoms: C2_2  and  C4_4
REMARK    2  A    between atoms: C5_6  and  C7_8
REMARK    3  A    between atoms: C16_20  and  C17_21
REMARK    4  A    between atoms: C17_21  and  O5_22
REMARK    5  A    between atoms: O5_22  and  C18_23
REMARK    6  A    between atoms: C22_28  and  O7_29
ROOT
HETATM    1  C7  UNL     1       9.453  -3.047  26.595  1.00  0.00     0.070 C
HETATM    2  C8  UNL     1       9.644  -4.527  26.372  1.00  0.00     0.028 C
HETATM    3  C9  UNL     1      10.687  -2.266  26.274  1.00  0.00     0.207 C
HETATM    4  O2  UNL     1      10.718  -1.233  25.533  1.00  0.00    -0.288 OA
HETATM    5  C10 UNL     1      11.939  -2.725  26.856  1.00  0.00     0.206 C
HETATM    6  O3  UNL     1      13.021  -2.703  26.256  1.00  0.00    -0.288 OA
HETATM    7  C11 UNL     1      11.841  -3.230  28.245  1.00  0.00     0.048 C
HETATM    8  C12 UNL     1      12.724  -2.268  29.073  1.00  0.00     0.026 C
HETATM    9  C13 UNL     1      12.589  -4.553  28.344  1.00  0.00     0.026 C
HETATM   10  C14 UNL     1      10.516  -3.235  28.813  1.00  0.00     0.151 C
HETATM   11  O4  UNL     1      10.259  -2.098  29.619  1.00  0.00    -0.383 OA
HETATM   12  C15 UNL     1       9.667  -1.432  28.529  1.00  0.00     0.183 C
HETATM   13  C16 UNL     1       9.283  -2.831  28.039  1.00  0.00     0.048 C
ENDROOT
BRANCH   1  14
HETATM   14  C5  UNL     1       8.418  -2.580  25.633  1.00  0.00     0.079 C
HETATM   15  O1  UNL     1       8.901  -2.611  24.314  1.00  0.00    -0.367 OA
HETATM   16  C4  UNL     1       7.857  -2.305  23.484  1.00  0.00     0.179 C
HETATM   17  C22 UNL     1       6.705  -3.030  24.110  1.00  0.00     0.158 C
HETATM   18  C20 UNL     1       7.125  -3.233  25.582  1.00  0.00     0.049 C
HETATM   19  C21 UNL     1       6.778  -4.585  25.921  1.00  0.00     0.016 C
HETATM   20  C6  UNL     1       8.096  -1.067  25.783  1.00  0.00     0.048 C
BRANCH  16  21
HETATM   21  C2  UNL     1       8.050  -2.751  22.098  1.00  0.00    -0.062 C
HETATM   22  C1  UNL     1       8.300  -1.957  21.068  1.00  0.00     0.016 C
HETATM   23  C3  UNL     1       7.960  -4.206  21.801  1.00  0.00     0.045 C
ENDBRANCH  16  21
BRANCH  17  24
HETATM   24  O7  UNL     1       5.491  -2.431  23.961  1.00  0.00    -0.392 OA
ATOM     25  H7  UNL     1       5.098  -2.105  24.762  1.00  0.00     0.210 HD
ENDBRANCH  17  24
ENDBRANCH   1  14
BRANCH  13  26
HETATM   26  C17 UNL     1       8.138  -3.277  28.860  1.00  0.00     0.194 C
BRANCH  26  27
HETATM   27  O5  UNL     1       6.940  -2.533  28.742  1.00  0.00    -0.321 OA
BRANCH  27  28
HETATM   28  C18 UNL     1       5.761  -2.915  29.332  1.00  0.00     0.254 C
HETATM   29  C19 UNL     1       4.585  -3.329  28.532  1.00  0.00     0.126 C
HETATM   30  O6  UNL     1       5.645  -2.925  30.586  1.00  0.00    -0.266 OA
ENDBRANCH  27  28
ENDBRANCH  26  27
ENDBRANCH  13  26
TORSDOF 6
ENDMDL