MODEL 1
REMARK VINA RESULT: -8.360515618      0.000      0.000
REMARK  5 active torsions:
REMARK  status: ('A' for Active; 'I' for Inactive)
REMARK    1  A    between atoms: C3_3  and  C4_4
REMARK    2  A    between atoms: C4_4  and  C5_5
REMARK    3  A    between atoms: C5_5  and  O2_7
REMARK    4  A    between atoms: O2_7  and  C6_8
REMARK    5  A    between atoms: C19_24  and  O6_25
ROOT
HETATM    1  C6  UNL     1       8.522  -3.694  24.709  1.00  0.00     0.167 C
HETATM    2  C7  UNL     1       9.385  -4.940  24.451  1.00  0.00     0.036 C
HETATM    3  C8  UNL     1      10.601  -4.266  23.846  1.00  0.00     0.016 C
HETATM    4  C9  UNL     1      10.850  -3.005  24.690  1.00  0.00     0.001 C
HETATM    5  C10 UNL     1      11.984  -3.313  25.583  1.00  0.00     0.016 C
HETATM    6  C11 UNL     1      12.344  -2.404  26.691  1.00  0.00     0.045 C
HETATM    7  C12 UNL     1      11.715  -2.577  28.002  1.00  0.00     0.128 C
HETATM    8  C13 UNL     1      12.662  -1.990  29.065  1.00  0.00     0.052 C
HETATM    9  O3  UNL     1      11.696  -3.972  28.264  1.00  0.00    -0.224 OA
HETATM   10  O4  UNL     1      10.490  -4.332  28.545  1.00  0.00    -0.204 OA
HETATM   11  C14 UNL     1       9.619  -3.440  27.843  1.00  0.00     0.335 C
HETATM   12  O5  UNL     1       9.765  -3.729  26.578  1.00  0.00    -0.340 OA
HETATM   13  C15 UNL     1       9.562  -2.921  25.521  1.00  0.00     0.103 C
HETATM   14  C16 UNL     1       9.306  -1.496  25.712  1.00  0.00     0.031 C
HETATM   15  C17 UNL     1       8.619  -1.090  26.961  1.00  0.00     0.011 C
HETATM   16  C18 UNL     1       9.735  -0.934  28.014  1.00  0.00     0.047 C
HETATM   17  C19 UNL     1      10.364  -2.186  28.339  1.00  0.00     0.143 C
HETATM   18  C20 UNL     1       8.710  -0.889  24.429  1.00  0.00     0.086 C
HETATM   19  C21 UNL     1       9.774  -1.141  23.415  1.00  0.00     0.128 C
HETATM   20  O7  UNL     1       9.600  -0.785  22.278  1.00  0.00    -0.298 OA
HETATM   21  C22 UNL     1      11.036  -1.820  23.786  1.00  0.00     0.090 C
ENDROOT
BRANCH   1  22
HETATM   22  O2  UNL     1       7.415  -3.972  25.513  1.00  0.00    -0.313 OA
BRANCH  22  23
HETATM   23  C5  UNL     1       6.100  -3.720  25.255  1.00  0.00     0.262 C
HETATM   24  O1  UNL     1       5.524  -4.512  24.476  1.00  0.00    -0.265 OA
BRANCH  23  25
HETATM   25  C4  UNL     1       5.333  -2.581  25.834  1.00  0.00     0.138 C
BRANCH  25  26
HETATM   26  C3  UNL     1       4.829  -2.944  27.186  1.00  0.00    -0.021 C
HETATM   27  C2  UNL     1       5.602  -2.897  28.253  1.00  0.00    -0.034 C
HETATM   28  C1  UNL     1       5.088  -3.261  29.597  1.00  0.00     0.036 C
ENDBRANCH  25  26
ENDBRANCH  23  25
ENDBRANCH  22  23
ENDBRANCH   1  22
BRANCH  17  29
HETATM   29  O6  UNL     1      10.260  -2.332  29.759  1.00  0.00    -0.381 OA
ATOM     30  H6  UNL     1       9.660  -3.054  29.900  1.00  0.00     0.211 HD
ENDBRANCH  17  29
TORSDOF 5
ENDMDL