MODEL 4
REMARK VINA RESULT: -6.977476483      2.010      3.353
REMARK  4 active torsions:
REMARK  status: ('A' for Active; 'I' for Inactive)
REMARK    1  A    between atoms: C3_3  and  C4_4
REMARK    2  A    between atoms: C5_5  and  O1_6
REMARK    3  A    between atoms: C13_17  and  O4_19
REMARK    4  A    between atoms: O4_19  and  C15_20
ROOT
HETATM    1  C4  UNL     1      11.122   0.074  25.746  1.00  0.00     0.049 C
HETATM    2  C5  UNL     1      12.215  -0.709  26.314  1.00  0.00     0.163 C
HETATM    3  C6  UNL     1      12.057  -2.123  26.676  1.00  0.00     0.231 C
HETATM    4  O2  UNL     1      11.349  -2.208  27.899  1.00  0.00    -0.306 OA
HETATM    5  C7  UNL     1      10.340  -1.367  28.319  1.00  0.00     0.260 C
HETATM    6  O3  UNL     1      10.139  -1.505  29.590  1.00  0.00    -0.265 OA
HETATM    7  C8  UNL     1       9.502  -0.400  27.627  1.00  0.00     0.121 C
HETATM    8  C9  UNL     1       9.701  -0.197  26.165  1.00  0.00    -0.019 C
HETATM    9  C10 UNL     1       9.069   1.235  25.967  1.00  0.00     0.017 C
HETATM   10  C11 UNL     1       8.917  -1.007  25.239  1.00  0.00     0.035 C
HETATM   11  C12 UNL     1       7.887  -1.783  26.095  1.00  0.00     0.077 C
HETATM   12  C13 UNL     1       7.356  -2.833  25.131  1.00  0.00     0.171 C
HETATM   13  C14 UNL     1       6.079  -2.411  24.465  1.00  0.00     0.079 C
HETATM   14  O6  UNL     1       8.397  -3.082  24.317  1.00  0.00    -0.343 OA
HETATM   15  C17 UNL     1       9.346  -2.048  24.354  1.00  0.00     0.075 C
HETATM   16  C18 UNL     1       9.265  -1.503  22.902  1.00  0.00     0.047 C
HETATM   17  C19 UNL     1      10.671  -2.696  24.401  1.00  0.00     0.089 C
HETATM   18  C20 UNL     1      10.566  -4.101  23.755  1.00  0.00     0.021 C
HETATM   19  C21 UNL     1      11.274  -2.904  25.694  1.00  0.00     0.165 C
HETATM   20  O7  UNL     1      11.127  -4.044  26.171  1.00  0.00    -0.295 OA
ENDROOT
BRANCH  12  21
HETATM   21  O4  UNL     1       7.057  -4.050  25.833  1.00  0.00    -0.284 OA
BRANCH  21  22
HETATM   22  C15 UNL     1       5.739  -4.332  26.167  1.00  0.00     0.257 C
HETATM   23  C16 UNL     1       5.084  -3.715  27.363  1.00  0.00     0.126 C
HETATM   24  O5  UNL     1       5.084  -5.121  25.455  1.00  0.00    -0.266 OA
ENDBRANCH  21  22
ENDBRANCH  12  21
BRANCH   1  25
HETATM   25  C3  UNL     1      11.492   1.525  25.932  1.00  0.00    -0.023 C
HETATM   26  C2  UNL     1      11.651   2.316  24.892  1.00  0.00    -0.034 C
HETATM   27  C1  UNL     1      11.494   1.908  23.473  1.00  0.00     0.036 C
ENDBRANCH   1  25
BRANCH   2  28
HETATM   28  O1  UNL     1      13.416  -0.459  25.602  1.00  0.00    -0.392 OA
ATOM     29  H1  UNL     1      13.457  -1.005  24.827  1.00  0.00     0.210 HD
ENDBRANCH   2  28
TORSDOF 4
ENDMDL