MODEL 4
REMARK VINA RESULT: -6.991349065      0.980      1.066
REMARK  6 active torsions:
REMARK  status: ('A' for Active; 'I' for Inactive)
REMARK    1  A    between atoms: O1_2  and  C2_3
REMARK    2  A    between atoms: C4_5  and  O2_6
REMARK    3  A    between atoms: C9_13  and  O4_14
REMARK    4  A    between atoms: O4_14  and  C10_15
REMARK    5  A    between atoms: C15_21  and  O6_22
REMARK    6  A    between atoms: O6_22  and  C16_23
ROOT
HETATM    1  C2  UNL     1       3.776  -3.832  25.846  1.00  0.00     0.127 C
HETATM    2  C3  UNL     1       4.089  -3.184  27.170  1.00  0.00     0.064 C
HETATM    3  C4  UNL     1       5.518  -3.204  27.573  1.00  0.00     0.126 C
HETATM    4  C5  UNL     1       6.459  -2.801  26.426  1.00  0.00     0.031 C
HETATM    5  C6  UNL     1       7.867  -2.814  26.872  1.00  0.00     0.011 C
HETATM    6  C7  UNL     1       8.277  -1.734  27.810  1.00  0.00     0.087 C
HETATM    7  C8  UNL     1       9.767  -1.652  27.577  1.00  0.00     0.157 C
HETATM    8  O3  UNL     1      10.582  -0.987  28.191  1.00  0.00    -0.295 OA
HETATM    9  C9  UNL     1      10.122  -2.549  26.422  1.00  0.00     0.209 C
HETATM   10  C12 UNL     1       8.773  -2.545  25.687  1.00  0.00    -0.004 C
HETATM   11  C13 UNL     1       8.607  -1.200  25.082  1.00  0.00     0.019 C
HETATM   12  C14 UNL     1       8.650  -3.682  24.740  1.00  0.00     0.046 C
HETATM   13  C15 UNL     1       7.245  -3.777  24.236  1.00  0.00     0.141 C
HETATM   14  C18 UNL     1       6.210  -3.764  25.320  1.00  0.00    -0.005 C
HETATM   15  C19 UNL     1       6.261  -5.163  25.940  1.00  0.00     0.019 C
HETATM   16  C20 UNL     1       4.836  -3.471  24.795  1.00  0.00     0.022 C
HETATM   17  C21 UNL     1       4.583  -2.054  24.441  1.00  0.00     0.013 C
ENDROOT
BRANCH   9  18
HETATM   18  O4  UNL     1      10.341  -3.828  26.935  1.00  0.00    -0.308 OA
BRANCH  18  19
HETATM   19  C10 UNL     1      11.411  -4.070  27.759  1.00  0.00     0.255 C
HETATM   20  C11 UNL     1      11.274  -4.446  29.203  1.00  0.00     0.126 C
HETATM   21  O5  UNL     1      12.566  -3.973  27.275  1.00  0.00    -0.266 OA
ENDBRANCH  18  19
ENDBRANCH   9  18
BRANCH  13  22
HETATM   22  O6  UNL     1       7.066  -2.844  23.218  1.00  0.00    -0.316 OA
BRANCH  22  23
HETATM   23  C16 UNL     1       7.335  -3.076  21.876  1.00  0.00     0.255 C
HETATM   24  C17 UNL     1       6.570  -4.060  21.076  1.00  0.00     0.126 C
HETATM   25  O7  UNL     1       8.275  -2.395  21.373  1.00  0.00    -0.266 OA
ENDBRANCH  22  23
ENDBRANCH  13  22
BRANCH   3  26
HETATM   26  O2  UNL     1       5.681  -2.189  28.547  1.00  0.00    -0.395 OA
ATOM     27  H2  UNL     1       6.285  -2.529  29.198  1.00  0.00     0.210 HD
ENDBRANCH   3  26
BRANCH   1  28
HETATM   28  O1  UNL     1       2.602  -3.228  25.387  1.00  0.00    -0.390 OA
HETATM   29  C1  UNL     1       1.788  -2.861  26.454  1.00  0.00     0.202 C
ENDBRANCH   1  28
TORSDOF 6
ENDMDL