MODEL 3
REMARK VINA RESULT: -7.527254814      2.493      5.331
REMARK  6 active torsions:
REMARK  status: ('A' for Active; 'I' for Inactive)
REMARK    1  A    between atoms: C2_2  and  O2_4
REMARK    2  A    between atoms: O2_4  and  C3_5
REMARK    3  A    between atoms: C10_12  and  C12_14
REMARK    4  A    between atoms: C12_14  and  O3_15
REMARK    5  A    between atoms: C14_19  and  O5_20
REMARK    6  A    between atoms: O5_20  and  C15_21
ROOT
HETATM    1  C3  UNL     1       5.419  -3.319  24.224  1.00  0.00     0.270 C
HETATM    2  C4  UNL     1       6.781  -2.627  24.374  1.00  0.00     0.067 C
HETATM    3  C5  UNL     1       7.065  -2.507  25.821  1.00  0.00     0.005 C
HETATM    4  C6  UNL     1       5.981  -3.095  26.667  1.00  0.00     0.019 C
HETATM    5  C7  UNL     1       6.237  -2.656  28.103  1.00  0.00     0.008 C
HETATM    6  C8  UNL     1       7.570  -3.257  28.510  1.00  0.00     0.007 C
HETATM    7  C9  UNL     1       8.634  -2.650  27.651  1.00  0.00     0.012 C
HETATM    8  C10 UNL     1       9.983  -2.958  28.197  1.00  0.00     0.045 C
HETATM    9  C11 UNL     1      10.411  -1.806  29.119  1.00  0.00     0.026 C
HETATM   10  C13 UNL     1      10.962  -2.986  27.088  1.00  0.00     0.167 C
HETATM   11  O4  UNL     1      11.895  -3.741  27.116  1.00  0.00    -0.294 OA
HETATM   12  C14 UNL     1      10.710  -2.024  25.952  1.00  0.00     0.203 C
HETATM   13  C17 UNL     1       9.441  -2.433  25.291  1.00  0.00     0.050 C
HETATM   14  C18 UNL     1       8.433  -3.050  26.221  1.00  0.00    -0.032 C
HETATM   15  C19 UNL     1       8.443  -4.532  26.010  1.00  0.00     0.016 C
HETATM   16  C20 UNL     1       4.662  -2.507  26.256  1.00  0.00     0.125 C
HETATM   17  C21 UNL     1       3.581  -3.277  27.022  1.00  0.00     0.040 C
HETATM   18  O7  UNL     1       4.455  -2.565  24.903  1.00  0.00    -0.355 OA
ENDROOT
BRANCH   1  19
HETATM   19  O2  UNL     1       5.014  -3.355  22.867  1.00  0.00    -0.290 OA
BRANCH  19  20
HETATM   20  C2  UNL     1       5.925  -3.268  21.822  1.00  0.00     0.257 C
HETATM   21  C1  UNL     1       6.837  -4.380  21.508  1.00  0.00     0.126 C
HETATM   22  O1  UNL     1       5.989  -2.210  21.109  1.00  0.00    -0.266 OA
ENDBRANCH  19  20
ENDBRANCH   1  19
BRANCH   8  23
HETATM   23  C12 UNL     1      10.042  -4.209  29.029  1.00  0.00     0.181 C
BRANCH  23  24
HETATM   24  O3  UNL     1      11.034  -3.990  30.012  1.00  0.00    -0.400 OA
ATOM     25  H3  UNL     1      10.574  -3.801  30.822  1.00  0.00     0.209 HD
ENDBRANCH  23  24
ENDBRANCH   8  23
BRANCH  12  26
HETATM   26  O5  UNL     1      11.840  -2.061  25.138  1.00  0.00    -0.309 OA
BRANCH  26  27
HETATM   27  C15 UNL     1      12.340  -0.926  24.538  1.00  0.00     0.255 C
HETATM   28  C16 UNL     1      12.042   0.390  25.120  1.00  0.00     0.126 C
HETATM   29  O6  UNL     1      13.036  -1.103  23.507  1.00  0.00    -0.266 OA
ENDBRANCH  26  27
ENDBRANCH  12  26
TORSDOF 6
ENDMDL