MODEL 2
REMARK VINA RESULT: -8.861914833      0.638      1.448
REMARK  3 active torsions:
REMARK  status: ('A' for Active; 'I' for Inactive)
REMARK    1  A    between atoms: C3_4  and  N1_5
REMARK    2  A    between atoms: N1_5  and  C4_7
REMARK    3  A    between atoms: C4_7  and  C5_8
ROOT
HETATM    1  N1  UNL     1      34.100   4.137  25.325  1.00  0.00    -0.387 N
ATOM      2  H1  UNL     1      33.536   3.948  24.497  1.00  0.00     0.159 HD
ENDROOT
BRANCH   1   3
HETATM    3  C3  UNL     1      34.655   5.404  25.433  1.00  0.00     0.073 A
HETATM    4  C2  UNL     1      35.252   5.868  26.573  1.00  0.00     0.078 A
HETATM    5  C1  UNL     1      35.753   7.179  26.620  1.00  0.00     0.160 A
HETATM    6  F1  UNL     1      36.340   7.617  27.754  1.00  0.00    -0.203 F
HETATM    7  C15 UNL     1      35.656   8.019  25.533  1.00  0.00     0.196 A
HETATM    8  C14 UNL     1      35.055   7.544  24.401  1.00  0.00     0.198 A
HETATM    9  F4  UNL     1      36.142   9.284  25.585  1.00  0.00    -0.199 F
HETATM   10  C13 UNL     1      34.577   6.278  24.366  1.00  0.00     0.184 A
HETATM   11  F3  UNL     1      34.956   8.369  23.326  1.00  0.00    -0.199 F
HETATM   12  F2  UNL     1      33.987   5.855  23.207  1.00  0.00    -0.200 F
ENDBRANCH   1   3
BRANCH   1  13
HETATM   13  C4  UNL     1      34.245   3.082  26.258  1.00  0.00     0.130 C
BRANCH  13  14
HETATM   14  C5  UNL     1      34.989   1.909  25.714  1.00  0.00    -0.020 C
HETATM   15  C6  UNL     1      35.194   1.951  24.196  1.00  0.00     0.016 C
HETATM   16  C7  UNL     1      35.095   0.512  23.819  1.00  0.00    -0.013 C
HETATM   17  C8  UNL     1      36.143  -0.245  24.585  1.00  0.00     0.010 C
HETATM   18  C12 UNL     1      33.841   0.116  24.617  1.00  0.00     0.010 C
HETATM   19  C9  UNL     1      35.701  -0.029  26.013  1.00  0.00    -0.009 C
HETATM   20  C10 UNL     1      36.154   1.364  26.475  1.00  0.00     0.016 C
HETATM   21  C11 UNL     1      34.316   0.566  25.960  1.00  0.00     0.000 C
ENDBRANCH  13  14
ENDBRANCH   1  13
TORSDOF 3
ENDMDL