MODEL 1
REMARK VINA RESULT: -8.415191943      0.000      0.000
REMARK  3 active torsions:
REMARK  status: ('A' for Active; 'I' for Inactive)
REMARK    1  A    between atoms: C5_8  and  N1_9
REMARK    2  A    between atoms: N1_9  and  C6_11
REMARK    3  A    between atoms: C6_11  and  C7_12
ROOT
HETATM    1  F1  UNL     1      33.428   8.351  23.170  1.00  0.00    -0.203 F
HETATM    2  C1  UNL     1      34.132   7.496  23.961  1.00  0.00     0.160 A
HETATM    3  C2  UNL     1      34.875   8.017  24.982  1.00  0.00     0.091 A
HETATM    4  C3  UNL     1      35.592   7.146  25.787  1.00  0.00     0.160 A
HETATM    5  F2  UNL     1      36.318   7.703  26.788  1.00  0.00    -0.203 F
HETATM    6  C4  UNL     1      35.553   5.804  25.559  1.00  0.00     0.184 A
HETATM    7  F3  UNL     1      36.268   4.983  26.368  1.00  0.00    -0.200 F
HETATM    8  C5  UNL     1      34.816   5.235  24.540  1.00  0.00     0.112 A
HETATM    9  C14 UNL     1      34.100   6.145  23.743  1.00  0.00     0.184 A
HETATM   10  F4  UNL     1      33.351   5.684  22.722  1.00  0.00    -0.200 F
ENDROOT
BRANCH   8  11
HETATM   11  N1  UNL     1      34.813   3.853  24.261  1.00  0.00    -0.384 N
ATOM     12  H1  UNL     1      35.262   3.589  23.383  1.00  0.00     0.159 HD
BRANCH  11  13
HETATM   13  C6  UNL     1      34.283   2.768  25.014  1.00  0.00     0.125 C
BRANCH  13  14
HETATM   14  C7  UNL     1      35.291   2.000  25.761  1.00  0.00     0.008 C
HETATM   15  C8  UNL     1      34.605   1.205  26.917  1.00  0.00     0.011 C
HETATM   16  C9  UNL     1      35.360  -0.076  27.056  1.00  0.00    -0.014 C
HETATM   17  C10 UNL     1      34.713  -1.057  26.098  1.00  0.00     0.005 C
HETATM   18  C13 UNL     1      36.634   0.200  26.254  1.00  0.00     0.010 C
HETATM   19  C11 UNL     1      34.876  -0.296  24.794  1.00  0.00     0.005 C
HETATM   20  C12 UNL     1      35.891   0.811  25.043  1.00  0.00    -0.009 C
ENDBRANCH  13  14
ENDBRANCH  11  13
ENDBRANCH   8  11
TORSDOF 3
ENDMDL