MODEL 1
REMARK VINA RESULT: -8.878095495      0.000      0.000
REMARK  3 active torsions:
REMARK  status: ('A' for Active; 'I' for Inactive)
REMARK    1  A    between atoms: C1_2  and  C2_4
REMARK    2  A    between atoms: C5_7  and  N1_8
REMARK    3  A    between atoms: N1_8  and  C6_10
ROOT
HETATM    1  N1  UNL     1      34.594   4.369  24.248  1.00  0.00    -0.413 N
ATOM      2  H1  UNL     1      34.846   4.517  23.271  1.00  0.00     0.154 HD
ENDROOT
BRANCH   1   3
HETATM    3  C5  UNL     1      34.243   3.071  24.762  1.00  0.00     0.077 C
HETATM    4  C4  UNL     1      35.000   1.972  24.036  1.00  0.00     0.025 C
HETATM    5  C3  UNL     1      35.700   1.024  25.005  1.00  0.00     0.012 C
HETATM    6  C2  UNL     1      34.707   0.509  26.019  1.00  0.00     0.051 C
HETATM    7  C14 UNL     1      34.310   1.693  26.870  1.00  0.00     0.012 C
HETATM    8  C13 UNL     1      34.586   3.023  26.229  1.00  0.00     0.025 C
BRANCH   6   9
HETATM    9  C1  UNL     1      35.338  -0.583  26.832  1.00  0.00     0.357 C
HETATM   10  F1  UNL     1      36.693  -0.663  26.581  1.00  0.00    -0.214 F
HETATM   11  F2  UNL     1      34.816  -1.830  26.545  1.00  0.00    -0.214 F
ENDBRANCH   6   9
ENDBRANCH   1   3
BRANCH   1  12
HETATM   12  C6  UNL     1      34.566   5.434  25.195  1.00  0.00     0.078 C
HETATM   13  C7  UNL     1      35.896   5.758  25.882  1.00  0.00     0.040 C
HETATM   14  C8  UNL     1      35.673   7.171  25.479  1.00  0.00     0.029 C
HETATM   15  C9  UNL     1      36.767   7.998  24.950  1.00  0.00     0.021 C
HETATM   16  C11 UNL     1      35.403   8.180  26.535  1.00  0.00     0.251 C
HETATM   17  C12 UNL     1      34.565   6.790  24.546  1.00  0.00     0.040 C
HETATM   18  C10 UNL     1      36.128   9.209  25.653  1.00  0.00     0.081 C
HETATM   19  F3  UNL     1      36.191   7.982  27.672  1.00  0.00    -0.205 F
HETATM   20  F4  UNL     1      34.113   8.484  26.832  1.00  0.00    -0.205 F
ENDBRANCH   1  12
TORSDOF 3
ENDMDL