MODEL 1
REMARK VINA RESULT: -3.768332609      0.000      0.000
REMARK  3 active torsions:
REMARK  status: ('A' for Active; 'I' for Inactive)
REMARK    1  A    between atoms: C2_2  and  C3_3
REMARK    2  A    between atoms: C3_3  and  C4_4
REMARK    3  A    between atoms: C4_4  and  C5_5
ROOT
HETATM    1  C4  UNL     1      33.011  10.610  28.026  1.00  0.00     0.183 C
HETATM    2  N1  UNL     1      33.222  11.754  27.157  1.00  0.00    -0.058 N
ATOM      3  H11 UNL     1      32.504  11.834  26.437  1.00  0.00     0.278 HD
ATOM      4  H12 UNL     1      34.026  11.633  26.541  1.00  0.00     0.278 HD
HETATM    5  C7  UNL     1      33.321  12.923  27.960  1.00  0.00     0.257 C
HETATM    6  C8  UNL     1      32.574  12.604  29.236  1.00  0.00     0.149 C
HETATM    7 CL2  UNL     1      33.309  13.553  30.543  1.00  0.00    -0.120 Cl
HETATM    8  C9  UNL     1      32.909  11.113  29.386  1.00  0.00     0.168 C
HETATM    9 CL3  UNL     1      31.800  10.389  30.491  1.00  0.00    -0.097 Cl
HETATM   10 CL4  UNL     1      34.529  11.104  30.181  1.00  0.00    -0.097 Cl
ENDROOT
BRANCH   1  11
HETATM   11  C3  UNL     1      31.906   9.800  27.461  1.00  0.00     0.073 C
BRANCH  11  12
HETATM   12  C2  UNL     1      30.871  10.524  26.726  1.00  0.00    -0.034 C
HETATM   13  C1  UNL     1      29.693  10.824  27.255  1.00  0.00     0.007 C
ENDBRANCH  11  12
ENDBRANCH   1  11
BRANCH   1  14
HETATM   14  C5  UNL     1      34.262   9.769  27.918  1.00  0.00     0.027 C
HETATM   15  C6  UNL     1      34.243   8.618  27.258  1.00  0.00     0.083 C
HETATM   16 CL1  UNL     1      35.664   7.612  27.106  1.00  0.00    -0.097 Cl
ENDBRANCH   1  14
TORSDOF 3
ENDMDL