MODEL 4
REMARK VINA RESULT: -5.057664726      4.362      6.258
REMARK  3 active torsions:
REMARK  status: ('A' for Active; 'I' for Inactive)
REMARK    1  A    between atoms: C6_10  and  C7_11
REMARK    2  A    between atoms: C7_11  and  C8_12
REMARK    3  A    between atoms: C8_12  and  C9_13
ROOT
HETATM    1  F1  UNL     1      32.048   9.046  26.092  1.00  0.00    -0.204 F
HETATM    2  C1  UNL     1      32.091   9.665  27.308  1.00  0.00     0.146 A
HETATM    3  C2  UNL     1      30.831   9.950  27.820  1.00  0.00     0.074 A
HETATM    4 CL1  UNL     1      29.345   9.570  26.934  1.00  0.00    -0.081 Cl
HETATM    5  C3  UNL     1      30.742  10.536  29.052  1.00  0.00     0.052 A
HETATM    6  C4  UNL     1      31.908  10.825  29.751  1.00  0.00     0.058 A
HETATM    7 CL2  UNL     1      31.799  11.582  31.327  1.00  0.00    -0.082 Cl
HETATM    8  C5  UNL     1      33.144  10.542  29.241  1.00  0.00     0.065 A
HETATM    9 CL3  UNL     1      34.585  10.930  30.176  1.00  0.00    -0.082 Cl
HETATM   10  C6  UNL     1      33.244   9.940  27.971  1.00  0.00     0.006 A
ENDROOT
BRANCH  10  11
HETATM   11  C7  UNL     1      34.575   9.707  27.443  1.00  0.00     0.045 C
BRANCH  11  12
HETATM   12  C8  UNL     1      35.251   8.432  27.676  1.00  0.00     0.037 C
BRANCH  12  13
HETATM   13  C9  UNL     1      35.545   7.456  26.630  1.00  0.00     0.187 C
HETATM   14  C10 UNL     1      35.699   7.920  25.202  1.00  0.00     0.060 C
HETATM   15  C11 UNL     1      34.634   6.913  24.773  1.00  0.00     0.235 C
HETATM   16  N1  UNL     1      34.298   6.796  26.182  1.00  0.00    -0.071 N
ATOM     17  H12 UNL     1      34.076   5.872  26.554  1.00  0.00     0.277 HD
ATOM     18  H11 UNL     1      33.406   7.173  26.503  1.00  0.00     0.277 HD
ENDBRANCH  12  13
ENDBRANCH  11  12
ENDBRANCH  10  11
TORSDOF 3
ENDMDL