MODEL 1
REMARK VINA RESULT: -5.704151461      0.000      0.000
REMARK  3 active torsions:
REMARK  status: ('A' for Active; 'I' for Inactive)
REMARK    1  A    between atoms: C2_2  and  C3_3
REMARK    2  A    between atoms: C3_3  and  C4_4
REMARK    3  A    between atoms: C4_4  and  C5_5
ROOT
HETATM    1  C5  UNL     1      35.754   6.153  25.390  1.00  0.00     0.129 C
HETATM    2  N1  UNL     1      36.548   7.043  26.270  1.00  0.00    -0.348 N
ATOM      3  H1  UNL     1      37.566   7.094  26.235  1.00  0.00     0.163 HD
HETATM    4  C6  UNL     1      35.766   7.819  27.167  1.00  0.00     0.265 C
HETATM    5  O1  UNL     1      36.252   8.167  28.278  1.00  0.00    -0.267 OA
HETATM    6  C7  UNL     1      34.394   8.208  26.777  1.00  0.00     0.122 C
HETATM    7 CL1  UNL     1      33.406   9.160  27.858  1.00  0.00    -0.077 Cl
HETATM    8  C8  UNL     1      33.938   7.828  25.615  1.00  0.00     0.079 C
HETATM    9 CL2  UNL     1      32.338   8.263  25.132  1.00  0.00    -0.084 Cl
HETATM   10  C9  UNL     1      34.792   7.054  24.699  1.00  0.00     0.172 C
HETATM   11 CL3  UNL     1      33.813   6.307  23.453  1.00  0.00    -0.093 Cl
HETATM   12 CL4  UNL     1      35.823   8.337  23.903  1.00  0.00    -0.093 Cl
ENDROOT
BRANCH   1  13
HETATM   13  C4  UNL     1      35.203   5.091  26.264  1.00  0.00     0.029 C
BRANCH  13  14
HETATM   14  C3  UNL     1      35.022   3.740  25.664  1.00  0.00     0.002 C
BRANCH  14  15
HETATM   15  C2  UNL     1      34.600   2.707  26.700  1.00  0.00    -0.004 C
HETATM   16  C1  UNL     1      35.369   1.434  26.581  1.00  0.00     0.005 C
ENDBRANCH  14  15
ENDBRANCH  13  14
ENDBRANCH   1  13
TORSDOF 3
ENDMDL