MODEL 1
REMARK VINA RESULT: -4.037570401      0.000      0.000
REMARK  3 active torsions:
REMARK  status: ('A' for Active; 'I' for Inactive)
REMARK    1  A    between atoms: C2_2  and  C3_3
REMARK    2  A    between atoms: C3_3  and  C4_4
REMARK    3  A    between atoms: C7_13  and  N2_14
ROOT
HETATM    1  C3  UNL     1      31.486  10.436  28.094  1.00  0.00     0.052 C
HETATM    2  C5  UNL     1      31.719  11.733  28.772  1.00  0.00     0.085 C
HETATM    3  C6  UNL     1      33.145  12.069  28.364  1.00  0.00     0.188 C
HETATM    4 CL3  UNL     1      34.164  12.433  29.767  1.00  0.00    -0.078 Cl
HETATM    5 CL4  UNL     1      33.204  13.428  27.233  1.00  0.00    -0.078 Cl
HETATM    6  N1  UNL     1      33.671  10.904  27.718  1.00  0.00    -0.344 N
ATOM      7  H1  UNL     1      34.642  10.816  27.422  1.00  0.00     0.164 HD
HETATM    8  C7  UNL     1      32.795   9.987  27.551  1.00  0.00     0.086 C
ENDROOT
BRANCH   1   9
HETATM    9  C2  UNL     1      30.821   9.386  28.930  1.00  0.00     0.015 C
HETATM   10  C1  UNL     1      30.733   9.665  30.372  1.00  0.00     0.006 C
ENDBRANCH   1   9
BRANCH   1  11
HETATM   11  C4  UNL     1      30.587  10.687  26.891  1.00  0.00     0.194 C
HETATM   12 CL1  UNL     1      29.650  12.166  27.273  1.00  0.00    -0.107 Cl
HETATM   13 CL2  UNL     1      29.465   9.307  26.809  1.00  0.00    -0.107 Cl
ENDBRANCH   1  11
BRANCH   8  14
HETATM   14  N2  UNL     1      33.081   8.740  26.933  1.00  0.00    -0.384 N
HETATM   15  C8  UNL     1      34.452   8.290  26.877  1.00  0.00     0.147 C
ATOM     16  H2  UNL     1      32.331   8.173  26.537  1.00  0.00     0.160 HD
ENDBRANCH   8  14
TORSDOF 3
ENDMDL