MODEL 2
REMARK VINA RESULT: -4.503611164      2.633      3.667
REMARK  2 active torsions:
REMARK  status: ('A' for Active; 'I' for Inactive)
REMARK    1  A    between atoms: C1_2  and  C2_4
REMARK    2  A    between atoms: C2_4  and  C3_5
ROOT
HETATM    1  C3  UNL     1      29.444  11.070  26.861  1.00  0.00     0.045 C
HETATM    2  C4  UNL     1      29.481  12.030  25.765  1.00  0.00     0.054 C
HETATM    3 CL1  UNL     1      28.177  12.555  24.732  1.00  0.00    -0.085 Cl
HETATM    4  C5  UNL     1      30.683  12.614  25.572  1.00  0.00     0.118 C
HETATM    5 CL2  UNL     1      30.829  13.764  24.281  1.00  0.00    -0.063 Cl
HETATM    6  N1  UNL     1      31.768  12.290  26.469  1.00  0.00    -0.374 N
ATOM      7  H1  UNL     1      32.715  12.101  26.140  1.00  0.00     0.161 HD
HETATM    8  C6  UNL     1      31.408  12.257  27.869  1.00  0.00     0.091 C
HETATM    9  C7  UNL     1      32.339  11.461  28.730  1.00  0.00     0.009 C
HETATM   10  C8  UNL     1      32.385  10.021  28.337  1.00  0.00     0.007 C
HETATM   11  C9  UNL     1      31.025   9.462  28.747  1.00  0.00     0.005 C
HETATM   12  C10 UNL     1      30.265  10.680  29.197  1.00  0.00    -0.007 C
HETATM   13  C11 UNL     1      31.415  11.369  29.966  1.00  0.00     0.011 C
HETATM   14  C12 UNL     1      30.035  11.695  28.099  1.00  0.00     0.022 C
ENDROOT
BRANCH   1  15
HETATM   15  C2  UNL     1      28.218  10.322  27.127  1.00  0.00     0.082 C
BRANCH  15  16
HETATM   16  C1  UNL     1      27.907   9.083  26.406  1.00  0.00     0.353 C
HETATM   17  F1  UNL     1      28.863   8.209  26.072  1.00  0.00    -0.214 F
HETATM   18  F2  UNL     1      27.327   9.483  25.174  1.00  0.00    -0.214 F
ENDBRANCH  15  16
ENDBRANCH   1  15
TORSDOF 2
ENDMDL