MODEL 5
REMARK VINA RESULT: -7.948180977      2.205      9.268
REMARK  13 active torsions:
REMARK  status: ('A' for Active; 'I' for Inactive)
REMARK    1  A    between atoms: C2_2  and  O1_3
REMARK    2  A    between atoms: O1_3  and  C3_4
REMARK    3  A    between atoms: C5_6  and  N1_7
REMARK    4  A    between atoms: C11_14  and  N2_15
REMARK    5  A    between atoms: C12_17  and  C13_19
REMARK    6  A    between atoms: C13_19  and  C14_20
REMARK    7  A    between atoms: C14_20  and  N3_21
REMARK    8  A    between atoms: C16_24  and  C17_25
REMARK       I    between atoms: C17_25  and  N4_27
REMARK    9  A    between atoms: N4_27  and  C18_28
REMARK   10  A    between atoms: C20_30  and  C21_31
REMARK   11  A    between atoms: N6_37  and  C25_38
REMARK   12  A    between atoms: C25_38  and  C26_39
REMARK   13  A    between atoms: C26_39  and  O4_40
ROOT
HETATM    1  C3  UNL     1      22.150  30.503  13.462  1.00  0.00     0.090 A
HETATM    2  C4  UNL     1      22.811  29.302  13.388  1.00  0.00     0.067 A
HETATM    3  C5  UNL     1      22.101  28.155  13.006  1.00  0.00     0.035 A
HETATM    4  C10 UNL     1      20.730  28.229  12.743  1.00  0.00     0.060 A
HETATM    5  C11 UNL     1      20.036  29.436  12.816  1.00  0.00     0.054 A
HETATM    6  C16 UNL     1      20.781  30.490  13.153  1.00  0.00     0.106 A
ENDROOT
BRANCH   6   7
HETATM    7  C17 UNL     1      20.032  31.813  13.173  1.00  0.00     0.333 C
HETATM    8  O3  UNL     1      19.770  32.375  12.060  1.00  0.00    -0.251 OA
HETATM    9  N4  UNL     1      19.775  32.289  14.395  1.00  0.00    -0.346 NA
BRANCH   9  10
HETATM   10  C18 UNL     1      19.492  32.692  15.462  1.00  0.00     0.201 A
HETATM   11  C19 UNL     1      20.105  33.837  16.085  1.00  0.00     0.092 A
HETATM   12  C20 UNL     1      19.703  34.009  17.369  1.00  0.00     0.038 A
HETATM   13  N5  UNL     1      18.839  32.971  17.575  1.00  0.00    -0.299 N
HETATM   14  N6  UNL     1      18.726  32.206  16.454  1.00  0.00    -0.263 N
ATOM     15  H5  UNL     1      18.346  32.793  18.450  1.00  0.00     0.187 HD
BRANCH  12  16
HETATM   16  C21 UNL     1      20.061  35.135  18.281  1.00  0.00    -0.007 C
HETATM   17  C22 UNL     1      21.420  34.954  18.876  1.00  0.00     0.021 C
HETATM   18  C23 UNL     1      18.995  35.119  19.368  1.00  0.00     0.021 C
HETATM   19  C24 UNL     1      19.944  36.409  17.513  1.00  0.00     0.021 C
ENDBRANCH  12  16
BRANCH  14  20
HETATM   20  C25 UNL     1      17.757  31.123  16.344  1.00  0.00     0.178 C
BRANCH  20  21
HETATM   21  C26 UNL     1      16.419  31.577  15.958  1.00  0.00     0.189 C
BRANCH  21  22
HETATM   22  O4  UNL     1      16.093  32.685  16.723  1.00  0.00    -0.394 OA
HETATM   23  C27 UNL     1      15.693  33.803  16.061  1.00  0.00     0.201 C
ENDBRANCH  21  22
ENDBRANCH  20  21
ENDBRANCH  14  20
ENDBRANCH   9  10
ENDBRANCH   6   7
BRANCH   1  24
HETATM   24  O1  UNL     1      22.762  31.659  13.834  1.00  0.00    -0.350 OA
BRANCH  24  25
HETATM   25  C2  UNL     1      23.168  31.970  15.116  1.00  0.00     0.171 C
HETATM   26  C1  UNL     1      23.560  33.108  15.878  1.00  0.00     0.034 C
ENDBRANCH  24  25
ENDBRANCH   1  24
BRANCH   5  27
HETATM   27  N2  UNL     1      18.636  29.541  12.689  1.00  0.00    -0.350 N
HETATM   28  C12 UNL     1      17.607  28.761  12.265  1.00  0.00     0.079 C
HETATM   29  S1  UNL     1      16.041  29.465  12.561  1.00  0.00    -0.065 SA
ATOM     30  H2  UNL     1      18.304  30.454  13.000  1.00  0.00     0.166 HD
BRANCH  28  31
HETATM   31  C13 UNL     1      17.403  27.416  11.667  1.00  0.00     0.088 C
BRANCH  31  32
HETATM   32  C14 UNL     1      17.524  26.327  12.803  1.00  0.00     0.120 C
BRANCH  32  33
HETATM   33  N3  UNL     1      18.481  25.422  12.260  1.00  0.00    -0.425 N
HETATM   34  C15 UNL     1      18.538  25.287  10.814  1.00  0.00     0.139 C
ATOM     35  H3  UNL     1      19.104  24.887  12.865  1.00  0.00     0.152 HD
ENDBRANCH  32  33
ENDBRANCH  31  32
ENDBRANCH  28  31
ENDBRANCH   5  27
BRANCH   3  36
HETATM   36  N1  UNL     1      22.866  27.018  12.525  1.00  0.00    -0.377 N
HETATM   37  C6  UNL     1      24.227  26.913  12.269  1.00  0.00     0.149 C
HETATM   38  C7  UNL     1      24.428  25.570  11.520  1.00  0.00     0.187 C
HETATM   39  O2  UNL     1      23.647  25.543  10.395  1.00  0.00    -0.388 OA
HETATM   40  C8  UNL     1      22.289  25.674  10.685  1.00  0.00     0.187 C
HETATM   41  C9  UNL     1      22.036  25.842  12.161  1.00  0.00     0.149 C
ENDBRANCH   3  36
TORSDOF 13
ENDMDL