MODEL 2
REMARK VINA RESULT: -8.272620460      2.758      6.687
REMARK  14 active torsions:
REMARK  status: ('A' for Active; 'I' for Inactive)
REMARK       I    between atoms: N1_2  and  C3_4
REMARK    1  A    between atoms: C3_4  and  C4_6
REMARK    2  A    between atoms: C4_6  and  C5_7
REMARK    3  A    between atoms: C5_7  and  C6_8
REMARK    4  A    between atoms: C6_8  and  C7_9
REMARK    5  A    between atoms: C7_9  and  C8_10
REMARK    6  A    between atoms: C8_10  and  O2_11
REMARK    7  A    between atoms: C8_10  and  N2_13
REMARK    8  A    between atoms: N2_13  and  C9_15
REMARK    9  A    between atoms: C11_17  and  C12_18
REMARK       I    between atoms: C12_18  and  N3_20
REMARK   10  A    between atoms: N3_20  and  C13_21
REMARK   11  A    between atoms: C13_21  and  C14_22
REMARK   12  A    between atoms: C16_26  and  C17_27
REMARK   13  A    between atoms: C17_27  and  C18_28
REMARK       I    between atoms: C18_28  and  N5_30
REMARK   14  A    between atoms: C23_37  and  C24_38
ROOT
HETATM    1  C9  UNL     1      19.438  30.988  16.452  1.00  0.00     0.049 A
HETATM    2  C10 UNL     1      18.085  31.024  16.459  1.00  0.00     0.056 A
HETATM    3  C11 UNL     1      17.479  32.224  16.464  1.00  0.00     0.089 A
HETATM    4  S1  UNL     1      18.776  33.320  16.460  1.00  0.00    -0.085 SA
HETATM    5  C23 UNL     1      20.110  32.179  16.445  1.00  0.00     0.018 A
ENDROOT
BRANCH   3   6
HETATM    6  C12 UNL     1      16.025  32.590  16.450  1.00  0.00     0.328 C
HETATM    7  O3  UNL     1      15.277  31.781  15.794  1.00  0.00    -0.251 OA
HETATM    8  N3  UNL     1      15.569  33.709  17.098  1.00  0.00    -0.406 NA
BRANCH   8   9
HETATM    9  C13 UNL     1      15.091  34.820  17.739  1.00  0.00     0.262 C
BRANCH   9  10
HETATM   10  C14 UNL     1      16.236  35.823  17.967  1.00  0.00    -0.011 A
HETATM   11  C15 UNL     1      17.094  35.728  19.019  1.00  0.00     0.098 A
HETATM   12  N4  UNL     1      18.082  36.586  19.270  1.00  0.00    -0.367 N
HETATM   13  C16 UNL     1      18.303  37.668  18.441  1.00  0.00     0.042 A
ATOM     14  H4  UNL     1      18.681  36.442  20.083  1.00  0.00     0.165 HD
HETATM   15  C21 UNL     1      17.462  37.795  17.375  1.00  0.00     0.070 A
HETATM   16  N6  UNL     1      17.619  38.899  16.500  1.00  0.00    -0.100 NA
HETATM   17  C22 UNL     1      16.406  36.875  17.111  1.00  0.00     0.039 A
BRANCH  13  18
HETATM   18  C17 UNL     1      19.403  38.607  18.765  1.00  0.00     0.161 C
BRANCH  18  19
HETATM   19  C18 UNL     1      20.746  37.950  18.835  1.00  0.00     0.224 C
HETATM   20  O4  UNL     1      21.013  37.206  19.767  1.00  0.00    -0.273 OA
HETATM   21  N5  UNL     1      21.643  38.250  17.792  1.00  0.00    -0.361 N
HETATM   22  C19 UNL     1      21.239  39.140  16.734  1.00  0.00     0.152 C
HETATM   23  C20 UNL     1      22.966  37.685  17.787  1.00  0.00     0.152 C
ENDBRANCH  18  19
ENDBRANCH  13  18
ENDBRANCH   9  10
ENDBRANCH   8   9
ENDBRANCH   3   6
BRANCH   1  24
HETATM   24  N2  UNL     1      20.128  29.720  16.648  1.00  0.00    -0.340 N
ATOM     25  H2  UNL     1      20.563  29.531  17.552  1.00  0.00     0.167 HD
BRANCH  24  26
HETATM   26  C8  UNL     1      20.213  28.767  15.659  1.00  0.00     0.115 C
BRANCH  26  27
HETATM   27  C7  UNL     1      21.246  28.561  14.667  1.00  0.00     0.084 C
BRANCH  27  28
HETATM   28  C6  UNL     1      20.794  29.266  13.331  1.00  0.00     0.008 C
BRANCH  28  29
HETATM   29  C5  UNL     1      21.907  28.982  12.355  1.00  0.00     0.010 C
BRANCH  29  30
HETATM   30  C4  UNL     1      22.814  27.864  12.585  1.00  0.00     0.103 C
BRANCH  30  31
HETATM   31  C3  UNL     1      22.528  26.588  11.860  1.00  0.00     0.218 C
HETATM   32  N1  UNL     1      23.619  25.805  11.365  1.00  0.00    -0.361 N
HETATM   33  C1  UNL     1      23.351  24.588  10.662  1.00  0.00     0.152 C
HETATM   34  C2  UNL     1      25.015  26.211  11.566  1.00  0.00     0.152 C
HETATM   35  O1  UNL     1      21.375  26.165  11.658  1.00  0.00    -0.273 OA
ENDBRANCH  30  31
ENDBRANCH  29  30
ENDBRANCH  28  29
ENDBRANCH  27  28
ENDBRANCH  26  27
BRANCH  26  36
HETATM   36  O2  UNL     1      19.221  27.902  15.556  1.00  0.00    -0.349 OA
ATOM     37  H2  UNL     1      19.083  27.603  14.664  1.00  0.00     0.219 HD
ENDBRANCH  26  36
ENDBRANCH  24  26
ENDBRANCH   1  24
BRANCH   5  38
HETATM   38  C24 UNL     1      21.544  32.534  16.288  1.00  0.00    -0.015 C
HETATM   39  C25 UNL     1      22.513  32.268  17.344  1.00  0.00     0.020 C
HETATM   40  C26 UNL     1      22.060  32.174  14.899  1.00  0.00     0.020 C
HETATM   41  C27 UNL     1      21.490  34.116  16.198  1.00  0.00     0.020 C
ENDBRANCH   5  38
TORSDOF 14
ENDMDL