MODEL 5
REMARK VINA RESULT: -8.729258197      2.274     11.696
REMARK  15 active torsions:
REMARK  status: ('A' for Active; 'I' for Inactive)
REMARK    1  A    between atoms: C4_6  and  C5_7
REMARK    2  A    between atoms: C6_8  and  C7_9
REMARK    3  A    between atoms: C9_11  and  O1_12
REMARK    4  A    between atoms: C11_15  and  N2_16
REMARK    5  A    between atoms: C20_26  and  O2_27
REMARK    6  A    between atoms: C23_31  and  O3_32
REMARK    7  A    between atoms: O3_32  and  C24_33
REMARK    8  A    between atoms: C24_33  and  C25_34
REMARK    9  A    between atoms: C25_34  and  O4_35
REMARK   10  A    between atoms: O4_35  and  C26_36
REMARK   11  A    between atoms: C26_36  and  C27_37
REMARK   12  A    between atoms: C27_37  and  O5_38
REMARK   13  A    between atoms: O5_38  and  C28_39
REMARK   14  A    between atoms: C28_39  and  C29_40
REMARK   15  A    between atoms: C29_40  and  N4_41
ROOT
HETATM    1  C1  UNL     1      16.759  30.767  14.874  1.00  0.00     0.046 C
HETATM    2  C2  UNL     1      17.793  31.570  15.067  1.00  0.00     0.057 A
HETATM    3  N1  UNL     1      19.102  31.240  14.646  1.00  0.00    -0.353 N
ATOM      4  H1  UNL     1      19.281  30.354  14.172  1.00  0.00     0.166 HD
HETATM    5  C3  UNL     1      20.176  32.157  14.888  1.00  0.00     0.065 A
HETATM    6  C4  UNL     1      21.443  31.754  14.436  1.00  0.00     0.045 A
HETATM    7  C18 UNL     1      22.467  32.642  14.673  1.00  0.00     0.026 A
HETATM    8  C19 UNL     1      22.281  33.835  15.303  1.00  0.00     0.039 A
HETATM    9  C20 UNL     1      21.011  34.218  15.744  1.00  0.00     0.078 A
HETATM   10  C21 UNL     1      19.957  33.356  15.525  1.00  0.00     0.028 A
HETATM   11  C22 UNL     1      18.605  33.681  15.953  1.00  0.00     0.055 A
HETATM   12  C23 UNL     1      17.600  32.860  15.745  1.00  0.00     0.095 A
ENDROOT
BRANCH   6  13
HETATM   13  C5  UNL     1      21.621  30.497  13.767  1.00  0.00    -0.059 C
HETATM   14  C6  UNL     1      21.796  29.425  13.212  1.00  0.00    -0.061 C
BRANCH  14  15
HETATM   15  C7  UNL     1      22.030  28.157  12.571  1.00  0.00     0.022 A
HETATM   16  C8  UNL     1      23.216  27.469  12.734  1.00  0.00     0.057 A
HETATM   17  C9  UNL     1      23.452  26.261  12.120  1.00  0.00     0.069 A
HETATM   18  C10 UNL     1      22.442  25.733  11.307  1.00  0.00     0.065 A
HETATM   19  C11 UNL     1      21.243  26.375  11.110  1.00  0.00     0.034 A
HETATM   20  C17 UNL     1      21.068  27.599  11.764  1.00  0.00     0.050 A
BRANCH  17  21
HETATM   21  O1  UNL     1      24.636  25.595  12.296  1.00  0.00    -0.361 OA
ATOM     22  H1  UNL     1      24.654  24.663  12.481  1.00  0.00     0.217 HD
ENDBRANCH  17  21
BRANCH  19  23
HETATM   23  N2  UNL     1      20.235  25.820  10.300  1.00  0.00    -0.371 N
HETATM   24  C12 UNL     1      19.026  26.508   9.955  1.00  0.00     0.168 C
HETATM   25  C13 UNL     1      17.820  25.604   9.928  1.00  0.00     0.082 C
HETATM   26  N3  UNL     1      18.007  24.327  10.465  1.00  0.00    -0.375 N
HETATM   27  C14 UNL     1      17.144  23.870  11.486  1.00  0.00     0.154 C
HETATM   28  C15 UNL     1      19.225  23.670  10.297  1.00  0.00     0.082 C
HETATM   29  C16 UNL     1      20.386  24.483   9.778  1.00  0.00     0.168 C
ENDBRANCH  19  23
ENDBRANCH  14  15
ENDBRANCH   6  13
BRANCH   9  30
HETATM   30  O2  UNL     1      20.849  35.438  16.382  1.00  0.00    -0.360 OA
ATOM     31  H2  UNL     1      20.051  35.609  16.868  1.00  0.00     0.217 HD
ENDBRANCH   9  30
BRANCH  12  32
HETATM   32  O3  UNL     1      16.293  33.177  16.158  1.00  0.00    -0.347 OA
BRANCH  32  33
HETATM   33  C24 UNL     1      15.897  34.372  16.721  1.00  0.00     0.201 C
BRANCH  33  34
HETATM   34  C25 UNL     1      15.195  34.247  18.066  1.00  0.00     0.194 C
BRANCH  34  35
HETATM   35  O4  UNL     1      16.092  34.636  19.026  1.00  0.00    -0.387 OA
BRANCH  35  36
HETATM   36  C26 UNL     1      16.776  35.767  18.650  1.00  0.00     0.193 C
BRANCH  36  37
HETATM   37  C27 UNL     1      18.213  35.684  19.057  1.00  0.00     0.193 C
BRANCH  37  38
HETATM   38  O5  UNL     1      19.047  36.532  18.334  1.00  0.00    -0.387 OA
BRANCH  38  39
HETATM   39  C28 UNL     1      19.451  37.649  19.022  1.00  0.00     0.198 C
BRANCH  39  40
HETATM   40  C29 UNL     1      18.846  38.934  18.540  1.00  0.00     0.297 C
BRANCH  40  41
HETATM   41  N4  UNL     1      18.494  38.949  17.151  1.00  0.00     0.082 N
HETATM   42  C30 UNL     1      19.232  39.888  16.361  1.00  0.00     0.309 C
HETATM   43  C31 UNL     1      17.050  39.201  17.089  1.00  0.00     0.309 C
ENDBRANCH  40  41
ENDBRANCH  39  40
ENDBRANCH  38  39
ENDBRANCH  37  38
ENDBRANCH  36  37
ENDBRANCH  35  36
ENDBRANCH  34  35
ENDBRANCH  33  34
ENDBRANCH  32  33
ENDBRANCH  12  32
TORSDOF 15
ENDMDL