MODEL 4
REMARK VINA RESULT: -8.527459316      2.583      8.168
REMARK  12 active torsions:
REMARK  status: ('A' for Active; 'I' for Inactive)
REMARK    1  A    between atoms: C3_4  and  C4_5
REMARK    2  A    between atoms: C4_5  and  C5_6
REMARK    3  A    between atoms: C5_6  and  C6_7
REMARK    4  A    between atoms: C6_7  and  C7_8
REMARK    5  A    between atoms: C7_8  and  C8_9
REMARK       I    between atoms: N4_15  and  C10_17
REMARK    6  A    between atoms: C10_17  and  C11_19
REMARK    7  A    between atoms: C11_19  and  N5_20
REMARK    8  A    between atoms: N5_20  and  C13_22
REMARK    9  A    between atoms: C15_29  and  N8_30
REMARK   10  A    between atoms: N8_30  and  C16_31
REMARK   11  A    between atoms: C19_34  and  C20_35
REMARK   12  A    between atoms: C20_35  and  C21_36
ROOT
HETATM    1  C1  UNL     1      20.120  31.823  12.464  1.00  0.00     0.037 C
HETATM    2  C2  UNL     1      19.208  31.655  13.256  1.00  0.00     0.011 C
HETATM    3  N1  UNL     1      18.172  31.462  14.164  1.00  0.00    -0.216 N
HETATM    4  C3  UNL     1      17.796  32.335  15.109  1.00  0.00     0.114 A
HETATM    5  N6  UNL     1      16.790  31.767  15.750  1.00  0.00    -0.284 N
ATOM      6  H6  UNL     1      16.288  32.188  16.531  1.00  0.00     0.188 HD
HETATM    7  N7  UNL     1      16.523  30.570  15.236  1.00  0.00    -0.257 N
ATOM      8  H7  UNL     1      15.789  29.939  15.557  1.00  0.00     0.191 HD
HETATM    9  C15 UNL     1      17.392  30.321  14.208  1.00  0.00     0.290 A
ENDROOT
BRANCH   4  10
HETATM   10  C4  UNL     1      18.454  33.684  15.278  1.00  0.00     0.079 C
BRANCH  10  11
HETATM   11  C5  UNL     1      19.243  33.761  16.570  1.00  0.00     0.008 C
BRANCH  11  12
HETATM   12  C6  UNL     1      20.592  33.184  16.288  1.00  0.00     0.007 C
BRANCH  12  13
HETATM   13  C7  UNL     1      21.084  32.041  17.020  1.00  0.00     0.066 C
BRANCH  13  14
HETATM   14  C8  UNL     1      20.842  30.721  16.398  1.00  0.00     0.069 A
HETATM   15  N2  UNL     1      20.168  29.656  16.763  1.00  0.00    -0.296 N
HETATM   16  N3  UNL     1      20.168  28.594  16.054  1.00  0.00    -0.279 N
ATOM     17  H2  UNL     1      19.633  29.677  17.631  1.00  0.00     0.187 HD
HETATM   18  C9  UNL     1      20.870  28.585  14.925  1.00  0.00     0.168 A
ATOM     19  H3  UNL     1      19.641  27.771  16.347  1.00  0.00     0.189 HD
HETATM   20  N4  UNL     1      21.054  27.603  14.045  1.00  0.00    -0.301 N
HETATM   21  S1  UNL     1      21.536  30.149  14.895  1.00  0.00    -0.038 SA
HETATM   22  C10 UNL     1      21.857  27.866  12.910  1.00  0.00     0.262 C
ATOM     23  H4  UNL     1      20.627  26.687  14.184  1.00  0.00     0.171 HD
HETATM   24  O1  UNL     1      21.275  28.577  12.009  1.00  0.00    -0.267 OA
BRANCH  22  25
HETATM   25  C11 UNL     1      23.216  27.461  12.619  1.00  0.00     0.160 C
BRANCH  25  26
HETATM   26  N5  UNL     1      23.505  26.194  12.085  1.00  0.00    -0.390 N
HETATM   27  C12 UNL     1      24.801  26.040  11.510  1.00  0.00     0.149 C
BRANCH  26  28
HETATM   28  C13 UNL     1      22.455  25.486  11.450  1.00  0.00     0.117 C
HETATM   29  C14 UNL     1      22.901  24.503  10.373  1.00  0.00     0.026 C
ENDBRANCH  26  28
ENDBRANCH  25  26
ENDBRANCH  22  25
ENDBRANCH  13  14
ENDBRANCH  12  13
ENDBRANCH  11  12
ENDBRANCH  10  11
ENDBRANCH   4  10
BRANCH   9  30
HETATM   30  N8  UNL     1      17.515  29.368  13.536  1.00  0.00    -0.369 NA
BRANCH  30  31
HETATM   31  C16 UNL     1      17.656  28.278  12.790  1.00  0.00     0.111 A
HETATM   32  C17 UNL     1      17.582  26.980  13.354  1.00  0.00     0.045 A
HETATM   33  C18 UNL     1      17.701  25.861  12.597  1.00  0.00     0.011 A
HETATM   34  C19 UNL     1      17.906  25.940  11.210  1.00  0.00    -0.052 A
HETATM   35  C26 UNL     1      17.983  27.172  10.624  1.00  0.00    -0.052 A
HETATM   36  C27 UNL     1      18.140  27.369   9.166  1.00  0.00     0.049 C
HETATM   37  C28 UNL     1      17.860  28.285  11.405  1.00  0.00     0.052 A
BRANCH  34  38
HETATM   38  C20 UNL     1      18.062  24.687  10.494  1.00  0.00     0.043 C
BRANCH  38  39
HETATM   39  C21 UNL     1      16.868  24.008   9.943  1.00  0.00    -0.007 C
HETATM   40  C22 UNL     1      16.871  23.568   8.534  1.00  0.00     0.032 C
HETATM   41  C23 UNL     1      15.507  22.988   8.178  1.00  0.00     0.232 C
HETATM   42  N9  UNL     1      14.584  23.110   9.258  1.00  0.00    -0.075 N
HETATM   43  C24 UNL     1      15.048  22.451  10.467  1.00  0.00     0.232 C
ATOM     44  H92 UNL     1      14.357  24.088   9.438  1.00  0.00     0.277 HD
ATOM     45  H91 UNL     1      13.659  22.773   8.989  1.00  0.00     0.277 HD
HETATM   46  C25 UNL     1      16.462  22.806  10.805  1.00  0.00     0.032 C
ENDBRANCH  38  39
ENDBRANCH  34  38
ENDBRANCH  30  31
ENDBRANCH   9  30
TORSDOF 12
ENDMDL