MODEL 4
REMARK VINA RESULT: -9.540720449      3.092      7.817
REMARK  12 active torsions:
REMARK  status: ('A' for Active; 'I' for Inactive)
REMARK    1  A    between atoms: C2_2  and  N1_3
REMARK    2  A    between atoms: C3_4  and  C4_5
REMARK    3  A    between atoms: C4_5  and  C5_6
REMARK    4  A    between atoms: C5_6  and  C6_7
REMARK    5  A    between atoms: C6_7  and  C7_8
REMARK    6  A    between atoms: C7_8  and  C8_9
REMARK       I    between atoms: N4_15  and  C10_17
REMARK    7  A    between atoms: C10_17  and  C11_19
REMARK    8  A    between atoms: C16_31  and  N8_32
REMARK       I    between atoms: N8_32  and  C17_34
REMARK    9  A    between atoms: C17_34  and  C18_36
REMARK   10  A    between atoms: C18_36  and  C19_37
REMARK   11  A    between atoms: C22_40  and  O3_41
REMARK   12  A    between atoms: C24_43  and  O4_44
ROOT
HETATM    1  N1  UNL     1      18.734  31.903  15.569  1.00  0.00    -0.170 N
HETATM    2  C3  UNL     1      19.662  32.113  16.514  1.00  0.00     0.115 A
HETATM    3  N6  UNL     1      20.016  30.914  16.981  1.00  0.00    -0.274 N
ATOM      4  H6  UNL     1      20.708  30.743  17.712  1.00  0.00     0.189 HD
HETATM    5  N7  UNL     1      19.325  29.981  16.342  1.00  0.00    -0.130 N
ATOM      6  H7  UNL     1      19.395  28.975  16.500  1.00  0.00     0.205 HD
HETATM    7  C16 UNL     1      18.526  30.573  15.464  1.00  0.00     0.703 A
ENDROOT
BRANCH   2   8
HETATM    8  C4  UNL     1      20.199  33.420  16.961  1.00  0.00     0.079 C
BRANCH   8   9
HETATM    9  C5  UNL     1      21.682  33.371  17.170  1.00  0.00     0.008 C
BRANCH   9  10
HETATM   10  C6  UNL     1      22.363  33.414  15.827  1.00  0.00     0.007 C
BRANCH  10  11
HETATM   11  C7  UNL     1      23.149  32.193  15.493  1.00  0.00     0.066 C
BRANCH  11  12
HETATM   12  C8  UNL     1      22.498  31.420  14.379  1.00  0.00     0.069 A
HETATM   13  N2  UNL     1      21.871  31.917  13.329  1.00  0.00    -0.296 N
HETATM   14  N3  UNL     1      21.363  31.145  12.455  1.00  0.00    -0.279 N
ATOM     15  H2  UNL     1      21.793  32.928  13.218  1.00  0.00     0.187 HD
HETATM   16  C9  UNL     1      21.482  29.821  12.628  1.00  0.00     0.168 A
ATOM     17  H3  UNL     1      20.877  31.524  11.643  1.00  0.00     0.189 HD
HETATM   18  N4  UNL     1      21.030  28.868  11.846  1.00  0.00    -0.301 N
HETATM   19  S1  UNL     1      22.352  29.742  14.096  1.00  0.00    -0.038 SA
HETATM   20  C10 UNL     1      21.284  27.528  12.248  1.00  0.00     0.274 C
ATOM     21  H4  UNL     1      20.519  29.079  10.989  1.00  0.00     0.171 HD
HETATM   22  O1  UNL     1      20.768  27.099  13.307  1.00  0.00    -0.266 OA
BRANCH  20  23
HETATM   23  C11 UNL     1      22.126  26.630  11.473  1.00  0.00     0.106 A
HETATM   24  N5  UNL     1      21.748  25.783  10.487  1.00  0.00    -0.361 N
HETATM   25  C12 UNL     1      22.815  25.123  10.018  1.00  0.00     0.089 A
ATOM     26  H5  UNL     1      20.793  25.665  10.150  1.00  0.00     0.165 HD
HETATM   27  C13 UNL     1      23.953  25.544  10.718  1.00  0.00     0.026 A
HETATM   28  C14 UNL     1      23.496  26.484  11.620  1.00  0.00    -0.028 A
HETATM   29  C15 UNL     1      24.386  27.206  12.585  1.00  0.00     0.050 C
ENDBRANCH  20  23
ENDBRANCH  11  12
ENDBRANCH  10  11
ENDBRANCH   9  10
ENDBRANCH   8   9
ENDBRANCH   2   8
BRANCH   1  30
HETATM   30  C2  UNL     1      18.098  32.970  14.820  1.00  0.00     0.144 C
HETATM   31  C1  UNL     1      16.838  33.365  15.538  1.00  0.00     0.027 C
ENDBRANCH   1  30
BRANCH   7  32
HETATM   32  N8  UNL     1      17.699  30.052  14.651  1.00  0.00    -0.158 N
HETATM   33  C17 UNL     1      17.750  29.965  13.267  1.00  0.00     0.240 C
HETATM   34  O2  UNL     1      18.630  30.526  12.577  1.00  0.00    -0.272 OA
ATOM     35  H8  UNL     1      16.873  29.635  15.080  1.00  0.00     0.187 HD
BRANCH  33  36
HETATM   36  C18 UNL     1      16.708  29.168  12.562  1.00  0.00     0.142 C
BRANCH  36  37
HETATM   37  C19 UNL     1      17.281  27.918  11.999  1.00  0.00    -0.047 A
HETATM   38  C20 UNL     1      17.274  26.757  12.744  1.00  0.00     0.010 A
HETATM   39  C21 UNL     1      17.808  25.605  12.209  1.00  0.00     0.040 A
HETATM   40  C22 UNL     1      18.360  25.554  10.947  1.00  0.00     0.101 A
HETATM   41  C24 UNL     1      18.370  26.716  10.196  1.00  0.00     0.102 A
HETATM   42  C26 UNL     1      17.834  27.865  10.734  1.00  0.00     0.047 A
BRANCH  40  43
HETATM   43  O3  UNL     1      18.896  24.389  10.417  1.00  0.00    -0.353 OA
HETATM   44  C23 UNL     1      19.065  23.286  11.286  1.00  0.00     0.210 C
ENDBRANCH  40  43
BRANCH  41  45
HETATM   45  O4  UNL     1      18.927  26.655   8.925  1.00  0.00    -0.353 OA
HETATM   46  C25 UNL     1      18.196  26.942   7.755  1.00  0.00     0.210 C
ENDBRANCH  41  45
ENDBRANCH  36  37
ENDBRANCH  33  36
ENDBRANCH   7  32
TORSDOF 12
ENDMDL