MODEL 5
REMARK VINA RESULT: -8.351165653      2.169      4.893
REMARK  12 active torsions:
REMARK  status: ('A' for Active; 'I' for Inactive)
REMARK    1  A    between atoms: O1_2  and  C2_3
REMARK    2  A    between atoms: C4_5  and  C5_6
REMARK    3  A    between atoms: C6_9  and  N2_10
REMARK    4  A    between atoms: N2_10  and  C7_12
REMARK    5  A    between atoms: C7_12  and  C8_13
REMARK    6  A    between atoms: C8_13  and  N3_14
REMARK    7  A    between atoms: C14_23  and  C15_24
REMARK    8  A    between atoms: C15_24  and  C16_25
REMARK    9  A    between atoms: C23_38  and  O3_39
REMARK   10  A    between atoms: O3_39  and  C24_40
REMARK   11  A    between atoms: C24_40  and  C25_41
REMARK   12  A    between atoms: C25_41  and  N8_42
ROOT
HETATM    1  C5  UNL     1      20.186  29.877  14.703  1.00  0.00     0.088 A
HETATM    2  N1  UNL     1      20.989  30.392  15.632  1.00  0.00    -0.189 N
ATOM      3  H1  UNL     1      21.976  30.138  15.615  1.00  0.00     0.184 HD
HETATM    4  C6  UNL     1      20.563  31.228  16.587  1.00  0.00     0.679 A
HETATM    5  N4  UNL     1      19.236  31.532  16.560  1.00  0.00    -0.189 N
ATOM      6  H4  UNL     1      18.875  32.167  17.274  1.00  0.00     0.184 HD
HETATM    7  C13 UNL     1      18.378  31.051  15.658  1.00  0.00     0.086 A
HETATM    8  C14 UNL     1      17.023  31.207  15.424  1.00  0.00    -0.007 A
HETATM    9  C19 UNL     1      16.654  30.470  14.328  1.00  0.00     0.098 A
HETATM   10  N7  UNL     1      17.787  29.862  13.899  1.00  0.00    -0.362 N
ATOM     11  H7  UNL     1      17.837  29.239  13.093  1.00  0.00     0.165 HD
HETATM   12  C20 UNL     1      18.835  30.187  14.673  1.00  0.00     0.088 A
ENDROOT
BRANCH   1  13
HETATM   13  C4  UNL     1      20.687  28.923  13.695  1.00  0.00    -0.004 A
HETATM   14  C3  UNL     1      19.877  28.580  12.642  1.00  0.00     0.053 A
HETATM   15  C2  UNL     1      20.331  27.694  11.699  1.00  0.00     0.102 A
HETATM   16  C23 UNL     1      21.588  27.120  11.761  1.00  0.00     0.102 A
HETATM   17  C22 UNL     1      22.368  27.488  12.829  1.00  0.00     0.040 A
HETATM   18  C21 UNL     1      21.942  28.388  13.810  1.00  0.00     0.017 A
BRANCH  15  19
HETATM   19  O1  UNL     1      19.483  27.360  10.628  1.00  0.00    -0.353 OA
HETATM   20  C1  UNL     1      18.120  27.730  10.666  1.00  0.00     0.210 C
ENDBRANCH  15  19
BRANCH  16  21
HETATM   21  O3  UNL     1      21.944  26.244  10.771  1.00  0.00    -0.343 OA
BRANCH  21  22
HETATM   22  C24 UNL     1      21.826  24.869  10.934  1.00  0.00     0.220 C
BRANCH  22  23
HETATM   23  C25 UNL     1      20.888  24.182  10.011  1.00  0.00     0.084 C
BRANCH  23  24
HETATM   24  N8  UNL     1      19.647  23.758  10.489  1.00  0.00    -0.391 N
HETATM   25  C26 UNL     1      18.468  24.090   9.781  1.00  0.00     0.122 C
HETATM   26  C27 UNL     1      17.305  23.915  10.729  1.00  0.00     0.021 C
HETATM   27  C28 UNL     1      17.925  23.401  11.989  1.00  0.00     0.021 C
HETATM   28  C29 UNL     1      19.380  23.888  11.895  1.00  0.00     0.122 C
ENDBRANCH  23  24
ENDBRANCH  22  23
ENDBRANCH  21  22
ENDBRANCH  16  21
ENDBRANCH   1  13
BRANCH   4  29
HETATM   29  N2  UNL     1      21.337  31.707  17.454  1.00  0.00    -0.221 N
ATOM     30  H2  UNL     1      20.959  31.730  18.401  1.00  0.00     0.178 HD
BRANCH  29  31
HETATM   31  C7  UNL     1      22.665  32.226  17.319  1.00  0.00     0.182 C
BRANCH  31  32
HETATM   32  C8  UNL     1      22.554  33.442  16.421  1.00  0.00     0.078 C
BRANCH  32  33
HETATM   33  N3  UNL     1      22.342  34.678  17.041  1.00  0.00    -0.388 N
HETATM   34  C9  UNL     1      21.310  35.528  16.577  1.00  0.00     0.148 C
HETATM   35  C10 UNL     1      19.995  35.070  17.212  1.00  0.00     0.187 C
HETATM   36  O2  UNL     1      20.183  34.671  18.512  1.00  0.00    -0.388 OA
HETATM   37  C11 UNL     1      21.308  35.162  19.132  1.00  0.00     0.187 C
HETATM   38  C12 UNL     1      22.591  34.752  18.438  1.00  0.00     0.148 C
ENDBRANCH  32  33
ENDBRANCH  31  32
ENDBRANCH  29  31
ENDBRANCH   4  29
BRANCH   8  39
HETATM   39  C15 UNL     1      16.144  32.041  16.295  1.00  0.00     0.101 C
BRANCH  39  40
HETATM   40  C16 UNL     1      16.396  33.488  16.047  1.00  0.00     0.029 A
HETATM   41  C17 UNL     1      16.972  34.095  14.968  1.00  0.00     0.114 A
HETATM   42  N5  UNL     1      16.964  35.410  15.167  1.00  0.00    -0.360 N
HETATM   43  C18 UNL     1      16.384  35.627  16.369  1.00  0.00     0.180 A
ATOM     44  H5  UNL     1      17.327  36.121  14.533  1.00  0.00     0.166 HD
HETATM   45  N6  UNL     1      16.040  34.447  16.901  1.00  0.00    -0.354 N
ATOM     46  H6  UNL     1      15.585  34.307  17.804  1.00  0.00     0.166 HD
ENDBRANCH  39  40
ENDBRANCH   8  39
TORSDOF 12
ENDMDL