MODEL 1
REMARK VINA RESULT: -8.226940889      0.000      0.000
REMARK  14 active torsions:
REMARK  status: ('A' for Active; 'I' for Inactive)
REMARK    1  A    between atoms: C2_2  and  C3_3
REMARK       I    between atoms: C3_3  and  N1_5
REMARK    2  A    between atoms: N2_8  and  C6_9
REMARK    3  A    between atoms: C8_11  and  O2_12
REMARK    4  A    between atoms: O2_12  and  C9_13
REMARK    5  A    between atoms: C11_15  and  N3_16
REMARK    6  A    between atoms: N3_16  and  C12_18
REMARK    7  A    between atoms: C14_22  and  C15_23
REMARK    8  A    between atoms: C16_26  and  N5_27
REMARK    9  A    between atoms: N5_27  and  C17_29
REMARK   10  A    between atoms: C22_36  and  O5_37
REMARK   11  A    between atoms: O5_37  and  C23_38
REMARK   12  A    between atoms: C23_38  and  C24_39
REMARK   13  A    between atoms: C24_39  and  C25_40
REMARK   14  A    between atoms: C25_40  and  O6_41
ROOT
HETATM    1  C6  UNL     1      18.572  30.623  13.888  1.00  0.00     0.035 A
HETATM    2  C7  UNL     1      19.883  31.019  13.692  1.00  0.00     0.068 A
HETATM    3  C8  UNL     1      20.381  32.228  14.134  1.00  0.00     0.101 A
HETATM    4  C11 UNL     1      19.528  33.114  14.818  1.00  0.00     0.116 A
HETATM    5  C22 UNL     1      18.222  32.751  15.027  1.00  0.00     0.101 A
HETATM    6  C26 UNL     1      17.760  31.526  14.567  1.00  0.00     0.068 A
ENDROOT
BRANCH   4   7
HETATM    7  N3  UNL     1      20.060  34.341  15.259  1.00  0.00    -0.186 N
ATOM      8  H3  UNL     1      20.216  35.057  14.550  1.00  0.00     0.184 HD
BRANCH   7   9
HETATM    9  C12 UNL     1      20.362  34.643  16.452  1.00  0.00     0.684 A
HETATM   10  N4  UNL     1      21.501  34.166  16.977  1.00  0.00    -0.200 N
HETATM   11  C13 UNL     1      21.898  34.435  18.230  1.00  0.00     0.128 A
ATOM     12  H4  UNL     1      22.093  33.571  16.397  1.00  0.00     0.183 HD
HETATM   13  C14 UNL     1      21.095  35.235  19.007  1.00  0.00     0.100 A
HETATM   14  C16 UNL     1      19.914  35.748  18.509  1.00  0.00     0.135 A
HETATM   15  N6  UNL     1      19.603  35.422  17.242  1.00  0.00    -0.176 N
ATOM     16  H6  UNL     1      18.734  35.790  16.856  1.00  0.00     0.186 HD
BRANCH  13  17
HETATM   17  C15 UNL     1      21.510  35.535  20.368  1.00  0.00     0.214 C
HETATM   18  O3  UNL     1      21.246  34.760  21.316  1.00  0.00    -0.644 OA
HETATM   19  O4  UNL     1      22.210  36.702  20.604  1.00  0.00    -0.644 OA
ENDBRANCH  13  17
BRANCH  14  20
HETATM   20  N5  UNL     1      19.228  36.480  19.290  1.00  0.00    -0.370 N
ATOM     21  H5  UNL     1      18.989  36.063  20.190  1.00  0.00     0.161 HD
BRANCH  20  22
HETATM   22  C17 UNL     1      18.748  37.805  19.076  1.00  0.00     0.083 C
HETATM   23  C18 UNL     1      19.756  38.639  18.290  1.00  0.00     0.025 C
HETATM   24  C19 UNL     1      18.908  39.801  17.825  1.00  0.00     0.002 C
HETATM   25  C20 UNL     1      17.675  39.063  17.307  1.00  0.00     0.002 C
HETATM   26  C21 UNL     1      17.524  37.863  18.197  1.00  0.00     0.025 C
ENDBRANCH  20  22
ENDBRANCH  14  20
ENDBRANCH   7   9
ENDBRANCH   4   7
BRANCH   3  27
HETATM   27  O2  UNL     1      21.670  32.668  13.969  1.00  0.00    -0.349 OA
BRANCH  27  28
HETATM   28  C9  UNL     1      22.783  31.941  14.393  1.00  0.00     0.171 C
HETATM   29  C10 UNL     1      23.971  32.778  14.759  1.00  0.00     0.034 C
ENDBRANCH  27  28
ENDBRANCH   3  27
BRANCH   5  30
HETATM   30  O5  UNL     1      17.356  33.600  15.698  1.00  0.00    -0.349 OA
BRANCH  30  31
HETATM   31  C23 UNL     1      16.261  33.104  16.465  1.00  0.00     0.178 C
BRANCH  31  32
HETATM   32  C24 UNL     1      15.398  34.238  16.919  1.00  0.00     0.053 C
BRANCH  32  33
HETATM   33  C25 UNL     1      15.606  34.620  18.346  1.00  0.00     0.166 C
BRANCH  33  34
HETATM   34  O6  UNL     1      16.967  34.423  18.657  1.00  0.00    -0.401 OA
ATOM     35  H6  UNL     1      17.017  33.838  19.404  1.00  0.00     0.209 HD
ENDBRANCH  33  34
ENDBRANCH  32  33
ENDBRANCH  31  32
ENDBRANCH  30  31
ENDBRANCH   5  30
BRANCH   1  36
HETATM   36  N2  UNL     1      18.071  29.366  13.440  1.00  0.00    -0.378 N
HETATM   37  C5  UNL     1      17.086  29.234  12.366  1.00  0.00     0.143 C
HETATM   38  C4  UNL     1      17.787  28.437  11.254  1.00  0.00     0.146 C
HETATM   39  N1  UNL     1      18.060  27.114  11.836  1.00  0.00    -0.346 N
HETATM   40  C3  UNL     1      17.472  25.971  11.281  1.00  0.00     0.242 C
HETATM   41  C28 UNL     1      18.939  27.105  12.964  1.00  0.00     0.146 C
HETATM   42  O1  UNL     1      16.697  26.100  10.265  1.00  0.00    -0.268 OA
HETATM   43  C27 UNL     1      18.483  28.107  14.028  1.00  0.00     0.143 C
BRANCH  40  44
HETATM   44  C2  UNL     1      17.723  24.653  11.834  1.00  0.00     0.064 C
HETATM   45  C1  UNL     1      16.960  23.644  11.464  1.00  0.00     0.017 C
ENDBRANCH  40  44
ENDBRANCH   1  36
TORSDOF 14
ENDMDL