MODEL 1
REMARK VINA RESULT: -8.454575684      0.000      0.000
REMARK  12 active torsions:
REMARK  status: ('A' for Active; 'I' for Inactive)
REMARK    1  A    between atoms: C4_6  and  C5_7
REMARK    2  A    between atoms: C5_7  and  N2_8
REMARK    3  A    between atoms: N2_8  and  C6_9
REMARK       I    between atoms: N2_8  and  C10_14
REMARK    4  A    between atoms: C6_9  and  C7_10
REMARK    5  A    between atoms: C7_10  and  N3_11
REMARK       I    between atoms: C10_14  and  N4_16
REMARK    6  A    between atoms: N4_16  and  C11_18
REMARK    7  A    between atoms: C12_23  and  S1_24
REMARK    8  A    between atoms: S1_24  and  C13_25
REMARK    9  A    between atoms: C13_25  and  C14_26
REMARK   10  A    between atoms: C14_26  and  C15_27
REMARK   11  A    between atoms: C15_27  and  C16_28
REMARK       I    between atoms: N9_34  and  C18_36
REMARK   12  A    between atoms: C18_36  and  C19_38
ROOT
HETATM    1  C11 UNL     1      21.846  32.660  16.117  1.00  0.00     0.169 A
HETATM    2  N5  UNL     1      21.184  33.653  15.521  1.00  0.00    -0.278 N
ATOM      3  H5  UNL     1      20.454  33.454  14.837  1.00  0.00     0.189 HD
HETATM    4  N6  UNL     1      21.479  34.845  15.820  1.00  0.00    -0.286 N
ATOM      5  H6  UNL     1      20.975  35.608  15.368  1.00  0.00     0.188 HD
HETATM    6  C12 UNL     1      22.414  35.131  16.697  1.00  0.00     0.130 A
HETATM    7  S3  UNL     1      22.918  33.513  17.133  1.00  0.00    -0.026 SA
ENDROOT
BRANCH   1   8
HETATM    8  N4  UNL     1      21.682  31.368  15.936  1.00  0.00    -0.287 N
HETATM    9  C10 UNL     1      21.624  30.900  14.580  1.00  0.00     0.324 C
HETATM   10  N2  UNL     1      20.771  29.844  14.188  1.00  0.00    -0.327 N
HETATM   11  O1  UNL     1      22.358  31.452  13.723  1.00  0.00    -0.247 OA
ATOM     12  H4  UNL     1      21.601  30.727  16.725  1.00  0.00     0.172 HD
BRANCH  10  13
HETATM   13  C5  UNL     1      20.744  29.404  12.820  1.00  0.00     0.184 C
BRANCH  13  14
HETATM   14  C4  UNL     1      21.489  28.155  12.573  1.00  0.00     0.027 A
HETATM   15  N1  UNL     1      21.006  26.892  12.486  1.00  0.00    -0.367 N
HETATM   16  C3  UNL     1      21.987  26.015  12.242  1.00  0.00     0.095 A
ATOM     17  H1  UNL     1      20.022  26.642  12.592  1.00  0.00     0.165 HD
HETATM   18  C2  UNL     1      23.182  26.711  12.162  1.00  0.00    -0.045 A
HETATM   19  C1  UNL     1      24.505  26.109  11.905  1.00  0.00     0.049 C
HETATM   20  C22 UNL     1      22.860  28.017  12.366  1.00  0.00     0.034 A
ENDBRANCH  13  14
ENDBRANCH  10  13
BRANCH  10  21
HETATM   21  C6  UNL     1      19.917  29.228  15.166  1.00  0.00     0.158 C
BRANCH  21  22
HETATM   22  C7  UNL     1      18.453  29.385  14.925  1.00  0.00     0.291 C
BRANCH  22  23
HETATM   23  N3  UNL     1      17.986  30.728  15.262  1.00  0.00     0.081 N
HETATM   24  C8  UNL     1      18.319  31.089  16.606  1.00  0.00     0.309 C
HETATM   25  C9  UNL     1      16.551  30.803  15.060  1.00  0.00     0.309 C
ENDBRANCH  22  23
ENDBRANCH  21  22
ENDBRANCH  10  21
ENDBRANCH   1   8
BRANCH   6  26
HETATM   26  S1  UNL     1      23.057  36.664  17.329  1.00  0.00    -0.103 SA
BRANCH  26  27
HETATM   27  C13 UNL     1      22.986  36.760  19.085  1.00  0.00     0.082 C
BRANCH  27  28
HETATM   28  C14 UNL     1      22.513  35.621  19.887  1.00  0.00     0.017 C
BRANCH  28  29
HETATM   29  C15 UNL     1      21.198  35.668  20.551  1.00  0.00     0.067 C
BRANCH  29  30
HETATM   30  C16 UNL     1      20.160  35.521  19.445  1.00  0.00     0.069 A
HETATM   31  N7  UNL     1      19.687  34.406  18.916  1.00  0.00    -0.296 N
HETATM   32  N8  UNL     1      18.817  34.460  17.992  1.00  0.00    -0.279 N
ATOM     33  H7  UNL     1      20.022  33.502  19.250  1.00  0.00     0.187 HD
HETATM   34  C17 UNL     1      18.397  35.655  17.573  1.00  0.00     0.167 A
ATOM     35  H8  UNL     1      18.447  33.605  17.577  1.00  0.00     0.189 HD
HETATM   36  N9  UNL     1      17.514  35.937  16.642  1.00  0.00    -0.306 N
HETATM   37  S2  UNL     1      19.309  36.709  18.569  1.00  0.00    -0.038 SA
HETATM   38  C18 UNL     1      16.914  34.842  15.979  1.00  0.00     0.227 C
ATOM     39  H9  UNL     1      17.273  36.899  16.408  1.00  0.00     0.171 HD
HETATM   40  O2  UNL     1      17.581  34.246  15.107  1.00  0.00    -0.273 OA
BRANCH  38  41
HETATM   41  C19 UNL     1      15.517  34.397  16.303  1.00  0.00     0.078 A
HETATM   42  C20 UNL     1      14.894  34.957  17.546  1.00  0.00     0.015 A
HETATM   43  C21 UNL     1      15.407  33.542  17.508  1.00  0.00     0.015 A
ENDBRANCH  38  41
ENDBRANCH  29  30
ENDBRANCH  28  29
ENDBRANCH  27  28
ENDBRANCH  26  27
ENDBRANCH   6  26
TORSDOF 12
ENDMDL