MODEL 2
REMARK VINA RESULT: -7.915119082      0.568      1.059
REMARK  13 active torsions:
REMARK  status: ('A' for Active; 'I' for Inactive)
REMARK    1  A    between atoms: C2_2  and  N1_3
REMARK    2  A    between atoms: N1_3  and  C3_4
REMARK    3  A    between atoms: N1_3  and  C5_6
REMARK    4  A    between atoms: C5_6  and  C6_7
REMARK    5  A    between atoms: C6_7  and  N2_8
REMARK    6  A    between atoms: N2_8  and  C7_10
REMARK    7  A    between atoms: C8_13  and  N4_14
REMARK    8  A    between atoms: N4_14  and  C9_16
REMARK    9  A    between atoms: C9_16  and  C10_17
REMARK   10  A    between atoms: C18_26  and  S1_27
REMARK   11  A    between atoms: S1_27  and  N5_28
REMARK   12  A    between atoms: C21_35  and  O4_36
REMARK   13  A    between atoms: C23_38  and  O5_39
ROOT
HETATM    1  C10 UNL     1      20.891  26.691  11.885  1.00  0.00     0.006 A
HETATM    2  C11 UNL     1      19.616  26.339  11.394  1.00  0.00     0.051 A
HETATM    3  C12 UNL     1      19.368  25.404  10.416  1.00  0.00     0.075 A
HETATM    4  O1  UNL     1      18.167  25.119   9.975  1.00  0.00    -0.355 OA
HETATM    5  C13 UNL     1      16.994  24.860   9.561  1.00  0.00     0.210 C
HETATM    6  C14 UNL     1      20.521  24.743   9.899  1.00  0.00    -0.021 A
HETATM    7  C15 UNL     1      20.318  23.744   8.841  1.00  0.00     0.052 C
HETATM    8  C16 UNL     1      21.756  25.075  10.373  1.00  0.00    -0.029 A
HETATM    9  C17 UNL     1      22.978  24.331   9.941  1.00  0.00     0.050 C
HETATM   10  C18 UNL     1      21.961  26.065  11.370  1.00  0.00     0.097 A
ENDROOT
BRANCH   1  11
HETATM   11  C9  UNL     1      20.955  27.764  12.854  1.00  0.00     0.102 C
BRANCH  11  12
HETATM   12  N4  UNL     1      21.030  29.132  12.530  1.00  0.00    -0.350 N
ATOM     13  H4  UNL     1      21.164  29.395  11.554  1.00  0.00     0.166 HD
BRANCH  12  14
HETATM   14  C8  UNL     1      20.940  30.051  13.398  1.00  0.00     0.133 A
HETATM   15  N3  UNL     1      21.855  30.506  14.251  1.00  0.00    -0.176 N
HETATM   16  C7  UNL     1      21.676  31.206  15.321  1.00  0.00     0.680 A
ATOM     17  H3  UNL     1      22.823  30.270  14.030  1.00  0.00     0.186 HD
HETATM   18  N6  UNL     1      20.427  31.573  15.697  1.00  0.00    -0.191 N
HETATM   19  C26 UNL     1      19.393  31.169  14.922  1.00  0.00     0.066 A
ATOM     20  H6  UNL     1      20.272  32.135  16.534  1.00  0.00     0.184 HD
HETATM   21  C19 UNL     1      19.623  30.449  13.818  1.00  0.00     0.039 A
HETATM   22  C25 UNL     1      18.102  31.394  15.413  1.00  0.00     0.070 A
HETATM   23  C20 UNL     1      18.535  29.941  13.142  1.00  0.00     0.057 A
HETATM   24  C21 UNL     1      17.245  30.139  13.594  1.00  0.00     0.102 A
HETATM   25  C23 UNL     1      17.038  30.885  14.770  1.00  0.00     0.103 A
BRANCH  16  26
HETATM   26  N2  UNL     1      22.603  31.629  16.129  1.00  0.00    -0.224 N
ATOM     27  H2  UNL     1      23.559  31.400  15.859  1.00  0.00     0.177 HD
BRANCH  26  28
HETATM   28  C6  UNL     1      22.467  32.353  17.311  1.00  0.00     0.157 C
BRANCH  28  29
HETATM   29  C5  UNL     1      22.855  33.830  17.069  1.00  0.00     0.137 C
BRANCH  29  30
HETATM   30  N1  UNL     1      21.887  34.686  17.641  1.00  0.00    -0.412 N
BRANCH  30  31
HETATM   31  C2  UNL     1      20.671  34.931  16.920  1.00  0.00     0.112 C
HETATM   32  C1  UNL     1      19.414  34.532  17.578  1.00  0.00     0.026 C
ENDBRANCH  30  31
BRANCH  30  33
HETATM   33  C3  UNL     1      22.322  35.806  18.417  1.00  0.00     0.112 C
HETATM   34  C4  UNL     1      22.271  35.386  19.876  1.00  0.00     0.026 C
ENDBRANCH  30  33
ENDBRANCH  29  30
ENDBRANCH  28  29
ENDBRANCH  26  28
ENDBRANCH  16  26
BRANCH  24  35
HETATM   35  O4  UNL     1      16.157  29.669  12.970  1.00  0.00    -0.353 OA
HETATM   36  C22 UNL     1      15.733  28.941  11.958  1.00  0.00     0.210 C
ENDBRANCH  24  35
BRANCH  25  37
HETATM   37  O5  UNL     1      15.752  31.038  15.193  1.00  0.00    -0.353 OA
HETATM   38  C24 UNL     1      15.203  31.881  16.123  1.00  0.00     0.210 C
ENDBRANCH  25  37
ENDBRANCH  12  14
ENDBRANCH  11  12
ENDBRANCH   1  11
BRANCH  10  39
HETATM   39  S1  UNL     1      23.593  26.527  11.707  1.00  0.00     0.258 S
HETATM   40  O2  UNL     1      23.577  27.402  13.003  1.00  0.00    -0.201 OA
HETATM   41  O3  UNL     1      24.399  25.320  12.217  1.00  0.00    -0.201 OA
BRANCH  39  42
HETATM   42  N5  UNL     1      24.363  27.464  10.525  1.00  0.00    -0.324 N
ATOM     43  H52 UNL     1      24.261  28.479  10.510  1.00  0.00     0.169 HD
ATOM     44  H51 UNL     1      24.924  26.954   9.843  1.00  0.00     0.169 HD
ENDBRANCH  39  42
ENDBRANCH  10  39
TORSDOF 13
ENDMDL