MODEL 3
REMARK VINA RESULT: -7.737737190      4.080     10.975
REMARK  16 active torsions:
REMARK  status: ('A' for Active; 'I' for Inactive)
REMARK    1  A    between atoms: O1_2  and  C2_3
REMARK    2  A    between atoms: C2_3  and  C3_4
REMARK    3  A    between atoms: C4_5  and  C5_6
REMARK    4  A    between atoms: C10_11  and  C11_12
REMARK    5  A    between atoms: C11_12  and  C12_13
REMARK    6  A    between atoms: C13_14  and  C14_15
REMARK    7  A    between atoms: C13_14  and  C25_34
REMARK    8  A    between atoms: C15_16  and  C16_17
REMARK    9  A    between atoms: C18_20  and  O3_21
REMARK   10  A    between atoms: O3_21  and  C19_22
REMARK   11  A    between atoms: C20_25  and  O4_26
REMARK   12  A    between atoms: C22_28  and  O5_29
REMARK   13  A    between atoms: C23_31  and  O6_32
REMARK   14  A    between atoms: C25_34  and  O7_35
REMARK   15  A    between atoms: C25_34  and  N2_37
REMARK   16  A    between atoms: N2_37  and  C26_39
ROOT
HETATM    1  C12 UNL     1      18.026  30.852  15.586  1.00  0.00    -0.007 C
HETATM    2  C13 UNL     1      18.983  31.410  16.338  1.00  0.00     0.011 C
ENDROOT
BRANCH   2   3
HETATM    3  C14 UNL     1      18.727  32.789  16.770  1.00  0.00     0.014 C
HETATM    4  C15 UNL     1      17.764  33.422  17.286  1.00  0.00     0.008 C
BRANCH   4   5
HETATM    5  C16 UNL     1      17.955  34.900  17.573  1.00  0.00     0.177 C
HETATM    6  O2  UNL     1      17.630  35.064  18.903  1.00  0.00    -0.368 OA
HETATM    7  C17 UNL     1      16.819  36.148  19.043  1.00  0.00     0.194 C
HETATM    8  C18 UNL     1      17.592  37.449  18.996  1.00  0.00     0.195 C
HETATM    9  C22 UNL     1      16.234  36.494  17.706  1.00  0.00     0.143 C
HETATM   10  C20 UNL     1      16.609  37.929  17.953  1.00  0.00     0.192 C
HETATM   11  C23 UNL     1      17.062  35.737  16.729  1.00  0.00     0.193 C
BRANCH   8  12
HETATM   12  O3  UNL     1      18.920  37.330  18.538  1.00  0.00    -0.319 OA
BRANCH  12  13
HETATM   13  C19 UNL     1      19.843  38.242  19.028  1.00  0.00     0.223 C
HETATM   14  N1  UNL     1      19.478  39.472  19.634  1.00  0.00    -0.063 NA
HETATM   15  S1  UNL     1      21.433  37.850  18.886  1.00  0.00    -0.037 SA
ENDBRANCH  12  13
ENDBRANCH   8  12
BRANCH  10  16
HETATM   16  O4  UNL     1      17.140  38.607  16.880  1.00  0.00    -0.385 OA
HETATM   17  C21 UNL     1      16.795  39.960  17.006  1.00  0.00     0.202 C
ENDBRANCH  10  16
BRANCH   9  18
HETATM   18  O5  UNL     1      14.857  36.358  17.598  1.00  0.00    -0.382 OA
ATOM     19  H5  UNL     1      14.443  36.886  16.925  1.00  0.00     0.211 HD
ENDBRANCH   9  18
BRANCH  11  20
HETATM   20  O6  UNL     1      16.308  34.893  15.916  1.00  0.00    -0.385 OA
HETATM   21  C24 UNL     1      16.592  35.087  14.565  1.00  0.00     0.202 C
ENDBRANCH  11  20
ENDBRANCH   4   5
ENDBRANCH   2   3
BRANCH   2  22
HETATM   22  C25 UNL     1      20.145  30.685  16.692  1.00  0.00     0.146 C
BRANCH  22  23
HETATM   23  O7  UNL     1      19.990  29.759  17.599  1.00  0.00    -0.346 OA
ATOM     24  H7  UNL     1      19.796  28.886  17.277  1.00  0.00     0.219 HD
ENDBRANCH  22  23
BRANCH  22  25
HETATM   25  N2  UNL     1      21.452  30.809  16.214  1.00  0.00    -0.366 N
ATOM     26  H2  UNL     1      22.195  30.184  16.528  1.00  0.00     0.162 HD
BRANCH  25  27
HETATM   27  C26 UNL     1      21.715  31.897  15.224  1.00  0.00     0.083 A
HETATM   28  C27 UNL     1      23.143  32.010  14.731  1.00  0.00     0.027 A
HETATM   29  C28 UNL     1      22.049  31.436  13.876  1.00  0.00     0.027 A
ENDBRANCH  25  27
ENDBRANCH  22  25
ENDBRANCH   2  22
BRANCH   1  30
HETATM   30  C11 UNL     1      17.879  29.550  14.965  1.00  0.00     0.058 C
BRANCH  30  31
HETATM   31  C10 UNL     1      18.948  29.392  13.939  1.00  0.00     0.014 C
HETATM   32  C2  UNL     1      18.779  29.162  12.681  1.00  0.00     0.064 C
BRANCH  32  33
HETATM   33  O1  UNL     1      19.985  29.056  11.926  1.00  0.00    -0.356 OA
HETATM   34  C1  UNL     1      20.957  28.125  12.352  1.00  0.00     0.210 C
ENDBRANCH  32  33
BRANCH  32  35
HETATM   35  C3  UNL     1      17.508  29.021  12.048  1.00  0.00     0.033 C
HETATM   36  C4  UNL     1      17.015  28.050  11.352  1.00  0.00    -0.019 C
BRANCH  36  37
HETATM   37  C5  UNL     1      17.651  26.795  11.018  1.00  0.00     0.008 C
HETATM   38  C6  UNL     1      17.543  25.830  12.223  1.00  0.00     0.008 C
HETATM   39  C7  UNL     1      17.427  24.450  11.636  1.00  0.00     0.001 C
HETATM   40  C8  UNL     1      17.452  24.630  10.149  1.00  0.00     0.001 C
HETATM   41  C9  UNL     1      16.822  25.999   9.983  1.00  0.00     0.008 C
ENDBRANCH  36  37
ENDBRANCH  32  35
ENDBRANCH  30  31
ENDBRANCH   1  30
TORSDOF 16
ENDMDL