MODEL 5
REMARK VINA RESULT: -7.602887548      3.455      5.878
REMARK  9 active torsions:
REMARK  status: ('A' for Active; 'I' for Inactive)
REMARK    1  A    between atoms: C2_2  and  C3_3
REMARK    2  A    between atoms: C5_5  and  C6_6
REMARK    3  A    between atoms: C6_6  and  C7_7
REMARK    4  A    between atoms: C7_7  and  C8_8
REMARK    5  A    between atoms: C8_8  and  O1_9
REMARK    6  A    between atoms: C8_8  and  C9_11
REMARK    7  A    between atoms: C9_11  and  C10_12
REMARK    8  A    between atoms: C10_12  and  C11_13
REMARK    9  A    between atoms: C11_13  and  O2_14
ROOT
HETATM    1  C6  UNL     1      21.241   6.602  13.501  1.00  0.00     0.041 C
ENDROOT
BRANCH   1   2
HETATM    2  C5  UNL     1      21.041   6.001  12.188  1.00  0.00    -0.057 A
HETATM    3  C4  UNL     1      20.764   6.790  11.087  1.00  0.00     0.019 A
HETATM    4  C3  UNL     1      20.592   6.234   9.838  1.00  0.00    -0.031 A
HETATM    5  C15 UNL     1      20.698   4.861   9.683  1.00  0.00    -0.052 A
HETATM    6  C14 UNL     1      20.974   4.050  10.770  1.00  0.00     0.008 A
HETATM    7  C16 UNL     1      20.508   4.274   8.318  1.00  0.00     0.049 C
HETATM    8  C13 UNL     1      21.145   4.639  12.027  1.00  0.00     0.007 A
BRANCH   4   9
HETATM    9  C2  UNL     1      20.299   7.058   8.658  1.00  0.00     0.002 C
HETATM   10  C1  UNL     1      20.660   8.307   8.521  1.00  0.00     0.012 C
ENDBRANCH   4   9
ENDBRANCH   1   2
BRANCH   1  11
HETATM   11  C7  UNL     1      20.747   7.974  13.714  1.00  0.00     0.036 C
BRANCH  11  12
HETATM   12  C8  UNL     1      21.716   9.088  13.669  1.00  0.00     0.118 C
BRANCH  12  13
HETATM   13  O1  UNL     1      21.536  10.040  12.704  1.00  0.00    -0.396 OA
ATOM     14  H1  UNL     1      20.689  10.468  12.665  1.00  0.00     0.210 HD
ENDBRANCH  12  13
BRANCH  12  15
HETATM   15  C9  UNL     1      21.909   9.786  14.999  1.00  0.00     0.034 C
BRANCH  15  16
HETATM   16  C10 UNL     1      23.409   9.995  15.160  1.00  0.00     0.029 C
BRANCH  16  17
HETATM   17  C11 UNL     1      23.807  11.419  15.000  1.00  0.00     0.167 C
BRANCH  17  18
HETATM   18  O2  UNL     1      23.704  11.894  13.724  1.00  0.00    -0.396 OA
HETATM   19  C12 UNL     1      24.793  11.494  12.974  1.00  0.00     0.201 C
ENDBRANCH  17  18
ENDBRANCH  16  17
ENDBRANCH  15  16
ENDBRANCH  12  15
ENDBRANCH  11  12
ENDBRANCH   1  11
TORSDOF 9
ENDMDL