MODEL 3
REMARK VINA RESULT: -7.898192421      2.157      3.551
REMARK  7 active torsions:
REMARK  status: ('A' for Active; 'I' for Inactive)
REMARK    1  A    between atoms: C2_2  and  C3_3
REMARK    2  A    between atoms: C3_3  and  C4_4
REMARK    3  A    between atoms: C4_4  and  O1_6
REMARK    4  A    between atoms: O1_6  and  C6_7
REMARK    5  A    between atoms: C6_7  and  C7_8
REMARK    6  A    between atoms: C11_12  and  O2_13
REMARK    7  A    between atoms: C12_15  and  C13_16
ROOT
HETATM    1  C7  UNL     1      19.578   7.740  10.467  1.00  0.00    -0.033 A
HETATM    2  C8  UNL     1      19.877   8.951   9.881  1.00  0.00     0.019 A
HETATM    3  C9  UNL     1      20.271   9.061   8.563  1.00  0.00    -0.028 A
HETATM    4  C10 UNL     1      20.602  10.349   7.905  1.00  0.00     0.051 C
HETATM    5  C11 UNL     1      20.362   7.897   7.820  1.00  0.00     0.078 A
HETATM    6  C12 UNL     1      20.079   6.662   8.342  1.00  0.00    -0.021 A
HETATM    7  C16 UNL     1      19.688   6.596   9.666  1.00  0.00     0.019 A
ENDROOT
BRANCH   1   8
HETATM    8  C6  UNL     1      19.178   7.671  11.876  1.00  0.00     0.206 C
BRANCH   8   9
HETATM    9  O1  UNL     1      19.119   6.444  12.457  1.00  0.00    -0.382 OA
BRANCH   9  10
HETATM   10  C4  UNL     1      19.980   6.239  13.546  1.00  0.00     0.117 C
HETATM   11  C5  UNL     1      21.234   5.652  12.994  1.00  0.00     0.039 C
BRANCH  10  12
HETATM   12  C3  UNL     1      20.168   7.552  14.214  1.00  0.00     0.031 C
BRANCH  12  13
HETATM   13  C2  UNL     1      21.500   7.962  14.686  1.00  0.00    -0.002 C
HETATM   14  C1  UNL     1      21.544   9.252  15.396  1.00  0.00     0.005 C
ENDBRANCH  12  13
ENDBRANCH  10  12
ENDBRANCH   9  10
ENDBRANCH   8   9
ENDBRANCH   1   8
BRANCH   6  15
HETATM   15  C13 UNL     1      20.186   5.426   7.586  1.00  0.00     0.013 C
HETATM   16  C14 UNL     1      18.886   5.096   6.844  1.00  0.00     0.015 C
HETATM   17  C15 UNL     1      20.554   4.217   8.397  1.00  0.00     0.015 C
ENDBRANCH   6  15
BRANCH   5  18
HETATM   18  O2  UNL     1      20.747   7.980   6.514  1.00  0.00    -0.360 OA
ATOM     19  H2  UNL     1      20.897   7.177   6.029  1.00  0.00     0.217 HD
ENDBRANCH   5  18
TORSDOF 7
ENDMDL