MODEL 2
REMARK VINA RESULT: -7.875918490      1.366      1.377
REMARK  3 active torsions:
REMARK  status: ('A' for Active; 'I' for Inactive)
REMARK    1  A    between atoms: C2_7  and  C3_8
REMARK    2  A    between atoms: C3_8  and  N3_9
REMARK    3  A    between atoms: C12_22  and  O3_23
ROOT
HETATM    1  N1  UNL     1      24.253  11.758  13.395  1.00  0.00    -0.384 N
ATOM      2  H11 UNL     1      25.193  12.145  13.318  1.00  0.00     0.157 HD
ATOM      3  H12 UNL     1      23.866  12.177  14.241  1.00  0.00     0.157 HD
HETATM    4  C1  UNL     1      23.661  10.969  12.679  1.00  0.00     0.129 A
HETATM    5  N2  UNL     1      22.356  10.431  12.787  1.00  0.00    -0.329 N
ATOM      6  H2  UNL     1      21.677  10.633  13.521  1.00  0.00     0.168 HD
HETATM    7  C2  UNL     1      22.164   9.552  11.678  1.00  0.00     0.112 A
HETATM    8  N4  UNL     1      23.205   9.510  10.930  1.00  0.00    -0.340 N
ATOM      9  H4  UNL     1      23.294   8.949  10.083  1.00  0.00     0.167 HD
HETATM   10  C11 UNL     1      24.219  10.363  11.458  1.00  0.00     0.099 A
HETATM   11  C12 UNL     1      25.421  10.565  10.944  1.00  0.00     0.164 C
ENDROOT
BRANCH   7  12
HETATM   12  C3  UNL     1      20.899   8.811  11.473  1.00  0.00     0.348 C
BRANCH  12  13
HETATM   13  N3  UNL     1      21.094   7.637  10.633  1.00  0.00     0.098 N
HETATM   14  C4  UNL     1      20.567   6.511  11.330  1.00  0.00     0.275 C
HETATM   15  C5  UNL     1      20.464   5.253  10.536  1.00  0.00     0.065 C
HETATM   16  C6  UNL     1      19.778   5.588   9.213  1.00  0.00     0.153 C
HETATM   17  O1  UNL     1      19.654   4.484   8.399  1.00  0.00    -0.381 OA
HETATM   18  C9  UNL     1      20.621   6.611   8.535  1.00  0.00     0.178 C
HETATM   19  C7  UNL     1      18.932   4.896   7.277  1.00  0.00     0.194 C
HETATM   20  C8  UNL     1      19.565   6.015   6.542  1.00  0.00     0.194 C
HETATM   21  O2  UNL     1      20.428   6.799   7.218  1.00  0.00    -0.379 OA
HETATM   22  C10 UNL     1      20.492   7.898   9.361  1.00  0.00     0.307 C
ENDBRANCH  12  13
ENDBRANCH   7  12
BRANCH  11  23
HETATM   23  O3  UNL     1      25.765   9.898   9.779  1.00  0.00    -0.370 OA
ATOM     24  H3  UNL     1      26.554   9.370   9.774  1.00  0.00     0.216 HD
ENDBRANCH  11  23
TORSDOF 3
ENDMDL