MODEL 2
REMARK VINA RESULT: -8.255030569      1.646      3.627
REMARK  8 active torsions:
REMARK  status: ('A' for Active; 'I' for Inactive)
REMARK    1  A    between atoms: C2_2  and  C3_3
REMARK    2  A    between atoms: C3_3  and  C4_4
REMARK    3  A    between atoms: C4_4  and  C5_5
REMARK    4  A    between atoms: C5_5  and  C6_6
REMARK    5  A    between atoms: C6_6  and  C7_7
REMARK    6  A    between atoms: C7_7  and  C8_9
REMARK    7  A    between atoms: C10_11  and  C11_12
REMARK    8  A    between atoms: C13_14  and  O2_15
ROOT
HETATM    1  C8  UNL     1      20.580   7.948   9.990  1.00  0.00     0.016 A
HETATM    2  C9  UNL     1      20.655   6.672  10.582  1.00  0.00     0.025 A
HETATM    3  C10 UNL     1      20.646   5.501   9.855  1.00  0.00    -0.024 A
HETATM    4  C13 UNL     1      20.558   5.616   8.485  1.00  0.00     0.072 A
HETATM    5  C14 UNL     1      20.482   6.837   7.856  1.00  0.00     0.044 A
HETATM    6  C15 UNL     1      20.495   8.021   8.628  1.00  0.00    -0.045 A
HETATM    7  C16 UNL     1      20.407   9.287   7.900  1.00  0.00     0.049 C
ENDROOT
BRANCH   1   8
HETATM    8  C7  UNL     1      20.605   9.131  10.804  1.00  0.00     0.160 C
HETATM    9  O1  UNL     1      19.525   9.716  11.090  1.00  0.00    -0.292 OA
BRANCH   8  10
HETATM   10  C6  UNL     1      21.812   9.782  11.382  1.00  0.00     0.084 C
BRANCH  10  11
HETATM   11  C5  UNL     1      22.290   9.030  12.601  1.00  0.00     0.008 C
BRANCH  11  12
HETATM   12  C4  UNL     1      21.800   9.649  13.885  1.00  0.00     0.004 C
BRANCH  12  13
HETATM   13  C3  UNL     1      21.351   8.654  14.894  1.00  0.00     0.026 C
BRANCH  13  14
HETATM   14  C2  UNL     1      20.367   7.736  14.241  1.00  0.00    -0.037 C
HETATM   15  C1  UNL     1      20.336   6.429  14.443  1.00  0.00     0.007 C
ENDBRANCH  13  14
ENDBRANCH  12  13
ENDBRANCH  11  12
ENDBRANCH  10  11
ENDBRANCH   8  10
ENDBRANCH   1   8
BRANCH   3  16
HETATM   16  C11 UNL     1      20.726   4.177  10.526  1.00  0.00     0.037 C
HETATM   17  C12 UNL     1      21.483   4.248  11.832  1.00  0.00     0.010 C
ENDBRANCH   3  16
BRANCH   4  18
HETATM   18  O2  UNL     1      20.549   4.427   7.764  1.00  0.00    -0.360 OA
ATOM     19  H2  UNL     1      21.395   4.092   7.491  1.00  0.00     0.217 HD
ENDBRANCH   4  18
TORSDOF 8
ENDMDL