MODEL 4
REMARK VINA RESULT: -7.520177812      1.358      3.856
REMARK  9 active torsions:
REMARK  status: ('A' for Active; 'I' for Inactive)
REMARK    1  A    between atoms: C2_2  and  C3_3
REMARK    2  A    between atoms: C3_3  and  C4_4
REMARK    3  A    between atoms: C4_4  and  C5_5
REMARK    4  A    between atoms: C5_5  and  C6_6
REMARK    5  A    between atoms: C6_6  and  C7_7
REMARK    6  A    between atoms: C7_7  and  C8_8
REMARK    7  A    between atoms: C10_10  and  C11_11
REMARK    8  A    between atoms: C11_11  and  O1_12
REMARK    9  A    between atoms: C15_17  and  O2_18
ROOT
HETATM    1  C8  UNL     1      20.659   6.356   9.101  1.00  0.00    -0.024 A
HETATM    2  C9  UNL     1      20.872   7.401  10.019  1.00  0.00     0.019 A
HETATM    3  C10 UNL     1      20.845   8.727   9.670  1.00  0.00    -0.028 A
HETATM    4  C12 UNL     1      20.600   9.100   8.379  1.00  0.00    -0.051 A
HETATM    5  C13 UNL     1      20.562  10.521   7.963  1.00  0.00     0.049 C
HETATM    6  C14 UNL     1      20.387   8.114   7.459  1.00  0.00     0.044 A
HETATM    7  C15 UNL     1      20.415   6.752   7.819  1.00  0.00     0.075 A
ENDROOT
BRANCH   1   8
HETATM    8  C7  UNL     1      20.752   4.962   9.583  1.00  0.00     0.041 C
BRANCH   8   9
HETATM    9  C6  UNL     1      20.376   4.675  10.958  1.00  0.00     0.005 C
BRANCH   9  10
HETATM   10  C5  UNL     1      21.283   4.572  12.086  1.00  0.00     0.001 C
BRANCH  10  11
HETATM   11  C4  UNL     1      21.112   5.425  13.278  1.00  0.00     0.004 C
BRANCH  11  12
HETATM   12  C3  UNL     1      19.752   6.148  13.272  1.00  0.00     0.026 C
BRANCH  12  13
HETATM   13  C2  UNL     1      20.053   7.563  13.620  1.00  0.00    -0.037 C
HETATM   14  C1  UNL     1      20.966   7.842  14.533  1.00  0.00     0.007 C
ENDBRANCH  12  13
ENDBRANCH  11  12
ENDBRANCH  10  11
ENDBRANCH   9  10
ENDBRANCH   8   9
ENDBRANCH   1   8
BRANCH   7  15
HETATM   15  O2  UNL     1      20.185   5.809   6.836  1.00  0.00    -0.355 OA
HETATM   16  C16 UNL     1      18.881   5.335   6.603  1.00  0.00     0.210 C
ENDBRANCH   7  15
BRANCH   3  17
HETATM   17  C11 UNL     1      21.085   9.736  10.733  1.00  0.00     0.203 C
BRANCH  17  18
HETATM   18  O1  UNL     1      22.316   9.571  11.344  1.00  0.00    -0.396 OA
ATOM     19  H1  UNL     1      22.451  10.190  12.051  1.00  0.00     0.209 HD
ENDBRANCH  17  18
ENDBRANCH   3  17
TORSDOF 9
ENDMDL