MODEL 3
REMARK VINA RESULT: -7.486698746      3.307      5.036
REMARK  6 active torsions:
REMARK  status: ('A' for Active; 'I' for Inactive)
REMARK    1  A    between atoms: C2_2  and  C3_3
REMARK    2  A    between atoms: C3_3  and  C4_4
REMARK    3  A    between atoms: C10_10  and  O1_11
REMARK    4  A    between atoms: C10_10  and  C11_13
REMARK    5  A    between atoms: C11_13  and  C12_14
REMARK    6  A    between atoms: C12_14  and  C13_15
ROOT
HETATM    1  C3  UNL     1      19.881   5.867   8.792  1.00  0.00    -0.041 C
HETATM    2  C6  UNL     1      20.523   4.517   9.026  1.00  0.00     0.009 C
HETATM    3  C7  UNL     1      20.637   4.031  10.419  1.00  0.00     0.001 C
HETATM    4  C8  UNL     1      21.383   4.888  11.382  1.00  0.00     0.003 C
HETATM    5  C9  UNL     1      20.493   5.619  12.344  1.00  0.00     0.038 C
HETATM    6  C10 UNL     1      20.444   7.119  12.022  1.00  0.00     0.058 C
HETATM    7  C15 UNL     1      19.642   7.421  10.811  1.00  0.00     0.038 C
HETATM    8  C16 UNL     1      19.094   6.341   9.998  1.00  0.00     0.012 C
ENDROOT
BRANCH   6   9
HETATM    9  O1  UNL     1      21.783   7.507  11.920  1.00  0.00    -0.390 OA
ATOM     10  H1  UNL     1      21.939   7.602  10.987  1.00  0.00     0.210 HD
ENDBRANCH   6   9
BRANCH   6  11
HETATM   11  C11 UNL     1      19.920   7.755  13.290  1.00  0.00     0.045 C
BRANCH  11  12
HETATM   12  C12 UNL     1      20.465   7.233  14.566  1.00  0.00     0.081 C
BRANCH  12  13
HETATM   13  C13 UNL     1      21.671   8.060  14.907  1.00  0.00     0.123 C
HETATM   14  C14 UNL     1      21.563   9.432  15.451  1.00  0.00     0.091 C
HETATM   15  O2  UNL     1      22.772   7.535  14.710  1.00  0.00    -0.298 OA
ENDBRANCH  12  13
ENDBRANCH  11  12
ENDBRANCH   6  11
BRANCH   1  16
HETATM   16  C2  UNL     1      20.823   6.879   8.272  1.00  0.00     0.005 C
HETATM   17  C1  UNL     1      20.380   7.889   7.284  1.00  0.00     0.006 C
ENDBRANCH   1  16
BRANCH   1  18
HETATM   18  C4  UNL     1      18.836   5.591   7.737  1.00  0.00     0.005 C
HETATM   19  C5  UNL     1      19.092   4.548   6.737  1.00  0.00     0.006 C
ENDBRANCH   1  18
TORSDOF 6
ENDMDL