MODEL 4
REMARK VINA RESULT: -7.293563679      2.418      6.003
REMARK  9 active torsions:
REMARK  status: ('A' for Active; 'I' for Inactive)
REMARK    1  A    between atoms: C2_2  and  C3_3
REMARK    2  A    between atoms: C3_3  and  C4_4
REMARK    3  A    between atoms: C4_4  and  C5_5
REMARK    4  A    between atoms: C5_5  and  C6_6
REMARK    5  A    between atoms: C10_10  and  O1_11
REMARK    6  A    between atoms: O1_11  and  C11_12
REMARK    7  A    between atoms: C14_15  and  C15_16
REMARK    8  A    between atoms: C15_16  and  C16_17
REMARK    9  A    between atoms: C16_17  and  O2_18
ROOT
HETATM    1  C6  UNL     1      21.502   8.876  14.033  1.00  0.00    -0.051 A
HETATM    2  C7  UNL     1      22.485   9.291  14.942  1.00  0.00     0.017 A
HETATM    3  C8  UNL     1      23.417  10.259  14.677  1.00  0.00    -0.028 A
HETATM    4  C9  UNL     1      24.428  10.639  15.701  1.00  0.00     0.051 C
HETATM    5  C10 UNL     1      23.377  10.856  13.443  1.00  0.00     0.075 A
HETATM    6  C13 UNL     1      22.425  10.470  12.532  1.00  0.00     0.045 A
HETATM    7  C14 UNL     1      21.479   9.481  12.806  1.00  0.00    -0.047 A
ENDROOT
BRANCH   1   8
HETATM    8  C5  UNL     1      20.514   7.872  14.493  1.00  0.00     0.039 C
BRANCH   8   9
HETATM    9  C4  UNL     1      21.011   6.459  14.357  1.00  0.00     0.005 C
BRANCH   9  10
HETATM   10  C3  UNL     1      20.329   5.775  13.215  1.00  0.00    -0.000 C
BRANCH  10  11
HETATM   11  C2  UNL     1      21.272   4.987  12.359  1.00  0.00    -0.005 C
HETATM   12  C1  UNL     1      20.711   4.796  10.976  1.00  0.00     0.005 C
ENDBRANCH  10  11
ENDBRANCH   9  10
ENDBRANCH   8   9
ENDBRANCH   1   8
BRANCH   7  13
HETATM   13  C15 UNL     1      20.527   9.045  11.770  1.00  0.00     0.065 C
BRANCH  13  14
HETATM   14  C16 UNL     1      20.713   9.707  10.431  1.00  0.00     0.168 C
BRANCH  14  15
HETATM   15  O2  UNL     1      19.635  10.586  10.186  1.00  0.00    -0.401 OA
ATOM     16  H2  UNL     1      19.192  10.329   9.385  1.00  0.00     0.209 HD
ENDBRANCH  14  15
ENDBRANCH  13  14
ENDBRANCH   7  13
BRANCH   5  17
HETATM   17  O1  UNL     1      24.268  11.826  13.104  1.00  0.00    -0.351 OA
BRANCH  17  18
HETATM   18  C11 UNL     1      25.325  11.819  12.224  1.00  0.00     0.171 C
HETATM   19  C12 UNL     1      26.685  11.674  12.801  1.00  0.00     0.034 C
ENDBRANCH  17  18
ENDBRANCH   5  17
TORSDOF 9
ENDMDL