MODEL 5
REMARK VINA RESULT: -7.565041579      1.561      5.005
REMARK  7 active torsions:
REMARK  status: ('A' for Active; 'I' for Inactive)
REMARK    1  A    between atoms: C2_2  and  C3_3
REMARK    2  A    between atoms: C3_3  and  C4_4
REMARK    3  A    between atoms: C4_4  and  C5_5
REMARK    4  A    between atoms: C10_11  and  C11_12
REMARK    5  A    between atoms: C11_12  and  C12_14
REMARK    6  A    between atoms: C12_14  and  C13_15
REMARK    7  A    between atoms: C13_15  and  C15_17
ROOT
HETATM    1  C5  UNL     1      20.140   6.900   9.293  1.00  0.00    -0.012 A
HETATM    2  C6  UNL     1      20.221   6.805   7.939  1.00  0.00     0.056 A
HETATM    3  C7  UNL     1      20.078   5.589   7.114  1.00  0.00     0.077 C
HETATM    4  O1  UNL     1      20.464   8.001   7.383  1.00  0.00    -0.319 OA
HETATM    5  C8  UNL     1      20.553   8.903   8.312  1.00  0.00     0.064 A
HETATM    6  C9  UNL     1      20.819  10.376   8.113  1.00  0.00     0.077 C
HETATM    7  C10 UNL     1      20.360   8.285   9.537  1.00  0.00     0.048 A
ENDROOT
BRANCH   7   8
HETATM    8  C11 UNL     1      20.380   8.946  10.826  1.00  0.00     0.163 C
HETATM    9  O2  UNL     1      19.368   9.574  11.181  1.00  0.00    -0.292 OA
BRANCH   8  10
HETATM   10  C12 UNL     1      21.580   8.848  11.659  1.00  0.00     0.088 C
BRANCH  10  11
HETATM   11  C13 UNL     1      21.482   9.586  12.966  1.00  0.00    -0.012 C
HETATM   12  C14 UNL     1      22.560  10.585  13.205  1.00  0.00     0.010 C
BRANCH  11  13
HETATM   13  C15 UNL     1      21.248   8.662  14.144  1.00  0.00     0.000 C
HETATM   14  C16 UNL     1      21.632   9.406  15.421  1.00  0.00     0.005 C
ENDBRANCH  11  13
ENDBRANCH  10  11
ENDBRANCH   8  10
ENDBRANCH   7   8
BRANCH   1  15
HETATM   15  C4  UNL     1      19.889   5.958  10.370  1.00  0.00     0.042 C
BRANCH  15  16
HETATM   16  C3  UNL     1      20.706   4.757  10.523  1.00  0.00     0.004 C
BRANCH  16  17
HETATM   17  C2  UNL     1      21.347   4.434  11.834  1.00  0.00    -0.004 C
HETATM   18  C1  UNL     1      20.909   5.348  12.958  1.00  0.00     0.005 C
ENDBRANCH  16  17
ENDBRANCH  15  16
ENDBRANCH   1  15
TORSDOF 7
ENDMDL