MODEL 3
REMARK VINA RESULT: -7.682137576      2.760      4.586
REMARK  8 active torsions:
REMARK  status: ('A' for Active; 'I' for Inactive)
REMARK    1  A    between atoms: C2_2  and  C4_4
REMARK    2  A    between atoms: C4_4  and  C5_5
REMARK    3  A    between atoms: C5_5  and  C6_6
REMARK    4  A    between atoms: C5_5  and  C12_15
REMARK    5  A    between atoms: C6_6  and  C7_7
REMARK    6  A    between atoms: C10_10  and  C11_11
REMARK    7  A    between atoms: C11_11  and  O1_12
REMARK    8  A    between atoms: C12_15  and  C13_16
ROOT
HETATM    1  C5  UNL     1      20.392   7.786  11.798  1.00  0.00    -0.007 C
ENDROOT
BRANCH   1   2
HETATM    2  C4  UNL     1      20.933   6.685  10.888  1.00  0.00     0.009 C
BRANCH   2   3
HETATM    3  C2  UNL     1      20.366   5.329  11.167  1.00  0.00    -0.022 C
HETATM    4  C1  UNL     1      21.270   4.703  12.225  1.00  0.00     0.009 C
HETATM    5  C3  UNL     1      20.353   4.407   9.998  1.00  0.00     0.009 C
ENDBRANCH   2   3
ENDBRANCH   1   2
BRANCH   1   6
HETATM    6  C6  UNL     1      19.736   8.761  10.890  1.00  0.00     0.069 C
BRANCH   6   7
HETATM    7  C7  UNL     1      20.653   9.748  10.248  1.00  0.00     0.053 A
HETATM    8  C8  UNL     1      21.201   9.819   9.009  1.00  0.00     0.035 A
HETATM    9  C9  UNL     1      21.983  10.954   8.941  1.00  0.00     0.037 A
HETATM   10  C10 UNL     1      21.853  11.522  10.198  1.00  0.00     0.076 A
HETATM   11  O2  UNL     1      21.070  10.794  10.934  1.00  0.00    -0.317 OA
BRANCH  10  12
HETATM   12  C11 UNL     1      22.526  12.788  10.614  1.00  0.00     0.229 C
BRANCH  12  13
HETATM   13  O1  UNL     1      21.692  13.547  11.436  1.00  0.00    -0.394 OA
ATOM     14  H1  UNL     1      20.792  13.252  11.367  1.00  0.00     0.209 HD
ENDBRANCH  12  13
ENDBRANCH  10  12
ENDBRANCH   6   7
ENDBRANCH   1   6
BRANCH   1  15
HETATM   15  C12 UNL     1      21.449   8.338  12.649  1.00  0.00     0.013 C
BRANCH  15  16
HETATM   16  C13 UNL     1      21.425   8.288  14.114  1.00  0.00    -0.051 C
HETATM   17  C14 UNL     1      22.645   7.417  14.607  1.00  0.00     0.014 C
HETATM   18  C15 UNL     1      21.625   9.572  14.877  1.00  0.00     0.014 C
HETATM   19  C16 UNL     1      20.223   7.594  14.704  1.00  0.00     0.014 C
ENDBRANCH  15  16
ENDBRANCH   1  15
TORSDOF 8
ENDMDL