MODEL 1
REMARK VINA RESULT: -9.020930424      0.000      0.000
REMARK  17 active torsions:
REMARK  status: ('A' for Active; 'I' for Inactive)
REMARK    1  A    between atoms: N1_1  and  C1_4
REMARK    2  A    between atoms: N6_16  and  C5_17
REMARK    3  A    between atoms: C5_17  and  C6_18
REMARK    4  A    between atoms: C6_18  and  O1_19
REMARK    5  A    between atoms: C6_18  and  C7_21
REMARK    6  A    between atoms: C7_21  and  O2_22
REMARK    7  A    between atoms: C7_21  and  C8_24
REMARK    8  A    between atoms: C8_24  and  O3_25
REMARK    9  A    between atoms: C8_24  and  C9_27
REMARK   10  A    between atoms: C9_27  and  O4_28
REMARK   11  A    between atoms: O4_28  and  C10_29
REMARK   12  A    between atoms: C15_35  and  N7_36
REMARK       I    between atoms: N7_36  and  C16_38
REMARK   13  A    between atoms: C16_38  and  C17_40
REMARK   14  A    between atoms: C18_42  and  N8_43
REMARK       I    between atoms: N8_43  and  C19_45
REMARK   15  A    between atoms: C19_45  and  C20_47
REMARK   16  A    between atoms: N10_49  and  N11_50
REMARK   17  A    between atoms: C21_53  and  N12_54
ROOT
HETATM    1  C10 UNL     1      11.714  -0.254  -1.072  1.00  0.00     0.137 C
HETATM    2  C11 UNL     1      12.520   0.870  -0.803  1.00  0.00     0.043 C
HETATM    3  C12 UNL     1      12.544   2.061  -1.489  1.00  0.00     0.022 C
HETATM    4  C13 UNL     1      11.630   2.510  -2.442  1.00  0.00     0.061 A
HETATM    5  C14 UNL     1      11.633   3.879  -2.588  1.00  0.00     0.216 A
HETATM    6  O5  UNL     1      12.437   4.534  -1.900  1.00  0.00    -0.285 OA
HETATM    7  C15 UNL     1      10.733   4.436  -3.499  1.00  0.00     0.131 A
HETATM    8  C18 UNL     1       9.861   3.692  -4.244  1.00  0.00     0.141 A
HETATM    9  N13 UNL     1       9.877   2.336  -4.084  1.00  0.00    -0.326 N
ATOM     10  H13 UNL     1       9.232   1.770  -4.635  1.00  0.00     0.169 HD
HETATM   11  C22 UNL     1      10.699   1.724  -3.239  1.00  0.00     0.124 A
HETATM   12  N14 UNL     1      10.602   0.380  -3.179  1.00  0.00    -0.306 N
ATOM     13  H14 UNL     1      10.036  -0.027  -3.924  1.00  0.00     0.170 HD
HETATM   14  C23 UNL     1      11.113  -0.531  -2.318  1.00  0.00     0.280 C
HETATM   15  O8  UNL     1      11.070  -1.737  -2.611  1.00  0.00    -0.265 OA
ENDROOT
BRANCH   1  16
HETATM   16  O4  UNL     1      11.553  -1.059  -0.071  1.00  0.00    -0.343 OA
BRANCH  16  17
HETATM   17  C9  UNL     1      11.355  -1.929   0.876  1.00  0.00     0.210 C
BRANCH  17  18
HETATM   18  C8  UNL     1      12.256  -1.801   2.099  1.00  0.00     0.173 C
BRANCH  18  19
HETATM   19  C7  UNL     1      11.580  -1.979   3.399  1.00  0.00     0.179 C
BRANCH  19  20
HETATM   20  C6  UNL     1      11.756  -0.699   4.260  1.00  0.00     0.169 C
BRANCH  20  21
HETATM   21  C5  UNL     1      10.474   0.074   4.138  1.00  0.00     0.186 C
BRANCH  21  22
HETATM   22  N6  UNL     1      10.603   1.331   3.468  1.00  0.00    -0.257 N
HETATM   23  C3  UNL     1      10.120   1.722   2.277  1.00  0.00     0.157 A
HETATM   24  N3  UNL     1       9.358   1.112   1.365  1.00  0.00    -0.335 N
HETATM   25  C4  UNL     1      10.549   3.022   2.045  1.00  0.00     0.139 A
HETATM   26  C2  UNL     1       9.009   1.756   0.224  1.00  0.00     0.183 A
ATOM     27  H3  UNL     1       9.037   0.157   1.526  1.00  0.00     0.168 HD
HETATM   28  N2  UNL     1       9.444   3.031   0.018  1.00  0.00    -0.337 N
HETATM   29  C1  UNL     1      10.197   3.697   0.873  1.00  0.00     0.132 A
ATOM     30  H2  UNL     1       9.172   3.498  -0.848  1.00  0.00     0.168 HD
HETATM   31  N4  UNL     1      11.274   3.383   3.095  1.00  0.00    -0.279 N
HETATM   32  N5  UNL     1      11.297   2.373   3.932  1.00  0.00    -0.238 N
ATOM     33  H4  UNL     1      11.732   4.284   3.228  1.00  0.00     0.189 HD
ATOM     34  H5  UNL     1      11.786   2.382   4.827  1.00  0.00     0.208 HD
BRANCH  29  35
HETATM   35  N1  UNL     1      10.602   4.881   0.675  1.00  0.00    -0.383 N
ATOM     36  H12 UNL     1      11.598   5.068   0.555  1.00  0.00     0.157 HD
ATOM     37  H11 UNL     1       9.980   5.687   0.619  1.00  0.00     0.157 HD
ENDBRANCH  29  35
ENDBRANCH  21  22
ENDBRANCH  20  21
BRANCH  20  38
HETATM   38  O1  UNL     1      12.810   0.030   3.683  1.00  0.00    -0.391 OA
ATOM     39  H1  UNL     1      13.420  -0.564   3.262  1.00  0.00     0.210 HD
ENDBRANCH  20  38
ENDBRANCH  19  20
BRANCH  19  40
HETATM   40  O2  UNL     1      10.186  -2.045   3.204  1.00  0.00    -0.390 OA
ATOM     41  H2  UNL     1      10.018  -2.979   3.160  1.00  0.00     0.210 HD
ENDBRANCH  19  40
ENDBRANCH  18  19
BRANCH  18  42
HETATM   42  O3  UNL     1      13.448  -2.461   1.934  1.00  0.00    -0.391 OA
ATOM     43  H3  UNL     1      13.417  -3.280   1.454  1.00  0.00     0.210 HD
ENDBRANCH  18  42
ENDBRANCH  17  18
ENDBRANCH  16  17
ENDBRANCH   1  16
BRANCH   7  44
HETATM   44  N7  UNL     1      10.724   5.865  -3.646  1.00  0.00    -0.320 N
HETATM   45  C16 UNL     1       9.951   6.662  -2.739  1.00  0.00     0.236 C
HETATM   46  O6  UNL     1       9.285   6.135  -1.818  1.00  0.00    -0.272 OA
ATOM     47  H7  UNL     1      11.263   6.310  -4.389  1.00  0.00     0.169 HD
BRANCH  45  48
HETATM   48  C17 UNL     1       9.931   8.130  -2.884  1.00  0.00     0.217 C
HETATM   49 CL1  UNL     1      11.567   8.716  -2.467  1.00  0.00    -0.121 Cl
ENDBRANCH  45  48
ENDBRANCH   7  44
BRANCH   8  50
HETATM   50  N8  UNL     1       8.967   4.340  -5.149  1.00  0.00    -0.309 N
HETATM   51  C19 UNL     1       7.592   4.572  -4.882  1.00  0.00     0.247 C
HETATM   52  O7  UNL     1       7.124   4.192  -3.794  1.00  0.00    -0.271 OA
ATOM     53  H8  UNL     1       9.340   4.658  -6.044  1.00  0.00     0.170 HD
BRANCH  51  54
HETATM   54  C20 UNL     1       6.823   5.263  -5.951  1.00  0.00     0.235 C
HETATM   55  N9  UNL     1       5.440   4.930  -6.054  1.00  0.00    -0.126 NA
HETATM   56  N10 UNL     1       5.203   6.237  -6.484  1.00  0.00    -0.116 NA
HETATM   57  C21 UNL     1       6.299   6.634  -5.593  1.00  0.00     0.324 C
BRANCH  56  58
HETATM   58  N11 UNL     1       4.000   6.800  -6.122  1.00  0.00    -0.347 NA
ATOM     59 2H11 UNL     1       3.206   6.198  -6.341  1.00  0.00     0.172 HD
ATOM     60 1H11 UNL     1       3.591   7.470  -6.774  1.00  0.00     0.172 HD
ENDBRANCH  56  58
BRANCH  57  61
HETATM   61  N12 UNL     1       7.095   7.712  -6.125  1.00  0.00    -0.058 N
ATOM     62 3H12 UNL     1       7.985   7.363  -6.480  1.00  0.00     0.276 HD
ATOM     63 2H12 UNL     1       6.692   8.064  -6.993  1.00  0.00     0.276 HD
ATOM     64 1H12 UNL     1       7.244   8.473  -5.463  1.00  0.00     0.276 HD
ENDBRANCH  57  61
ENDBRANCH  51  54
ENDBRANCH   8  50
TORSDOF 17
ENDMDL