MODEL 5
REMARK VINA RESULT: -7.712718405      1.758      1.950
REMARK  22 active torsions:
REMARK  status: ('A' for Active; 'I' for Inactive)
REMARK    1  A    between atoms: C1_4  and  O1_5
REMARK    2  A    between atoms: O1_5  and  C2_6
REMARK    3  A    between atoms: C2_6  and  N2_8
REMARK    4  A    between atoms: N2_8  and  C3_10
REMARK    5  A    between atoms: C3_10  and  C4_11
REMARK    6  A    between atoms: C5_13  and  C6_14
REMARK    7  A    between atoms: C6_14  and  N3_15
REMARK    8  A    between atoms: C7_19  and  O3_20
REMARK    9  A    between atoms: C8_22  and  O4_23
REMARK   10  A    between atoms: O4_23  and  C9_24
REMARK   11  A    between atoms: C10_25  and  N4_26
REMARK   12  A    between atoms: C12_31  and  N5_32
REMARK   13  A    between atoms: C13_36  and  O5_37
REMARK   14  A    between atoms: O5_37  and  C14_38
REMARK   15  A    between atoms: C15_40  and  C16_41
REMARK   16  A    between atoms: C16_41  and  N6_42
REMARK   17  A    between atoms: C17_46  and  O7_47
REMARK   18  A    between atoms: C18_49  and  O8_50
REMARK   19  A    between atoms: C19_52  and  N7_53
REMARK   20  A    between atoms: C20_57  and  O9_58
REMARK   21  A    between atoms: O9_58  and  C21_59
REMARK   22  A    between atoms: C21_59  and  C22_61
ROOT
HETATM    1  C9  UNL     1      10.758   0.926   0.030  1.00  0.00     0.187 C
HETATM    2  C10 UNL     1      11.699   1.934  -0.594  1.00  0.00     0.217 C
HETATM    3  C11 UNL     1      11.429   1.940  -2.066  1.00  0.00     0.071 C
HETATM    4  C12 UNL     1      10.053   1.552  -2.466  1.00  0.00     0.217 C
HETATM    5  C13 UNL     1       8.964   1.766  -1.492  1.00  0.00     0.187 C
HETATM    6  C20 UNL     1       9.379   1.585  -0.044  1.00  0.00     0.194 C
ENDROOT
BRANCH   1   7
HETATM    7  O4  UNL     1      11.067   0.695   1.364  1.00  0.00    -0.348 OA
BRANCH   7   8
HETATM    8  C8  UNL     1      11.320  -0.616   1.668  1.00  0.00     0.294 C
HETATM    9  C7  UNL     1      11.757  -0.840   3.095  1.00  0.00     0.204 C
HETATM   10  C5  UNL     1      11.940  -2.338   3.273  1.00  0.00     0.183 C
HETATM   11  O2  UNL     1      12.878  -2.760   2.359  1.00  0.00    -0.350 OA
HETATM   12  C4  UNL     1      12.583  -2.436   1.053  1.00  0.00     0.281 C
HETATM   13  O11 UNL     1      12.336  -1.100   0.849  1.00  0.00    -0.327 OA
BRANCH   9  14
HETATM   14  O3  UNL     1      13.013  -0.247   3.296  1.00  0.00    -0.388 OA
ATOM     15  H3  UNL     1      12.858   0.622   3.646  1.00  0.00     0.210 HD
ENDBRANCH   9  14
BRANCH  10  16
HETATM   16  C6  UNL     1      12.434  -2.672   4.663  1.00  0.00     0.264 C
BRANCH  16  17
HETATM   17  N3  UNL     1      13.195  -3.901   4.680  1.00  0.00    -0.077 N
ATOM     18  H33 UNL     1      12.606  -4.700   4.915  1.00  0.00     0.274 HD
ATOM     19  H32 UNL     1      13.472  -4.180   3.738  1.00  0.00     0.274 HD
ATOM     20  H31 UNL     1      14.001  -3.838   5.301  1.00  0.00     0.274 HD
ENDBRANCH  16  17
ENDBRANCH  10  16
BRANCH  12  21
HETATM   21  C3  UNL     1      11.497  -3.341   0.511  1.00  0.00     0.183 C
BRANCH  21  22
HETATM   22  N2  UNL     1      12.140  -4.597   0.116  1.00  0.00    -0.356 N
ATOM     23  H2  UNL     1      12.957  -4.592  -0.495  1.00  0.00     0.162 HD
BRANCH  22  24
HETATM   24  C2  UNL     1      11.608  -5.815   0.596  1.00  0.00     0.216 C
HETATM   25  S1  UNL     1      11.814  -6.277   2.139  1.00  0.00    -0.033 SA
BRANCH  24  26
HETATM   26  O1  UNL     1      10.898  -6.622  -0.277  1.00  0.00    -0.280 OA
BRANCH  26  27
HETATM   27  C1  UNL     1      11.498  -7.036  -1.482  1.00  0.00     0.229 C
HETATM   28  N1  UNL     1      10.898  -6.716  -2.572  1.00  0.00    -0.390 N
ATOM     29  H12 UNL     1      10.027  -6.185  -2.549  1.00  0.00     0.157 HD
ATOM     30  H11 UNL     1      11.333  -7.015  -3.444  1.00  0.00     0.157 HD
ENDBRANCH  26  27
ENDBRANCH  24  26
ENDBRANCH  22  24
ENDBRANCH  21  22
ENDBRANCH  12  21
ENDBRANCH   7   8
ENDBRANCH   1   7
BRANCH   2  31
HETATM   31  N4  UNL     1      13.083   1.633  -0.311  1.00  0.00    -0.072 N
ATOM     32  H43 UNL     1      13.532   2.398   0.193  1.00  0.00     0.274 HD
ATOM     33  H42 UNL     1      13.165   0.903   0.398  1.00  0.00     0.274 HD
ATOM     34  H41 UNL     1      13.603   1.389  -1.154  1.00  0.00     0.274 HD
ENDBRANCH   2  31
BRANCH   6  35
HETATM   35  O9  UNL     1       9.557   2.899   0.484  1.00  0.00    -0.310 OA
BRANCH  35  36
HETATM   36  C21 UNL     1       8.871   3.391   1.549  1.00  0.00     0.273 C
HETATM   37  O10 UNL     1       8.150   4.404   1.425  1.00  0.00    -0.264 OA
BRANCH  36  38
HETATM   38  C22 UNL     1       8.978   2.723   2.866  1.00  0.00     0.225 C
HETATM   39 CL1  UNL     1       7.523   3.043   3.868  1.00  0.00    -0.120 Cl
ENDBRANCH  36  38
ENDBRANCH  35  36
ENDBRANCH   6  35
BRANCH   5  40
HETATM   40  O5  UNL     1       8.257   2.957  -1.667  1.00  0.00    -0.349 OA
BRANCH  40  41
HETATM   41  C14 UNL     1       8.732   3.742  -2.688  1.00  0.00     0.294 C
HETATM   42  O6  UNL     1       7.822   3.766  -3.781  1.00  0.00    -0.349 OA
HETATM   43  C15 UNL     1       8.579   4.077  -4.900  1.00  0.00     0.181 C
HETATM   44  C17 UNL     1       9.266   5.396  -4.854  1.00  0.00     0.179 C
HETATM   45  C18 UNL     1       9.837   5.738  -3.494  1.00  0.00     0.184 C
HETATM   46  C19 UNL     1       8.994   5.169  -2.366  1.00  0.00     0.269 C
BRANCH  43  47
HETATM   47  C16 UNL     1       7.649   4.036  -6.093  1.00  0.00     0.264 C
BRANCH  47  48
HETATM   48  N6  UNL     1       6.291   4.317  -5.752  1.00  0.00    -0.077 N
ATOM     49  H63 UNL     1       5.882   3.547  -5.223  1.00  0.00     0.274 HD
ATOM     50  H62 UNL     1       6.237   5.053  -5.047  1.00  0.00     0.274 HD
ATOM     51  H61 UNL     1       5.716   4.547  -6.563  1.00  0.00     0.274 HD
ENDBRANCH  47  48
ENDBRANCH  43  47
BRANCH  44  52
HETATM   52  O7  UNL     1       8.525   6.461  -5.346  1.00  0.00    -0.390 OA
ATOM     53  H7  UNL     1       8.413   6.470  -6.289  1.00  0.00     0.210 HD
ENDBRANCH  44  52
BRANCH  45  54
HETATM   54  O8  UNL     1      11.159   5.319  -3.393  1.00  0.00    -0.391 OA
ATOM     55  H8  UNL     1      11.280   4.764  -2.632  1.00  0.00     0.210 HD
ENDBRANCH  45  54
BRANCH  46  56
HETATM   56  N7  UNL     1       9.637   5.436  -1.124  1.00  0.00    -0.068 N
ATOM     57  H73 UNL     1      10.039   4.575  -0.755  1.00  0.00     0.275 HD
ATOM     58  H72 UNL     1      10.484   5.981  -1.288  1.00  0.00     0.275 HD
ATOM     59  H71 UNL     1       9.073   5.887  -0.404  1.00  0.00     0.275 HD
ENDBRANCH  46  56
ENDBRANCH  40  41
ENDBRANCH   5  40
BRANCH   4  60
HETATM   60  N5  UNL     1       9.996   0.176  -2.985  1.00  0.00    -0.072 N
ATOM     61  H53 UNL     1      10.195  -0.505  -2.252  1.00  0.00     0.274 HD
ATOM     62  H52 UNL     1       9.038  -0.098  -3.203  1.00  0.00     0.274 HD
ATOM     63  H51 UNL     1      10.610   0.044  -3.788  1.00  0.00     0.274 HD
ENDBRANCH   4  60
TORSDOF 22
ENDMDL