MODEL 5
REMARK VINA RESULT: -9.157024606      1.601      2.471
REMARK  22 active torsions:
REMARK  status: ('A' for Active; 'I' for Inactive)
REMARK    1  A    between atoms: O1_1  and  C1_3
REMARK    2  A    between atoms: C1_3  and  C2_4
REMARK    3  A    between atoms: C4_7  and  O3_8
REMARK    4  A    between atoms: O3_8  and  C5_9
REMARK    5  A    between atoms: C6_10  and  C7_11
REMARK    6  A    between atoms: C7_11  and  O4_12
REMARK    7  A    between atoms: C8_15  and  O6_16
REMARK    8  A    between atoms: O6_16  and  C9_17
REMARK    9  A    between atoms: C10_18  and  C11_19
REMARK   10  A    between atoms: C11_19  and  O7_20
REMARK   11  A    between atoms: C12_23  and  C13_24
REMARK   12  A    between atoms: C13_24  and  C14_25
REMARK   13  A    between atoms: C15_27  and  O9_28
REMARK   14  A    between atoms: O9_28  and  C16_29
REMARK   15  A    between atoms: C17_31  and  C18_32
REMARK   16  A    between atoms: C18_32  and  O11_33
REMARK   17  A    between atoms: C19_35  and  O12_36
REMARK   18  A    between atoms: C20_38  and  O13_39
REMARK   19  A    between atoms: C21_41  and  O14_42
REMARK   20  A    between atoms: C22_44  and  O15_45
REMARK   21  A    between atoms: C23_47  and  O16_48
REMARK   22  A    between atoms: C24_50  and  O17_51
ROOT
HETATM    1  C9  UNL     1      10.575   1.130  -0.144  1.00  0.00     0.187 C
HETATM    2  C10 UNL     1      10.428   1.962   1.107  1.00  0.00     0.177 C
HETATM    3  O8  UNL     1      10.393   1.287   2.252  1.00  0.00    -0.373 OA
HETATM    4  C12 UNL     1      10.880   0.061   2.431  1.00  0.00     0.156 C
HETATM    5  C15 UNL     1      11.476  -0.721   1.328  1.00  0.00     0.185 C
HETATM    6  C22 UNL     1      11.511  -0.011   0.027  1.00  0.00     0.181 C
ENDROOT
BRANCH   1   7
HETATM    7  O6  UNL     1      11.000   2.024  -1.129  1.00  0.00    -0.348 OA
BRANCH   7   8
HETATM    8  C8  UNL     1       9.955   2.665  -1.785  1.00  0.00     0.292 C
HETATM    9  O5  UNL     1      10.087   4.042  -1.771  1.00  0.00    -0.348 OA
HETATM   10  C6  UNL     1       8.913   4.607  -2.201  1.00  0.00     0.180 C
HETATM   11  C5  UNL     1       8.355   4.121  -3.483  1.00  0.00     0.187 C
HETATM   12  C24 UNL     1       8.814   2.758  -3.919  1.00  0.00     0.183 C
HETATM   13  C23 UNL     1      10.060   2.274  -3.259  1.00  0.00     0.204 C
BRANCH  10  14
HETATM   14  C7  UNL     1       9.106   6.127  -2.314  1.00  0.00     0.198 C
BRANCH  14  15
HETATM   15  O4  UNL     1       8.005   6.814  -1.800  1.00  0.00    -0.398 OA
ATOM     16  H4  UNL     1       7.191   6.458  -2.137  1.00  0.00     0.209 HD
ENDBRANCH  14  15
ENDBRANCH  10  14
BRANCH  11  17
HETATM   17  O3  UNL     1       6.943   4.151  -3.362  1.00  0.00    -0.349 OA
BRANCH  17  18
HETATM   18  C4  UNL     1       6.328   4.989  -4.240  1.00  0.00     0.284 C
HETATM   19  O2  UNL     1       6.013   6.165  -3.510  1.00  0.00    -0.356 OA
HETATM   20  C3  UNL     1       5.100   6.854  -4.289  1.00  0.00     0.205 C
HETATM   21  C2  UNL     1       5.496   7.066  -5.706  1.00  0.00     0.169 C
HETATM   22  O18 UNL     1       6.285   6.103  -6.274  1.00  0.00    -0.377 OA
HETATM   23  C25 UNL     1       7.154   5.461  -5.397  1.00  0.00     0.229 C
BRANCH  21  24
HETATM   24  C1  UNL     1       4.193   7.111  -6.519  1.00  0.00     0.198 C
BRANCH  24  25
HETATM   25  O1  UNL     1       4.203   6.171  -7.547  1.00  0.00    -0.398 OA
ATOM     26  H1  UNL     1       3.480   6.308  -8.147  1.00  0.00     0.209 HD
ENDBRANCH  24  25
ENDBRANCH  21  24
ENDBRANCH  17  18
ENDBRANCH  11  17
BRANCH  12  27
HETATM   27  O17 UNL     1       9.016   2.723  -5.297  1.00  0.00    -0.390 OA
ATOM     28  H17 UNL     1       8.988   3.599  -5.664  1.00  0.00     0.210 HD
ENDBRANCH  12  27
BRANCH  13  29
HETATM   29  O16 UNL     1      10.176   0.915  -3.437  1.00  0.00    -0.388 OA
ATOM     30  H16 UNL     1      11.073   0.643  -3.587  1.00  0.00     0.210 HD
ENDBRANCH  13  29
ENDBRANCH   7   8
ENDBRANCH   1   7
BRANCH   2  31
HETATM   31  C11 UNL     1      11.518   3.034   1.178  1.00  0.00     0.198 C
BRANCH  31  32
HETATM   32  O7  UNL     1      10.999   4.297   1.000  1.00  0.00    -0.398 OA
ATOM     33  H7  UNL     1      10.851   4.487   0.081  1.00  0.00     0.209 HD
ENDBRANCH  31  32
ENDBRANCH   2  31
BRANCH   6  34
HETATM   34  O15 UNL     1      12.808   0.444  -0.305  1.00  0.00    -0.390 OA
ATOM     35  H15 UNL     1      13.247  -0.253  -0.779  1.00  0.00     0.210 HD
ENDBRANCH   6  34
BRANCH   5  36
HETATM   36  O9  UNL     1      10.743  -1.925   1.255  1.00  0.00    -0.348 OA
BRANCH  36  37
HETATM   37  C16 UNL     1      11.529  -2.984   0.812  1.00  0.00     0.292 C
HETATM   38  O10 UNL     1      10.745  -4.125   0.919  1.00  0.00    -0.348 OA
HETATM   39  C17 UNL     1      11.398  -5.315   0.787  1.00  0.00     0.179 C
HETATM   40  C19 UNL     1      12.724  -5.420   1.473  1.00  0.00     0.180 C
HETATM   41  C20 UNL     1      12.859  -4.306   2.488  1.00  0.00     0.183 C
HETATM   42  C21 UNL     1      12.741  -3.009   1.723  1.00  0.00     0.204 C
BRANCH  39  43
HETATM   43  C18 UNL     1      11.472  -5.809  -0.660  1.00  0.00     0.198 C
BRANCH  43  44
HETATM   44  O11 UNL     1      10.950  -7.093  -0.795  1.00  0.00    -0.398 OA
ATOM     45  H11 UNL     1      11.520  -7.747  -0.407  1.00  0.00     0.209 HD
ENDBRANCH  43  44
ENDBRANCH  39  43
BRANCH  40  46
HETATM   46  O12 UNL     1      12.892  -6.625   2.152  1.00  0.00    -0.390 OA
ATOM     47  H12 UNL     1      13.314  -6.520   2.996  1.00  0.00     0.210 HD
ENDBRANCH  40  46
BRANCH  41  48
HETATM   48  O13 UNL     1      11.932  -4.382   3.503  1.00  0.00    -0.390 OA
ATOM     49  H13 UNL     1      11.680  -3.531   3.845  1.00  0.00     0.210 HD
ENDBRANCH  41  48
BRANCH  42  50
HETATM   50  O14 UNL     1      13.937  -2.848   1.018  1.00  0.00    -0.388 OA
ATOM     51  H14 UNL     1      14.643  -2.544   1.574  1.00  0.00     0.210 HD
ENDBRANCH  42  50
ENDBRANCH  36  37
ENDBRANCH   5  36
BRANCH   4  52
HETATM   52  C13 UNL     1      11.975   0.185   3.528  1.00  0.00     0.066 C
BRANCH  52  53
HETATM   53  C14 UNL     1      11.807  -0.899   4.551  1.00  0.00     0.224 C
HETATM   54  F1  UNL     1      13.005  -1.516   4.834  1.00  0.00    -0.255 F
ENDBRANCH  52  53
ENDBRANCH   4  52
TORSDOF 22
ENDMDL