MODEL 4
REMARK VINA RESULT: -8.050612634      1.733      2.826
REMARK  20 active torsions:
REMARK  status: ('A' for Active; 'I' for Inactive)
REMARK    1  A    between atoms: C3_3  and  O1_4
REMARK    2  A    between atoms: N1_8  and  O3_10
REMARK    3  A    between atoms: C5_12  and  N2_13
REMARK    4  A    between atoms: N2_13  and  C6_15
REMARK    5  A    between atoms: C7_19  and  N4_20
REMARK    6  A    between atoms: N4_20  and  C8_21
REMARK    7  A    between atoms: N4_20  and  N6_25
REMARK    8  A    between atoms: C8_21  and  C9_22
REMARK    9  A    between atoms: N6_25  and  O5_27
REMARK   10  A    between atoms: C10_29  and  N7_30
REMARK   11  A    between atoms: N7_30  and  C11_32
REMARK   12  A    between atoms: C11_32  and  O6_33
REMARK   13  A    between atoms: C11_32  and  C12_35
REMARK   14  A    between atoms: C12_35  and  N8_36
REMARK   15  A    between atoms: C12_35  and  C13_40
REMARK   16  A    between atoms: C13_40  and  C14_41
REMARK   17  A    between atoms: C16_44  and  O7_45
REMARK   18  A    between atoms: N9_47  and  S1_48
REMARK   19  A    between atoms: C18_53  and  N10_54
REMARK   20  A    between atoms: C19_58  and  O11_59
ROOT
HETATM    1  C6  UNL     1       9.590   3.598   0.492  1.00  0.00     0.325 C
HETATM    2  N3  UNL     1      10.604   2.842  -0.310  1.00  0.00    -0.024 N
ATOM      3  H31 UNL     1      11.120   2.138   0.216  1.00  0.00     0.282 HD
ATOM      4  H32 UNL     1      11.420   3.389  -0.584  1.00  0.00     0.282 HD
HETATM    5  C7  UNL     1       9.830   2.318  -1.421  1.00  0.00     0.352 C
HETATM    6  C10 UNL     1       9.489   3.483  -2.301  1.00  0.00     0.046 C
HETATM    7  C15 UNL     1       9.647   4.832  -1.680  1.00  0.00     0.120 C
HETATM    8  C16 UNL     1      10.948   5.504  -2.071  1.00  0.00     0.222 C
HETATM    9  N9  UNL     1      11.579   5.928  -0.875  1.00  0.00    -0.161 NA
HETATM   10  C17 UNL     1      10.654   5.856   0.185  1.00  0.00     0.156 C
HETATM   11  C18 UNL     1       9.542   4.925  -0.188  1.00  0.00     0.194 C
ENDROOT
BRANCH   1  12
HETATM   12  N2  UNL     1       9.878   3.502   1.865  1.00  0.00    -0.355 N
ATOM     13  H2  UNL     1      10.129   4.386   2.306  1.00  0.00     0.162 HD
BRANCH  12  14
HETATM   14  C5  UNL     1       9.879   2.393   2.736  1.00  0.00     0.117 A
HETATM   15  C4  UNL     1       8.830   2.006   3.566  1.00  0.00     0.199 A
HETATM   16  O2  UNL     1       8.999   0.920   4.360  1.00  0.00    -0.266 OA
HETATM   17  N1  UNL     1       7.772   2.561   3.647  1.00  0.00    -0.245 N
HETATM   18  C3  UNL     1      10.039   0.190   4.432  1.00  0.00     0.194 A
HETATM   19  C2  UNL     1      11.121   0.498   3.648  1.00  0.00     0.032 A
HETATM   20  C1  UNL     1      12.357  -0.330   3.721  1.00  0.00     0.056 C
HETATM   21  C19 UNL     1      11.036   1.587   2.812  1.00  0.00     0.107 A
ATOM     22  H1  UNL     1       7.912   3.310   2.968  1.00  0.00     0.196 HD
BRANCH  18  23
HETATM   23  O1  UNL     1      10.099  -0.922   5.292  1.00  0.00    -0.340 OA
ATOM     24  H1  UNL     1      10.855  -1.497   5.262  1.00  0.00     0.220 HD
ENDBRANCH  18  23
BRANCH  21  25
HETATM   25  O11 UNL     1      12.130   1.891   2.022  1.00  0.00    -0.358 OA
ATOM     26  H11 UNL     1      12.687   2.613   2.287  1.00  0.00     0.217 HD
ENDBRANCH  21  25
BRANCH  17  27
HETATM   27  O3  UNL     1       6.615   2.818   4.020  1.00  0.00    -0.288 OA
ATOM     28  H3  UNL     1       5.668   2.896   4.001  1.00  0.00     0.244 HD
ENDBRANCH  17  27
ENDBRANCH  12  14
ENDBRANCH   1  12
BRANCH  11  29
HETATM   29  N10 UNL     1       8.291   5.563   0.171  1.00  0.00    -0.065 N
ATOM     30 3H10 UNL     1       7.870   5.164   1.010  1.00  0.00     0.275 HD
ATOM     31 2H10 UNL     1       8.418   6.513   0.521  1.00  0.00     0.275 HD
ATOM     32 1H10 UNL     1       7.673   5.519  -0.640  1.00  0.00     0.275 HD
ENDBRANCH  11  29
BRANCH   5  33
HETATM   33  N4  UNL     1      10.708   1.362  -2.135  1.00  0.00    -0.264 N
BRANCH  33  34
HETATM   34  C8  UNL     1      10.684  -0.025  -1.791  1.00  0.00     0.246 C
BRANCH  34  35
HETATM   35  C9  UNL     1      11.479  -0.358  -0.632  1.00  0.00     0.250 C
HETATM   36  N5  UNL     1      12.716   0.332  -0.415  1.00  0.00    -0.061 NA
HETATM   37  O4  UNL     1      11.135  -1.226   0.195  1.00  0.00    -0.275 OA
ENDBRANCH  34  35
ENDBRANCH  33  34
BRANCH  33  38
HETATM   38  N6  UNL     1      11.533   1.872  -3.121  1.00  0.00    -0.210 N
ATOM     39  H6  UNL     1      11.120   2.137  -4.015  1.00  0.00     0.215 HD
BRANCH  38  40
HETATM   40  O5  UNL     1      12.784   2.023  -2.958  1.00  0.00    -0.275 OA
ATOM     41  H5  UNL     1      13.275   2.722  -3.375  1.00  0.00     0.246 HD
ENDBRANCH  38  40
ENDBRANCH  33  38
ENDBRANCH   5  33
BRANCH   6  42
HETATM   42  N7  UNL     1       8.338   3.373  -3.080  1.00  0.00    -0.365 N
ATOM     43  H7  UNL     1       7.576   2.802  -2.716  1.00  0.00     0.161 HD
BRANCH  42  44
HETATM   44  C11 UNL     1       8.152   3.985  -4.312  1.00  0.00     0.248 C
BRANCH  44  45
HETATM   45  O6  UNL     1       6.885   4.043  -4.834  1.00  0.00    -0.375 OA
ATOM     46  H6  UNL     1       6.147   4.081  -4.237  1.00  0.00     0.212 HD
ENDBRANCH  44  45
BRANCH  44  47
HETATM   47  C12 UNL     1       9.015   3.187  -5.329  1.00  0.00     0.233 C
BRANCH  47  48
HETATM   48  N8  UNL     1       8.198   2.711  -6.402  1.00  0.00    -0.071 N
ATOM     49  H83 UNL     1       7.218   2.966  -6.278  1.00  0.00     0.274 HD
ATOM     50  H82 UNL     1       8.376   3.216  -7.270  1.00  0.00     0.274 HD
ATOM     51  H81 UNL     1       8.318   1.704  -6.516  1.00  0.00     0.274 HD
ENDBRANCH  47  48
BRANCH  47  52
HETATM   52  C13 UNL     1      10.107   4.052  -5.891  1.00  0.00     0.068 C
BRANCH  52  53
HETATM   53  C14 UNL     1      11.107   3.154  -6.583  1.00  0.00     0.224 C
HETATM   54  F1  UNL     1      12.397   3.358  -6.157  1.00  0.00    -0.255 F
ENDBRANCH  52  53
ENDBRANCH  47  52
ENDBRANCH  44  47
ENDBRANCH  42  44
ENDBRANCH   6  42
BRANCH   8  55
HETATM   55  O7  UNL     1      11.829   4.672  -2.749  1.00  0.00    -0.379 OA
ATOM     56  H7  UNL     1      12.349   5.117  -3.408  1.00  0.00     0.211 HD
ENDBRANCH   8  55
BRANCH   9  57
HETATM   57  S1  UNL     1      12.429   7.397  -1.032  1.00  0.00     0.187 S
HETATM   58  O8  UNL     1      13.904   7.202  -0.717  1.00  0.00    -0.582 OA
HETATM   59  O9  UNL     1      12.367   7.845  -2.469  1.00  0.00    -0.582 OA
HETATM   60  O10 UNL     1      11.807   8.613  -0.037  1.00  0.00    -0.582 OA
ENDBRANCH   9  57
TORSDOF 20
ENDMDL