MODEL 4
REMARK VINA RESULT: -8.906656547      1.122      1.467
REMARK  23 active torsions:
REMARK  status: ('A' for Active; 'I' for Inactive)
REMARK    1  A    between atoms: C3_4  and  O1_5
REMARK    2  A    between atoms: O1_5  and  C4_6
REMARK    3  A    between atoms: C5_8  and  O3_9
REMARK    4  A    between atoms: C6_11  and  O4_12
REMARK    5  A    between atoms: C7_14  and  O5_15
REMARK    6  A    between atoms: C8_17  and  C9_18
REMARK    7  A    between atoms: C9_18  and  O6_19
REMARK    8  A    between atoms: C10_22  and  C11_23
REMARK    9  A    between atoms: C11_23  and  O8_24
REMARK   10  A    between atoms: C12_26  and  O9_27
REMARK   11  A    between atoms: C13_29  and  O10_30
REMARK   12  A    between atoms: O10_30  and  C14_31
REMARK   13  A    between atoms: C14_31  and  C15_32
REMARK   14  A    between atoms: C15_32  and  C16_33
REMARK   15  A    between atoms: C16_33  and  C17_34
REMARK   16  A    between atoms: C17_34  and  O11_35
REMARK   17  A    between atoms: O11_35  and  C18_36
REMARK   18  A    between atoms: C19_38  and  C20_39
REMARK   19  A    between atoms: C20_39  and  O13_40
REMARK   20  A    between atoms: C21_42  and  O14_43
REMARK   21  A    between atoms: C22_45  and  O15_46
REMARK   22  A    between atoms: C23_48  and  O16_49
REMARK   23  A    between atoms: C24_51  and  O17_52
ROOT
HETATM    1  N1  UNL     1      11.509  -0.618  -1.695  1.00  0.00    -0.197 NA
HETATM    2  C1  UNL     1      11.559  -0.264  -0.573  1.00  0.00     0.071 C
HETATM    3  C2  UNL     1      11.611   0.199   0.812  1.00  0.00     0.179 C
HETATM    4  C3  UNL     1      11.525  -0.971   1.728  1.00  0.00     0.283 C
HETATM    5  O7  UNL     1      10.505  -0.728   2.651  1.00  0.00    -0.350 OA
HETATM    6  C10 UNL     1      10.861   0.196   3.605  1.00  0.00     0.179 C
HETATM    7  C12 UNL     1      10.202   1.548   3.368  1.00  0.00     0.180 C
HETATM    8  C13 UNL     1      10.713   2.182   2.091  1.00  0.00     0.182 C
HETATM    9  C24 UNL     1      10.499   1.203   0.978  1.00  0.00     0.172 C
ENDROOT
BRANCH   4  10
HETATM   10  O1  UNL     1      11.272  -2.121   0.992  1.00  0.00    -0.329 OA
BRANCH  10  11
HETATM   11  C4  UNL     1      11.928  -3.202   1.517  1.00  0.00     0.275 C
HETATM   12  O2  UNL     1      13.246  -3.255   1.087  1.00  0.00    -0.328 OA
HETATM   13  C5  UNL     1      13.982  -4.233   1.703  1.00  0.00     0.291 C
HETATM   14  C6  UNL     1      13.182  -5.137   2.588  1.00  0.00     0.202 C
HETATM   15  C7  UNL     1      11.890  -5.590   1.990  1.00  0.00     0.162 C
HETATM   16  C8  UNL     1      11.288  -4.515   1.112  1.00  0.00     0.096 C
BRANCH  13  17
HETATM   17  O3  UNL     1      14.945  -3.597   2.506  1.00  0.00    -0.368 OA
ATOM     18  H3  UNL     1      15.728  -4.134   2.494  1.00  0.00     0.212 HD
ENDBRANCH  13  17
BRANCH  14  19
HETATM   19  O4  UNL     1      13.965  -6.295   2.800  1.00  0.00    -0.388 OA
ATOM     20  H4  UNL     1      14.613  -6.069   3.458  1.00  0.00     0.210 HD
ENDBRANCH  14  19
BRANCH  15  21
HETATM   21  O5  UNL     1      10.976  -5.797   3.047  1.00  0.00    -0.392 OA
ATOM     22  H5  UNL     1      10.106  -5.852   2.670  1.00  0.00     0.210 HD
ENDBRANCH  15  21
BRANCH  16  23
HETATM   23  C9  UNL     1      11.605  -4.857  -0.332  1.00  0.00     0.176 C
BRANCH  23  24
HETATM   24  O6  UNL     1      11.541  -3.690  -1.123  1.00  0.00    -0.400 OA
ATOM     25  H6  UNL     1      11.027  -3.859  -1.904  1.00  0.00     0.209 HD
ENDBRANCH  23  24
ENDBRANCH  16  23
ENDBRANCH  10  11
ENDBRANCH   4  10
BRANCH   9  26
HETATM   26  O17 UNL     1       9.287   0.566   1.070  1.00  0.00    -0.391 OA
ATOM     27  H17 UNL     1       8.880   0.500   0.214  1.00  0.00     0.210 HD
ENDBRANCH   9  26
BRANCH   8  28
HETATM   28  O10 UNL     1      10.106   3.398   1.875  1.00  0.00    -0.381 OA
BRANCH  28  29
HETATM   29  C14 UNL     1      10.995   4.412   1.538  1.00  0.00     0.168 C
BRANCH  29  30
HETATM   30  C15 UNL     1      10.403   5.219   0.434  1.00  0.00     0.028 C
BRANCH  30  31
HETATM   31  C16 UNL     1      11.361   6.283  -0.115  1.00  0.00     0.028 C
BRANCH  31  32
HETATM   32  C17 UNL     1      11.521   6.083  -1.576  1.00  0.00     0.171 C
BRANCH  32  33
HETATM   33  O11 UNL     1      12.092   4.865  -1.865  1.00  0.00    -0.359 OA
BRANCH  33  34
HETATM   34  C18 UNL     1      11.602   4.240  -2.987  1.00  0.00     0.291 C
HETATM   35  O12 UNL     1      10.289   4.753  -3.166  1.00  0.00    -0.348 OA
HETATM   36  C19 UNL     1       9.649   4.167  -4.237  1.00  0.00     0.179 C
HETATM   37  C21 UNL     1      10.406   3.059  -4.891  1.00  0.00     0.180 C
HETATM   38  C22 UNL     1      10.791   2.042  -3.858  1.00  0.00     0.183 C
HETATM   39  C23 UNL     1      11.523   2.759  -2.737  1.00  0.00     0.204 C
BRANCH  36  40
HETATM   40  C20 UNL     1       9.268   5.223  -5.274  1.00  0.00     0.198 C
BRANCH  40  41
HETATM   41  O13 UNL     1      10.191   5.143  -6.341  1.00  0.00    -0.398 OA
ATOM     42  H13 UNL     1      10.085   4.297  -6.759  1.00  0.00     0.209 HD
ENDBRANCH  40  41
ENDBRANCH  36  40
BRANCH  37  43
HETATM   43  O14 UNL     1       9.549   2.446  -5.809  1.00  0.00    -0.390 OA
ATOM     44  H14 UNL     1       8.871   1.999  -5.314  1.00  0.00     0.210 HD
ENDBRANCH  37  43
BRANCH  38  45
HETATM   45  O15 UNL     1       9.613   1.477  -3.323  1.00  0.00    -0.390 OA
ATOM     46  H15 UNL     1       9.724   1.376  -2.385  1.00  0.00     0.210 HD
ENDBRANCH  38  45
BRANCH  39  47
HETATM   47  O16 UNL     1      12.792   2.225  -2.646  1.00  0.00    -0.388 OA
ATOM     48  H16 UNL     1      12.764   1.288  -2.803  1.00  0.00     0.210 HD
ENDBRANCH  39  47
ENDBRANCH  33  34
ENDBRANCH  32  33
ENDBRANCH  31  32
ENDBRANCH  30  31
ENDBRANCH  29  30
ENDBRANCH  28  29
ENDBRANCH   8  28
BRANCH   6  49
HETATM   49  C11 UNL     1      10.365  -0.298   4.949  1.00  0.00     0.198 C
BRANCH  49  50
HETATM   50  O8  UNL     1      11.379  -0.245   5.913  1.00  0.00    -0.398 OA
ATOM     51  H8  UNL     1      11.100  -0.644   6.728  1.00  0.00     0.209 HD
ENDBRANCH  49  50
ENDBRANCH   6  49
BRANCH   7  52
HETATM   52  O9  UNL     1      10.473   2.366   4.442  1.00  0.00    -0.390 OA
ATOM     53  H9  UNL     1      11.394   2.598   4.424  1.00  0.00     0.210 HD
ENDBRANCH   7  52
TORSDOF 23
ENDMDL