MODEL 5
REMARK VINA RESULT: -8.947912367      2.559      3.497
REMARK  21 active torsions:
REMARK  status: ('A' for Active; 'I' for Inactive)
REMARK    1  A    between atoms: N1_2  and  C2_5
REMARK    2  A    between atoms: C2_5  and  C3_6
REMARK    3  A    between atoms: C4_8  and  O2_9
REMARK    4  A    between atoms: O2_9  and  C5_10
REMARK    5  A    between atoms: C6_11  and  O3_12
REMARK    6  A    between atoms: C7_14  and  C8_15
REMARK    7  A    between atoms: C8_15  and  O4_16
REMARK    8  A    between atoms: C9_19  and  O6_20
REMARK    9  A    between atoms: O6_20  and  C10_21
REMARK   10  A    between atoms: C11_23  and  O8_24
REMARK   11  A    between atoms: O8_24  and  C12_25
REMARK   12  A    between atoms: C13_27  and  C14_28
REMARK   13  A    between atoms: C14_28  and  O10_29
REMARK   14  A    between atoms: C15_31  and  O11_32
REMARK   15  A    between atoms: C16_34  and  N2_35
REMARK   16  A    between atoms: C17_39  and  O12_40
REMARK   17  A    between atoms: C18_42  and  N3_43
REMARK   18  A    between atoms: C20_48  and  N4_49
REMARK   19  A    between atoms: C21_53  and  O13_54
REMARK   20  A    between atoms: C22_56  and  O14_57
REMARK   21  A    between atoms: C24_60  and  C25_61
ROOT
HETATM    1  C10 UNL     1      10.514   1.276   1.777  1.00  0.00     0.296 C
HETATM    2  O7  UNL     1      10.779  -0.067   2.067  1.00  0.00    -0.327 OA
HETATM    3  C11 UNL     1       9.897  -0.523   3.024  1.00  0.00     0.296 C
HETATM    4  C18 UNL     1      10.082   0.154   4.363  1.00  0.00     0.240 C
HETATM    5  C19 UNL     1      10.041   1.647   4.142  1.00  0.00     0.075 C
HETATM    6  C20 UNL     1      10.961   2.062   3.014  1.00  0.00     0.240 C
ENDROOT
BRANCH   1   7
HETATM    7  O6  UNL     1      11.163   1.714   0.651  1.00  0.00    -0.327 OA
BRANCH   7   8
HETATM    8  C9  UNL     1      10.278   2.223  -0.324  1.00  0.00     0.294 C
HETATM    9  O5  UNL     1      10.595   1.624  -1.508  1.00  0.00    -0.348 OA
HETATM   10  C7  UNL     1      10.008   2.142  -2.624  1.00  0.00     0.179 C
HETATM   11  C6  UNL     1       9.279   3.426  -2.432  1.00  0.00     0.181 C
HETATM   12  C5  UNL     1      10.089   4.380  -1.599  1.00  0.00     0.189 C
HETATM   13  C21 UNL     1      10.462   3.720  -0.316  1.00  0.00     0.205 C
BRANCH  10  14
HETATM   14  C8  UNL     1      11.054   2.247  -3.712  1.00  0.00     0.198 C
BRANCH  14  15
HETATM   15  O4  UNL     1      12.343   2.222  -3.238  1.00  0.00    -0.398 OA
ATOM     16  H4  UNL     1      12.515   2.877  -2.572  1.00  0.00     0.209 HD
ENDBRANCH  14  15
ENDBRANCH  10  14
BRANCH  11  17
HETATM   17  O3  UNL     1       8.027   3.237  -1.858  1.00  0.00    -0.390 OA
ATOM     18  H3  UNL     1       7.536   2.593  -2.353  1.00  0.00     0.210 HD
ENDBRANCH  11  17
BRANCH  12  19
HETATM   19  O2  UNL     1      11.190   4.874  -2.298  1.00  0.00    -0.348 OA
BRANCH  19  20
HETATM   20  C4  UNL     1      11.073   6.233  -2.582  1.00  0.00     0.289 C
HETATM   21  O1  UNL     1      10.008   6.741  -1.864  1.00  0.00    -0.351 OA
HETATM   22  C3  UNL     1      10.132   8.072  -1.547  1.00  0.00     0.157 C
HETATM   23  C24 UNL     1      11.247   8.317  -0.536  1.00  0.00     0.048 C
HETATM   24  C23 UNL     1      12.434   7.436  -0.859  1.00  0.00     0.046 C
HETATM   25  C22 UNL     1      12.378   6.940  -2.288  1.00  0.00     0.173 C
BRANCH  22  26
HETATM   26  C2  UNL     1       8.837   8.483  -0.835  1.00  0.00     0.264 C
BRANCH  26  27
HETATM   27  N1  UNL     1       7.843   7.434  -0.937  1.00  0.00    -0.077 N
HETATM   28  C1  UNL     1       6.709   7.973  -1.645  1.00  0.00     0.267 C
ATOM     29  H12 UNL     1       7.593   7.035  -0.032  1.00  0.00     0.276 HD
ATOM     30  H11 UNL     1       8.209   6.582  -1.362  1.00  0.00     0.276 HD
ENDBRANCH  26  27
ENDBRANCH  22  26
BRANCH  23  31
HETATM   31  C25 UNL     1      11.638   9.772  -0.505  1.00  0.00     0.229 C
HETATM   32  F1  UNL     1      12.417   9.968   0.618  1.00  0.00    -0.255 F
ENDBRANCH  23  31
BRANCH  25  33
HETATM   33  O14 UNL     1      12.618   7.979  -3.183  1.00  0.00    -0.391 OA
ATOM     34  H14 UNL     1      13.501   7.948  -3.533  1.00  0.00     0.210 HD
ENDBRANCH  25  33
ENDBRANCH  19  20
ENDBRANCH  12  19
BRANCH  13  35
HETATM   35  O13 UNL     1      11.757   4.018   0.091  1.00  0.00    -0.388 OA
ATOM     36  H13 UNL     1      12.411   3.464  -0.319  1.00  0.00     0.210 HD
ENDBRANCH  13  35
ENDBRANCH   7   8
ENDBRANCH   1   7
BRANCH   6  37
HETATM   37  N4  UNL     1      12.314   1.676   3.394  1.00  0.00    -0.070 N
ATOM     38  H43 UNL     1      12.409   0.665   3.488  1.00  0.00     0.274 HD
ATOM     39  H42 UNL     1      12.978   1.819   2.633  1.00  0.00     0.274 HD
ATOM     40  H41 UNL     1      12.595   2.167   4.243  1.00  0.00     0.274 HD
ENDBRANCH   6  37
BRANCH   3  41
HETATM   41  O8  UNL     1       9.987  -1.905   3.139  1.00  0.00    -0.327 OA
BRANCH  41  42
HETATM   42  C12 UNL     1      11.076  -2.423   2.461  1.00  0.00     0.294 C
HETATM   43  O9  UNL     1      10.580  -3.368   1.542  1.00  0.00    -0.348 OA
HETATM   44  C13 UNL     1      11.590  -3.588   0.612  1.00  0.00     0.179 C
HETATM   45  C15 UNL     1      12.838  -4.107   1.251  1.00  0.00     0.182 C
HETATM   46  C16 UNL     1      12.543  -4.391   2.717  1.00  0.00     0.247 C
HETATM   47  C17 UNL     1      12.080  -3.091   3.357  1.00  0.00     0.206 C
BRANCH  44  48
HETATM   48  C14 UNL     1      11.078  -4.509  -0.479  1.00  0.00     0.198 C
BRANCH  48  49
HETATM   49  O10 UNL     1      11.606  -4.167  -1.701  1.00  0.00    -0.398 OA
ATOM     50  H10 UNL     1      12.487  -3.826  -1.608  1.00  0.00     0.209 HD
ENDBRANCH  48  49
ENDBRANCH  44  48
BRANCH  45  51
HETATM   51  O11 UNL     1      13.885  -3.181   1.129  1.00  0.00    -0.391 OA
ATOM     52  H11 UNL     1      14.697  -3.615   0.899  1.00  0.00     0.210 HD
ENDBRANCH  45  51
BRANCH  46  53
HETATM   53  N2  UNL     1      13.784  -4.837   3.311  1.00  0.00    -0.070 N
ATOM     54  H23 UNL     1      14.426  -5.252   2.637  1.00  0.00     0.274 HD
ATOM     55  H22 UNL     1      14.386  -4.069   3.608  1.00  0.00     0.274 HD
ATOM     56  H21 UNL     1      13.533  -5.469   4.072  1.00  0.00     0.274 HD
ENDBRANCH  46  53
BRANCH  47  57
HETATM   57  O12 UNL     1      13.208  -2.260   3.426  1.00  0.00    -0.388 OA
ATOM     58  H12 UNL     1      13.971  -2.792   3.228  1.00  0.00     0.210 HD
ENDBRANCH  47  57
ENDBRANCH  41  42
ENDBRANCH   3  41
BRANCH   4  59
HETATM   59  N3  UNL     1      11.330  -0.184   4.981  1.00  0.00    -0.070 N
ATOM     60  H33 UNL     1      11.184  -0.567   5.915  1.00  0.00     0.274 HD
ATOM     61  H32 UNL     1      11.752  -0.996   4.534  1.00  0.00     0.274 HD
ATOM     62  H31 UNL     1      11.980   0.602   5.005  1.00  0.00     0.274 HD
ENDBRANCH   4  59
TORSDOF 21
ENDMDL