MODEL 5
REMARK VINA RESULT: -8.556825063      1.584      3.631
REMARK  20 active torsions:
REMARK  status: ('A' for Active; 'I' for Inactive)
REMARK    1  A    between atoms: O1_2  and  C2_3
REMARK    2  A    between atoms: C4_10  and  N4_11
REMARK    3  A    between atoms: N4_11  and  C5_13
REMARK    4  A    between atoms: C5_13  and  C6_14
REMARK    5  A    between atoms: C6_14  and  O2_15
REMARK    6  A    between atoms: O2_15  and  C7_16
REMARK    7  A    between atoms: C8_18  and  O4_19
REMARK    8  A    between atoms: O4_19  and  C9_20
REMARK    9  A    between atoms: C10_21  and  N5_22
REMARK   10  A    between atoms: C12_27  and  N6_28
REMARK   11  A    between atoms: C13_32  and  C14_33
REMARK   12  A    between atoms: C13_32  and  O6_36
REMARK   13  A    between atoms: C14_33  and  O5_34
REMARK   14  A    between atoms: C16_38  and  O7_39
REMARK   15  A    between atoms: C17_41  and  O8_42
REMARK   16  A    between atoms: C19_46  and  O9_47
REMARK   17  A    between atoms: O9_47  and  C20_48
REMARK   18  A    between atoms: C21_49  and  N7_50
REMARK   19  A    between atoms: C23_55  and  N8_56
REMARK   20  A    between atoms: C25_61  and  N9_62
ROOT
HETATM    1  C5  UNL     1      12.478   2.006  -1.751  1.00  0.00     0.083 C
ENDROOT
BRANCH   1   2
HETATM    2  N4  UNL     1      11.904   2.022  -3.018  1.00  0.00    -0.377 N
ATOM      3  H4  UNL     1      12.369   1.518  -3.772  1.00  0.00     0.160 HD
BRANCH   2   4
HETATM    4  C4  UNL     1      10.700   2.711  -3.302  1.00  0.00     0.216 C
HETATM    5  N3  UNL     1      10.036   2.331  -4.506  1.00  0.00    -0.341 N
HETATM    6  C3  UNL     1       9.411   3.122  -5.272  1.00  0.00     0.187 C
ATOM      7  H3  UNL     1      10.067   1.346  -4.771  1.00  0.00     0.164 HD
HETATM    8  N1  UNL     1       9.360   4.497  -4.924  1.00  0.00    -0.336 N
HETATM    9  N2  UNL     1       8.739   2.691  -6.465  1.00  0.00    -0.064 NA
HETATM   10  C2  UNL     1      10.538   5.051  -4.277  1.00  0.00     0.255 C
ATOM     11  H1  UNL     1       8.538   5.068  -5.119  1.00  0.00     0.164 HD
HETATM   12  C19 UNL     1      10.900   4.196  -3.108  1.00  0.00     0.213 C
BRANCH  10  13
HETATM   13  O1  UNL     1      11.576   5.039  -5.210  1.00  0.00    -0.369 OA
HETATM   14  C1  UNL     1      11.377   6.032  -6.159  1.00  0.00     0.204 C
ENDBRANCH  10  13
BRANCH  12  15
HETATM   15  O9  UNL     1      10.161   4.559  -1.952  1.00  0.00    -0.368 OA
BRANCH  15  16
HETATM   16  C20 UNL     1      10.468   5.849  -1.621  1.00  0.00     0.183 C
HETATM   17  C21 UNL     1      11.796   5.911  -0.842  1.00  0.00     0.216 C
HETATM   18  C22 UNL     1      12.254   7.340  -0.859  1.00  0.00     0.068 C
HETATM   19  C23 UNL     1      11.233   8.295  -0.325  1.00  0.00     0.187 C
HETATM   20  C24 UNL     1       9.855   8.073  -0.888  1.00  0.00     0.068 C
HETATM   21  C25 UNL     1       9.481   6.587  -0.775  1.00  0.00     0.216 C
BRANCH  17  22
HETATM   22  N7  UNL     1      11.619   5.368   0.473  1.00  0.00    -0.072 N
ATOM     23  H73 UNL     1      12.403   4.777   0.751  1.00  0.00     0.274 HD
ATOM     24  H72 UNL     1      11.708   6.082   1.197  1.00  0.00     0.274 HD
ATOM     25  H71 UNL     1      10.728   4.874   0.531  1.00  0.00     0.274 HD
ENDBRANCH  17  22
BRANCH  19  26
HETATM   26  N8  UNL     1      11.656   9.641  -0.720  1.00  0.00    -0.075 N
ATOM     27  H83 UNL     1      11.875   9.716  -1.713  1.00  0.00     0.274 HD
ATOM     28  H82 UNL     1      10.895  10.321  -0.702  1.00  0.00     0.274 HD
ATOM     29  H81 UNL     1      12.437   9.899  -0.116  1.00  0.00     0.274 HD
ENDBRANCH  19  26
BRANCH  21  30
HETATM   30  N9  UNL     1       8.107   6.431  -1.137  1.00  0.00    -0.072 N
ATOM     31  H93 UNL     1       8.036   5.916  -2.015  1.00  0.00     0.274 HD
ATOM     32  H92 UNL     1       7.654   5.775  -0.501  1.00  0.00     0.274 HD
ATOM     33  H91 UNL     1       7.560   7.291  -1.194  1.00  0.00     0.274 HD
ENDBRANCH  21  30
ENDBRANCH  15  16
ENDBRANCH  12  15
ENDBRANCH   2   4
ENDBRANCH   1   2
BRANCH   1  34
HETATM   34  C6  UNL     1      11.978   0.977  -0.774  1.00  0.00     0.215 C
BRANCH  34  35
HETATM   35  O2  UNL     1      11.893   1.374   0.521  1.00  0.00    -0.353 OA
BRANCH  35  36
HETATM   36  C7  UNL     1      10.634   1.418   1.081  1.00  0.00     0.299 C
HETATM   37  O3  UNL     1      10.332   0.189   1.570  1.00  0.00    -0.326 OA
HETATM   38  C8  UNL     1       9.666   0.285   2.788  1.00  0.00     0.295 C
HETATM   39  C17 UNL     1       9.894   1.679   3.305  1.00  0.00     0.212 C
HETATM   40  C18 UNL     1      10.512   2.432   2.180  1.00  0.00     0.258 C
HETATM   41  F1  UNL     1      11.707   2.958   2.576  1.00  0.00    -0.241 F
BRANCH  38  42
HETATM   42  O4  UNL     1      10.242  -0.586   3.628  1.00  0.00    -0.348 OA
BRANCH  42  43
HETATM   43  C9  UNL     1      11.298  -1.336   3.346  1.00  0.00     0.187 C
HETATM   44  C10 UNL     1      12.254  -1.278   4.526  1.00  0.00     0.217 C
HETATM   45  C11 UNL     1      12.774  -2.622   4.942  1.00  0.00     0.071 C
HETATM   46  C12 UNL     1      13.289  -3.493   3.859  1.00  0.00     0.224 C
HETATM   47  C13 UNL     1      12.344  -3.487   2.703  1.00  0.00     0.137 C
HETATM   48  C16 UNL     1      11.039  -2.785   3.013  1.00  0.00     0.188 C
BRANCH  44  49
HETATM   49  N5  UNL     1      13.314  -0.296   4.317  1.00  0.00    -0.072 N
ATOM     50  H53 UNL     1      13.261   0.459   5.001  1.00  0.00     0.274 HD
ATOM     51  H52 UNL     1      14.227  -0.675   4.567  1.00  0.00     0.274 HD
ATOM     52  H51 UNL     1      13.310   0.065   3.363  1.00  0.00     0.274 HD
ENDBRANCH  44  49
BRANCH  46  53
HETATM   53  N6  UNL     1      14.645  -3.088   3.445  1.00  0.00    -0.072 N
ATOM     54  H63 UNL     1      14.628  -2.235   2.886  1.00  0.00     0.274 HD
ATOM     55  H62 UNL     1      15.191  -2.746   4.236  1.00  0.00     0.274 HD
ATOM     56  H61 UNL     1      15.126  -3.845   2.959  1.00  0.00     0.274 HD
ENDBRANCH  46  53
BRANCH  47  57
HETATM   57  C14 UNL     1      13.025  -2.834   1.483  1.00  0.00     0.207 C
BRANCH  57  58
HETATM   58  O5  UNL     1      13.833  -3.714   0.802  1.00  0.00    -0.398 OA
ATOM     59  H5  UNL     1      13.732  -4.608   1.109  1.00  0.00     0.209 HD
ENDBRANCH  57  58
ENDBRANCH  47  57
BRANCH  47  60
HETATM   60  O6  UNL     1      12.056  -4.767   2.273  1.00  0.00    -0.378 OA
HETATM   61  C15 UNL     1      12.126  -5.770   3.183  1.00  0.00     0.202 C
ENDBRANCH  47  60
BRANCH  48  62
HETATM   62  O7  UNL     1      10.272  -2.917   1.859  1.00  0.00    -0.390 OA
ATOM     63  H7  UNL     1      10.243  -3.817   1.558  1.00  0.00     0.210 HD
ENDBRANCH  48  62
ENDBRANCH  42  43
ENDBRANCH  38  42
BRANCH  39  64
HETATM   64  O8  UNL     1      10.777   1.646   4.400  1.00  0.00    -0.388 OA
ATOM     65  H8  UNL     1      11.675   1.617   4.091  1.00  0.00     0.210 HD
ENDBRANCH  39  64
ENDBRANCH  35  36
ENDBRANCH  34  35
ENDBRANCH   1  34
TORSDOF 20
ENDMDL