MODEL 5
REMARK VINA RESULT: -8.299532438      3.361      9.885
REMARK  22 active torsions:
REMARK  status: ('A' for Active; 'I' for Inactive)
REMARK    1  A    between atoms: N1_1  and  C1_5
REMARK    2  A    between atoms: C3_10  and  O1_11
REMARK    3  A    between atoms: O1_11  and  C4_12
REMARK    4  A    between atoms: C5_14  and  C6_15
REMARK    5  A    between atoms: C6_15  and  O3_16
REMARK    6  A    between atoms: C7_18  and  O4_19
REMARK    7  A    between atoms: O4_19  and  C8_20
REMARK    8  A    between atoms: C10_23  and  O6_24
REMARK    9  A    between atoms: C11_26  and  O7_27
REMARK   10  A    between atoms: C12_29  and  O8_30
REMARK   11  A    between atoms: C13_32  and  O9_33
REMARK   12  A    between atoms: O9_33  and  C14_34
REMARK   13  A    between atoms: C14_34  and  C15_35
REMARK   14  A    between atoms: C15_35  and  C16_36
REMARK   15  A    between atoms: C16_36  and  C17_37
REMARK   16  A    between atoms: C18_40  and  O11_41
REMARK   17  A    between atoms: C19_43  and  O12_44
REMARK   18  A    between atoms: O12_44  and  C20_45
REMARK   19  A    between atoms: C21_46  and  N3_47
REMARK   20  A    between atoms: C23_52  and  O13_53
REMARK   21  A    between atoms: C24_55  and  O14_56
REMARK   22  A    between atoms: C25_58  and  O15_59
ROOT
HETATM    1  C1  UNL     1      11.100   1.649  -2.926  1.00  0.00     0.240 C
HETATM    2  C2  UNL     1      10.793   0.171  -2.815  1.00  0.00     0.270 C
HETATM    3  N2  UNL     1      10.868  -0.264  -1.429  1.00  0.00    -0.044 N
ATOM      4  H21 UNL     1      10.735  -1.272  -1.356  1.00  0.00     0.280 HD
ATOM      5  H22 UNL     1      10.053   0.052  -0.904  1.00  0.00     0.280 HD
HETATM    6  C3  UNL     1      12.070   0.137  -0.788  1.00  0.00     0.356 C
HETATM    7  C18 UNL     1      12.274   1.608  -0.828  1.00  0.00     0.205 C
HETATM    8  C19 UNL     1      11.094   2.276  -1.505  1.00  0.00     0.187 C
ENDROOT
BRANCH   6   9
HETATM    9  O1  UNL     1      12.234  -0.434   0.473  1.00  0.00    -0.303 OA
BRANCH   9  10
HETATM   10  C4  UNL     1      11.634   0.315   1.493  1.00  0.00     0.418 C
HETATM   11  O2  UNL     1      12.269   0.031   2.665  1.00  0.00    -0.329 OA
HETATM   12  C5  UNL     1      11.896  -1.071   3.368  1.00  0.00     0.184 C
HETATM   13  C7  UNL     1      10.436  -1.406   3.353  1.00  0.00     0.211 C
HETATM   14  C13 UNL     1       9.681  -0.326   2.598  1.00  0.00     0.296 C
HETATM   15  O10 UNL     1      10.289   0.023   1.425  1.00  0.00    -0.305 OA
BRANCH  12  16
HETATM   16  C6  UNL     1      12.409  -1.014   4.813  1.00  0.00     0.199 C
BRANCH  16  17
HETATM   17  O3  UNL     1      11.472  -0.456   5.673  1.00  0.00    -0.398 OA
ATOM     18  H3  UNL     1      11.811  -0.367   6.557  1.00  0.00     0.209 HD
ENDBRANCH  16  17
ENDBRANCH  12  16
BRANCH  13  19
HETATM   19  O4  UNL     1      10.181  -2.667   2.821  1.00  0.00    -0.346 OA
BRANCH  19  20
HETATM   20  C8  UNL     1      11.346  -3.383   2.671  1.00  0.00     0.291 C
HETATM   21  O5  UNL     1      11.338  -4.298   1.632  1.00  0.00    -0.356 OA
HETATM   22  C9  UNL     1      12.683  -4.564   1.326  1.00  0.00     0.205 C
HETATM   23  C10 UNL     1      13.260  -5.410   2.433  1.00  0.00     0.173 C
HETATM   24  C11 UNL     1      13.108  -4.697   3.743  1.00  0.00     0.182 C
HETATM   25  C12 UNL     1      11.707  -4.184   3.924  1.00  0.00     0.204 C
BRANCH  23  26
HETATM   26  O6  UNL     1      14.613  -5.603   2.149  1.00  0.00    -0.391 OA
ATOM     27  H6  UNL     1      15.111  -5.175   2.835  1.00  0.00     0.210 HD
ENDBRANCH  23  26
BRANCH  24  28
HETATM   28  O7  UNL     1      13.400  -5.532   4.827  1.00  0.00    -0.390 OA
ATOM     29  H7  UNL     1      13.633  -5.035   5.603  1.00  0.00     0.210 HD
ENDBRANCH  24  28
BRANCH  25  30
HETATM   30  O8  UNL     1      10.801  -5.216   4.042  1.00  0.00    -0.388 OA
ATOM     31  H8  UNL     1      11.247  -5.952   4.446  1.00  0.00     0.210 HD
ENDBRANCH  25  30
ENDBRANCH  19  20
ENDBRANCH  13  19
BRANCH  14  32
HETATM   32  O9  UNL     1       9.477   0.737   3.460  1.00  0.00    -0.358 OA
BRANCH  32  33
HETATM   33  C14 UNL     1       8.453   1.561   2.883  1.00  0.00     0.171 C
BRANCH  33  34
HETATM   34  C15 UNL     1       8.881   2.977   2.885  1.00  0.00     0.029 C
BRANCH  34  35
HETATM   35  C16 UNL     1       7.805   3.938   3.225  1.00  0.00     0.033 C
BRANCH  35  36
HETATM   36  C17 UNL     1       6.778   3.440   4.173  1.00  0.00     0.222 C
HETATM   37  F1  UNL     1       5.537   3.432   3.606  1.00  0.00    -0.255 F
ENDBRANCH  35  36
ENDBRANCH  34  35
ENDBRANCH  33  34
ENDBRANCH  32  33
ENDBRANCH  14  32
ENDBRANCH   9  10
ENDBRANCH   6   9
BRANCH   7  38
HETATM   38  O11 UNL     1      13.485   1.980  -1.396  1.00  0.00    -0.389 OA
ATOM     39  H11 UNL     1      13.514   2.893  -1.656  1.00  0.00     0.210 HD
ENDBRANCH   7  38
BRANCH   8  40
HETATM   40  O12 UNL     1      11.345   3.575  -1.669  1.00  0.00    -0.371 OA
BRANCH  40  41
HETATM   41  C20 UNL     1      10.896   4.575  -0.891  1.00  0.00     0.183 C
HETATM   42  C21 UNL     1      11.365   5.961  -1.277  1.00  0.00     0.217 C
HETATM   43  C22 UNL     1      10.345   6.659  -2.182  1.00  0.00     0.069 C
HETATM   44  C23 UNL     1       9.152   6.945  -1.336  1.00  0.00     0.151 C
HETATM   45  C24 UNL     1       9.145   6.049  -0.098  1.00  0.00     0.178 C
HETATM   46  C25 UNL     1       9.434   4.645  -0.605  1.00  0.00     0.180 C
BRANCH  42  47
HETATM   47  N3  UNL     1      12.679   5.996  -1.866  1.00  0.00    -0.072 N
ATOM     48  H33 UNL     1      13.182   5.131  -1.671  1.00  0.00     0.274 HD
ATOM     49  H32 UNL     1      12.617   5.934  -2.882  1.00  0.00     0.274 HD
ATOM     50  H31 UNL     1      13.239   6.804  -1.591  1.00  0.00     0.274 HD
ENDBRANCH  42  47
BRANCH  44  51
HETATM   51  O13 UNL     1       9.261   8.258  -0.864  1.00  0.00    -0.393 OA
ATOM     52  H13 UNL     1       8.487   8.449  -0.347  1.00  0.00     0.210 HD
ENDBRANCH  44  51
BRANCH  45  53
HETATM   53  O14 UNL     1       7.796   6.104   0.355  1.00  0.00    -0.390 OA
ATOM     54  H14 UNL     1       7.427   5.276   0.071  1.00  0.00     0.210 HD
ENDBRANCH  45  53
BRANCH  46  55
HETATM   55  O15 UNL     1       8.611   4.501  -1.709  1.00  0.00    -0.390 OA
ATOM     56  H15 UNL     1       8.010   3.767  -1.670  1.00  0.00     0.210 HD
ENDBRANCH  46  55
ENDBRANCH  40  41
ENDBRANCH   8  40
BRANCH   1  57
HETATM   57  N1  UNL     1      10.057   2.223  -3.749  1.00  0.00    -0.071 N
ATOM     58  H13 UNL     1      10.262   2.186  -4.747  1.00  0.00     0.274 HD
ATOM     59  H12 UNL     1       9.206   1.661  -3.775  1.00  0.00     0.274 HD
ATOM     60  H11 UNL     1       9.904   3.170  -3.403  1.00  0.00     0.274 HD
ENDBRANCH   1  57
TORSDOF 22
ENDMDL