MODEL 2
REMARK VINA RESULT: -7.399776501      1.462      1.705
REMARK  21 active torsions:
REMARK  status: ('A' for Active; 'I' for Inactive)
REMARK    1  A    between atoms: N1_1  and  C1_5
REMARK    2  A    between atoms: C1_5  and  C2_6
REMARK    3  A    between atoms: C2_6  and  O1_7
REMARK    4  A    between atoms: O1_7  and  C3_8
REMARK    5  A    between atoms: C4_9  and  O2_10
REMARK    6  A    between atoms: O2_10  and  C5_11
REMARK    7  A    between atoms: C6_12  and  N2_13
REMARK    8  A    between atoms: C8_18  and  N3_19
REMARK    9  A    between atoms: C9_23  and  O3_24
REMARK   10  A    between atoms: C11_29  and  C12_30
REMARK   11  A    between atoms: C12_30  and  O5_31
REMARK   12  A    between atoms: C13_33  and  O6_34
REMARK   13  A    between atoms: O6_34  and  C14_35
REMARK   14  A    between atoms: C15_37  and  O8_38
REMARK   15  A    between atoms: O8_38  and  C16_39
REMARK   16  A    between atoms: C17_41  and  C18_42
REMARK   17  A    between atoms: C18_42  and  N4_43
REMARK   18  A    between atoms: C18_42  and  N5_47
REMARK   19  A    between atoms: C19_51  and  O10_52
REMARK   20  A    between atoms: C20_54  and  O11_55
REMARK   21  A    between atoms: C21_57  and  N6_58
ROOT
HETATM    1  C3  UNL     1       9.800   1.320   1.934  1.00  0.00     0.208 C
HETATM    2  C4  UNL     1       9.346   2.379   0.890  1.00  0.00     0.292 C
HETATM    3  O4  UNL     1       9.866   3.553   1.389  1.00  0.00    -0.348 OA
HETATM    4  C11 UNL     1      11.226   3.633   1.365  1.00  0.00     0.180 C
HETATM    5  C13 UNL     1      12.005   2.370   1.451  1.00  0.00     0.194 C
HETATM    6  C15 UNL     1      11.221   1.097   1.628  1.00  0.00     0.190 C
ENDROOT
BRANCH   6   7
HETATM    7  O8  UNL     1      11.942   0.219   2.390  1.00  0.00    -0.348 OA
BRANCH   7   8
HETATM    8  C16 UNL     1      11.477  -1.017   2.635  1.00  0.00     0.294 C
HETATM    9  O9  UNL     1      12.354  -1.926   2.025  1.00  0.00    -0.347 OA
HETATM   10  C17 UNL     1      12.324  -3.192   2.590  1.00  0.00     0.213 C
HETATM   11  C19 UNL     1      12.995  -3.222   3.946  1.00  0.00     0.182 C
HETATM   12  C20 UNL     1      12.874  -1.811   4.508  1.00  0.00     0.184 C
HETATM   13  C21 UNL     1      11.489  -1.344   4.098  1.00  0.00     0.269 C
BRANCH  10  14
HETATM   14  C18 UNL     1      13.063  -4.156   1.692  1.00  0.00     0.409 C
BRANCH  14  15
HETATM   15  N4  UNL     1      12.613  -4.109   0.322  1.00  0.00    -0.048 N
ATOM     16  H43 UNL     1      11.656  -4.452   0.242  1.00  0.00     0.276 HD
ATOM     17  H42 UNL     1      12.470  -3.145   0.020  1.00  0.00     0.276 HD
ATOM     18  H41 UNL     1      13.233  -4.604  -0.318  1.00  0.00     0.276 HD
ENDBRANCH  14  15
BRANCH  14  19
HETATM   19  N5  UNL     1      12.773  -5.495   2.187  1.00  0.00    -0.048 N
ATOM     20  H53 UNL     1      12.787  -5.559   3.205  1.00  0.00     0.276 HD
ATOM     21  H52 UNL     1      11.801  -5.771   2.054  1.00  0.00     0.276 HD
ATOM     22  H51 UNL     1      13.437  -6.125   1.735  1.00  0.00     0.276 HD
ENDBRANCH  14  19
ENDBRANCH  10  14
BRANCH  11  23
HETATM   23  O10 UNL     1      14.283  -3.681   3.923  1.00  0.00    -0.390 OA
ATOM     24  H10 UNL     1      14.573  -4.070   4.740  1.00  0.00     0.210 HD
ENDBRANCH  11  23
BRANCH  12  25
HETATM   25  O11 UNL     1      13.801  -0.941   3.989  1.00  0.00    -0.391 OA
ATOM     26  H11 UNL     1      13.538  -0.565   3.157  1.00  0.00     0.210 HD
ENDBRANCH  12  25
BRANCH  13  27
HETATM   27  N6  UNL     1      11.071  -0.192   4.853  1.00  0.00    -0.068 N
ATOM     28  H63 UNL     1      10.493  -0.447   5.654  1.00  0.00     0.275 HD
ATOM     29  H62 UNL     1      11.844   0.236   5.362  1.00  0.00     0.275 HD
ATOM     30  H61 UNL     1      10.602   0.470   4.236  1.00  0.00     0.275 HD
ENDBRANCH  13  27
ENDBRANCH   7   8
ENDBRANCH   6   7
BRANCH   1  31
HETATM   31  O1  UNL     1       9.483   1.902   3.133  1.00  0.00    -0.377 OA
BRANCH  31  32
HETATM   32  C2  UNL     1       8.193   1.697   3.522  1.00  0.00     0.195 C
BRANCH  32  33
HETATM   33  C1  UNL     1       7.853   2.834   4.499  1.00  0.00     0.255 C
BRANCH  33  34
HETATM   34  N1  UNL     1       8.294   4.106   3.949  1.00  0.00    -0.077 N
ATOM     35  H13 UNL     1       8.093   4.183   2.953  1.00  0.00     0.274 HD
ATOM     36  H12 UNL     1       7.722   4.883   4.278  1.00  0.00     0.274 HD
ATOM     37  H11 UNL     1       9.284   4.246   4.152  1.00  0.00     0.274 HD
ENDBRANCH  33  34
ENDBRANCH  32  33
ENDBRANCH  31  32
ENDBRANCH   1  31
BRANCH   5  38
HETATM   38  O6  UNL     1      12.743   2.275   0.248  1.00  0.00    -0.318 OA
BRANCH  38  39
HETATM   39  C14 UNL     1      12.602   1.324  -0.702  1.00  0.00     0.398 C
HETATM   40  O7  UNL     1      13.057   1.516  -1.854  1.00  0.00    -0.276 OA
ENDBRANCH  38  39
ENDBRANCH   5  38
BRANCH   2  41
HETATM   41  O2  UNL     1       9.909   2.118  -0.336  1.00  0.00    -0.350 OA
BRANCH  41  42
HETATM   42  C5  UNL     1       8.997   2.249  -1.384  1.00  0.00     0.172 C
HETATM   43  C6  UNL     1       9.305   1.289  -2.488  1.00  0.00     0.215 C
HETATM   44  C7  UNL     1       9.928   1.946  -3.694  1.00  0.00     0.070 C
HETATM   45  C8  UNL     1       9.181   3.139  -4.198  1.00  0.00     0.215 C
HETATM   46  C9  UNL     1       8.263   3.754  -3.159  1.00  0.00     0.165 C
HETATM   47  C10 UNL     1       8.977   3.681  -1.822  1.00  0.00     0.119 C
HETATM   48 BR1  UNL     1      10.730   4.470  -1.971  1.00  0.00    -0.086 Br
BRANCH  43  49
HETATM   49  N2  UNL     1       8.124   0.537  -2.901  1.00  0.00    -0.072 N
ATOM     50  H23 UNL     1       7.722   0.019  -2.121  1.00  0.00     0.274 HD
ATOM     51  H22 UNL     1       7.341   1.159  -3.102  1.00  0.00     0.274 HD
ATOM     52  H21 UNL     1       8.321  -0.077  -3.691  1.00  0.00     0.274 HD
ENDBRANCH  43  49
BRANCH  45  53
HETATM   53  N3  UNL     1       8.453   2.883  -5.404  1.00  0.00    -0.072 N
ATOM     54  H33 UNL     1       7.916   2.019  -5.327  1.00  0.00     0.274 HD
ATOM     55  H32 UNL     1       7.687   3.549  -5.512  1.00  0.00     0.274 HD
ATOM     56  H31 UNL     1       9.042   2.870  -6.236  1.00  0.00     0.274 HD
ENDBRANCH  45  53
BRANCH  46  57
HETATM   57  O3  UNL     1       8.098   5.097  -3.479  1.00  0.00    -0.392 OA
ATOM     58  H3  UNL     1       7.232   5.202  -3.856  1.00  0.00     0.210 HD
ENDBRANCH  46  57
ENDBRANCH  41  42
ENDBRANCH   2  41
BRANCH   4  59
HETATM   59  C12 UNL     1      11.650   4.533   2.504  1.00  0.00     0.198 C
BRANCH  59  60
HETATM   60  O5  UNL     1      12.598   3.944   3.313  1.00  0.00    -0.398 OA
ATOM     61  H5  UNL     1      13.415   4.429   3.326  1.00  0.00     0.209 HD
ENDBRANCH  59  60
ENDBRANCH   4  59
TORSDOF 21
ENDMDL