MODEL 3
REMARK VINA RESULT: -8.638596627      2.947      3.711
REMARK  21 active torsions:
REMARK  status: ('A' for Active; 'I' for Inactive)
REMARK    1  A    between atoms: C3_6  and  O1_7
REMARK    2  A    between atoms: O1_7  and  C4_8
REMARK    3  A    between atoms: C5_10  and  C6_11
REMARK    4  A    between atoms: C6_11  and  O3_12
REMARK    5  A    between atoms: C7_14  and  O4_15
REMARK    6  A    between atoms: O4_15  and  C8_16
REMARK    7  A    between atoms: C9_18  and  S1_19
REMARK    8  A    between atoms: S1_19  and  C10_20
REMARK    9  A    between atoms: C11_21  and  N2_22
REMARK   10  A    between atoms: C12_26  and  O5_27
REMARK   11  A    between atoms: C13_29  and  O6_30
REMARK   12  A    between atoms: C14_32  and  O7_33
REMARK   13  A    between atoms: O7_33  and  C15_34
REMARK   14  A    between atoms: C16_36  and  C17_37
REMARK   15  A    between atoms: C17_37  and  O9_38
REMARK   16  A    between atoms: C18_40  and  O10_41
REMARK   17  A    between atoms: C19_43  and  N3_44
REMARK   18  A    between atoms: C20_48  and  N4_49
REMARK   19  A    between atoms: C21_53  and  O11_54
REMARK   20  A    between atoms: C22_56  and  N5_57
REMARK   21  A    between atoms: C23_61  and  O12_62
ROOT
HETATM    1  C10 UNL     1       9.623   3.179  -2.132  1.00  0.00     0.114 C
HETATM    2  C11 UNL     1      10.088   2.121  -3.066  1.00  0.00     0.230 C
HETATM    3  C12 UNL     1      10.434   2.721  -4.413  1.00  0.00     0.181 C
HETATM    4  C13 UNL     1       9.452   3.643  -5.000  1.00  0.00     0.180 C
HETATM    5  C14 UNL     1       8.594   4.413  -4.054  1.00  0.00     0.187 C
HETATM    6  C20 UNL     1       8.317   3.730  -2.754  1.00  0.00     0.230 C
ENDROOT
BRANCH   1   7
HETATM    7  S1  UNL     1       9.395   2.668  -0.494  1.00  0.00    -0.150 SA
BRANCH   7   8
HETATM    8  C9  UNL     1      10.108   1.232   0.211  1.00  0.00     0.113 C
HETATM    9  C7  UNL     1       9.986   1.115   1.719  1.00  0.00     0.172 C
HETATM   10  C5  UNL     1      11.304   1.093   2.432  1.00  0.00     0.178 C
HETATM   11  O2  UNL     1      12.350   0.627   1.645  1.00  0.00    -0.349 OA
HETATM   12  C4  UNL     1      11.964  -0.270   0.681  1.00  0.00     0.293 C
HETATM   13  C21 UNL     1      11.291   0.600  -0.403  1.00  0.00     0.189 C
BRANCH   9  14
HETATM   14  O4  UNL     1       9.273   2.188   2.249  1.00  0.00    -0.353 OA
BRANCH  14  15
HETATM   15  C8  UNL     1       8.408   1.791   3.266  1.00  0.00     0.392 C
HETATM   16  F1  UNL     1       8.735   2.322   4.475  1.00  0.00    -0.227 F
ENDBRANCH  14  15
ENDBRANCH   9  14
BRANCH  10  17
HETATM   17  C6  UNL     1      11.748   2.439   2.960  1.00  0.00     0.198 C
BRANCH  17  18
HETATM   18  O3  UNL     1      12.723   3.057   2.226  1.00  0.00    -0.398 OA
ATOM     19  H3  UNL     1      12.654   4.003   2.180  1.00  0.00     0.209 HD
ENDBRANCH  17  18
ENDBRANCH  10  17
BRANCH  12  20
HETATM   20  O1  UNL     1      11.146  -1.280   1.114  1.00  0.00    -0.324 OA
BRANCH  20  21
HETATM   21  C3  UNL     1      11.778  -2.486   1.306  1.00  0.00     0.357 C
HETATM   22  N1  UNL     1      11.013  -3.619   0.824  1.00  0.00    -0.040 N
HETATM   23  C2  UNL     1      11.584  -4.764   1.521  1.00  0.00     0.215 C
ATOM     24  H12 UNL     1      11.002  -3.713  -0.192  1.00  0.00     0.280 HD
ATOM     25  H11 UNL     1      10.005  -3.522   0.939  1.00  0.00     0.280 HD
HETATM   26  C1  UNL     1      12.909  -5.122   0.894  1.00  0.00     0.043 C
HETATM   27  C23 UNL     1      11.853  -4.273   2.937  1.00  0.00     0.183 C
HETATM   28  C22 UNL     1      11.824  -2.773   2.802  1.00  0.00     0.270 C
BRANCH  27  29
HETATM   29  O12 UNL     1      10.784  -4.686   3.750  1.00  0.00    -0.391 OA
ATOM     30  H12 UNL     1      11.138  -4.937   4.594  1.00  0.00     0.210 HD
ENDBRANCH  27  29
BRANCH  28  31
HETATM   31  N5  UNL     1      10.549  -2.269   3.338  1.00  0.00    -0.068 N
ATOM     32  H53 UNL     1       9.785  -2.943   3.281  1.00  0.00     0.275 HD
ATOM     33  H52 UNL     1      10.543  -2.166   4.353  1.00  0.00     0.275 HD
ATOM     34  H51 UNL     1      10.368  -1.400   2.835  1.00  0.00     0.275 HD
ENDBRANCH  28  31
ENDBRANCH  20  21
ENDBRANCH  12  20
BRANCH  13  35
HETATM   35  O11 UNL     1      12.273   1.353  -0.938  1.00  0.00    -0.389 OA
ATOM     36  H11 UNL     1      13.083   0.888  -0.765  1.00  0.00     0.210 HD
ENDBRANCH  13  35
ENDBRANCH   7   8
ENDBRANCH   1   7
BRANCH   2  37
HETATM   37  N2  UNL     1       9.190   0.996  -3.200  1.00  0.00    -0.071 N
ATOM     38  H23 UNL     1       9.617   0.154  -2.812  1.00  0.00     0.274 HD
ATOM     39  H22 UNL     1       8.397   1.098  -2.566  1.00  0.00     0.274 HD
ATOM     40  H21 UNL     1       8.863   0.822  -4.150  1.00  0.00     0.274 HD
ENDBRANCH   2  37
BRANCH   6  41
HETATM   41  N4  UNL     1       7.295   2.707  -2.831  1.00  0.00    -0.071 N
ATOM     42  H43 UNL     1       7.646   1.862  -3.281  1.00  0.00     0.274 HD
ATOM     43  H42 UNL     1       7.084   2.319  -1.911  1.00  0.00     0.274 HD
ATOM     44  H41 UNL     1       6.454   3.054  -3.292  1.00  0.00     0.274 HD
ENDBRANCH   6  41
BRANCH   3  45
HETATM   45  O5  UNL     1      10.718   1.638  -5.248  1.00  0.00    -0.391 OA
ATOM     46  H5  UNL     1      11.568   1.317  -4.973  1.00  0.00     0.210 HD
ENDBRANCH   3  45
BRANCH   5  47
HETATM   47  O7  UNL     1       7.370   4.783  -4.613  1.00  0.00    -0.349 OA
BRANCH  47  48
HETATM   48  C15 UNL     1       7.158   6.138  -4.621  1.00  0.00     0.294 C
HETATM   49  O8  UNL     1       7.840   6.797  -5.643  1.00  0.00    -0.349 OA
HETATM   50  C16 UNL     1       7.062   6.629  -6.762  1.00  0.00     0.179 C
HETATM   51  C18 UNL     1       5.666   6.907  -6.291  1.00  0.00     0.184 C
HETATM   52  C19 UNL     1       5.757   6.585  -4.816  1.00  0.00     0.269 C
BRANCH  50  53
HETATM   53  C17 UNL     1       7.486   7.541  -7.889  1.00  0.00     0.198 C
BRANCH  53  54
HETATM   54  O9  UNL     1       7.858   6.851  -9.030  1.00  0.00    -0.398 OA
ATOM     55  H9  UNL     1       7.487   5.978  -9.071  1.00  0.00     0.209 HD
ENDBRANCH  53  54
ENDBRANCH  50  53
BRANCH  51  56
HETATM   56  O10 UNL     1       4.816   5.969  -6.870  1.00  0.00    -0.391 OA
ATOM     57  H10 UNL     1       5.259   5.129  -6.876  1.00  0.00     0.210 HD
ENDBRANCH  51  56
BRANCH  52  58
HETATM   58  N3  UNL     1       4.743   5.690  -4.372  1.00  0.00    -0.068 N
ATOM     59  H33 UNL     1       4.762   4.840  -4.935  1.00  0.00     0.275 HD
ATOM     60  H32 UNL     1       4.993   5.311  -3.458  1.00  0.00     0.275 HD
ATOM     61  H31 UNL     1       3.794   6.062  -4.342  1.00  0.00     0.275 HD
ENDBRANCH  52  58
ENDBRANCH  47  48
ENDBRANCH   5  47
BRANCH   4  62
HETATM   62  O6  UNL     1       8.593   2.904  -5.836  1.00  0.00    -0.390 OA
ATOM     63  H6  UNL     1       7.989   3.507  -6.254  1.00  0.00     0.210 HD
ENDBRANCH   4  62
TORSDOF 21
ENDMDL