MODEL 4
REMARK VINA RESULT: -8.937456946      3.189      9.967
REMARK  19 active torsions:
REMARK  status: ('A' for Active; 'I' for Inactive)
REMARK    1  A    between atoms: C2_7  and  N3_8
REMARK    2  A    between atoms: C4_10  and  N4_11
REMARK    3  A    between atoms: C6_16  and  N5_17
REMARK    4  A    between atoms: N8_28  and  C10_29
REMARK    5  A    between atoms: C11_30  and  O1_31
REMARK    6  A    between atoms: C12_33  and  O2_34
REMARK    7  A    between atoms: C13_36  and  N9_37
REMARK    8  A    between atoms: N9_37  and  C14_39
REMARK    9  A    between atoms: C14_39  and  C15_40
REMARK   10  A    between atoms: C15_40  and  O3_41
REMARK   11  A    between atoms: O3_41  and  C16_42
REMARK   12  A    between atoms: C16_42  and  C17_43
REMARK   13  A    between atoms: C17_43  and  O4_44
REMARK   14  A    between atoms: O4_44  and  C18_45
REMARK   15  A    between atoms: C20_48  and  O6_49
REMARK   16  A    between atoms: C21_51  and  O7_52
REMARK   17  A    between atoms: C22_54  and  N10_55
REMARK   18  A    between atoms: N11_60  and  C24_61
REMARK   19  A    between atoms: C24_61  and  C25_62
ROOT
HETATM    1  C10 UNL     1      10.709   0.508  -0.342  1.00  0.00     0.362 C
HETATM    2  C11 UNL     1      11.787   0.654  -1.366  1.00  0.00     0.202 C
HETATM    3  C12 UNL     1      11.229   0.925  -2.752  1.00  0.00     0.174 C
HETATM    4  C13 UNL     1      10.051   1.847  -2.704  1.00  0.00     0.136 C
HETATM    5  C23 UNL     1       9.047   1.451  -1.643  1.00  0.00     0.302 C
HETATM    6  N11 UNL     1       9.715   1.523  -0.377  1.00  0.00     0.118 N
ENDROOT
BRANCH   1   7
HETATM    7  N8  UNL     1      11.202   0.177   0.981  1.00  0.00    -0.293 N
HETATM    8  C7  UNL     1      11.415  -1.077   1.410  1.00  0.00     0.157 A
HETATM    9  N6  UNL     1      11.262  -2.301   0.815  1.00  0.00    -0.174 N
HETATM   10  C8  UNL     1      11.874  -1.015   2.694  1.00  0.00     0.123 A
HETATM   11  C2  UNL     1      11.567  -3.409   1.511  1.00  0.00     0.685 A
ATOM     12  H6  UNL     1      10.921  -2.371  -0.144  1.00  0.00     0.186 HD
HETATM   13  N2  UNL     1      12.018  -3.339   2.777  1.00  0.00    -0.175 N
HETATM   14  C1  UNL     1      12.192  -2.167   3.420  1.00  0.00     0.145 A
ATOM     15  H2  UNL     1      12.238  -4.206   3.268  1.00  0.00     0.186 HD
HETATM   16  N1  UNL     1      12.616  -2.071   4.616  1.00  0.00    -0.383 N
ATOM     17  H12 UNL     1      12.848  -2.911   5.146  1.00  0.00     0.157 HD
ATOM     18  H11 UNL     1      12.747  -1.184   5.102  1.00  0.00     0.157 HD
HETATM   19  N7  UNL     1      11.927   0.285   3.009  1.00  0.00    -0.346 N
HETATM   20  C9  UNL     1      11.514   1.012   1.956  1.00  0.00     0.187 A
ATOM     21  H7  UNL     1      12.231   0.664   3.906  1.00  0.00     0.167 HD
BRANCH  11  22
HETATM   22  N3  UNL     1      11.418  -4.706   0.912  1.00  0.00    -0.186 N
HETATM   23  C3  UNL     1      10.660  -5.035  -0.277  1.00  0.00     0.176 C
HETATM   24  C4  UNL     1      11.544  -6.079  -0.940  1.00  0.00     0.205 C
HETATM   25  C5  UNL     1      11.948  -6.910   0.279  1.00  0.00     0.089 C
HETATM   26  C6  UNL     1      12.011  -5.919   1.422  1.00  0.00     0.301 C
BRANCH  24  27
HETATM   27  N4  UNL     1      10.843  -6.855  -1.918  1.00  0.00    -0.073 N
ATOM     28  H43 UNL     1       9.844  -6.887  -1.713  1.00  0.00     0.274 HD
ATOM     29  H42 UNL     1      10.812  -6.372  -2.816  1.00  0.00     0.274 HD
ATOM     30  H41 UNL     1      11.226  -7.796  -2.023  1.00  0.00     0.274 HD
ENDBRANCH  24  27
BRANCH  26  31
HETATM   31  N5  UNL     1      13.390  -5.701   1.843  1.00  0.00    -0.058 N
ATOM     32  H53 UNL     1      13.764  -6.513   2.334  1.00  0.00     0.276 HD
ATOM     33  H52 UNL     1      14.026  -5.692   1.046  1.00  0.00     0.276 HD
ATOM     34  H51 UNL     1      13.479  -4.853   2.402  1.00  0.00     0.276 HD
ENDBRANCH  26  31
ENDBRANCH  11  22
ENDBRANCH   1   7
BRANCH   2  35
HETATM   35  O1  UNL     1      12.590   1.744  -1.052  1.00  0.00    -0.389 OA
ATOM     36  H1  UNL     1      13.273   1.476  -0.448  1.00  0.00     0.210 HD
ENDBRANCH   2  35
BRANCH   6  37
HETATM   37  C24 UNL     1      10.045   2.800   0.109  1.00  0.00     0.306 C
BRANCH  37  38
HETATM   38  C25 UNL     1       8.894   3.388   0.904  1.00  0.00     0.252 C
HETATM   39  F1  UNL     1       8.299   2.502   1.746  1.00  0.00    -0.254 F
ENDBRANCH  37  38
ENDBRANCH   6  37
BRANCH   3  40
HETATM   40  O2  UNL     1      10.844  -0.290  -3.301  1.00  0.00    -0.391 OA
ATOM     41  H2  UNL     1       9.966  -0.483  -2.995  1.00  0.00     0.210 HD
ENDBRANCH   3  40
BRANCH   4  42
HETATM   42  N9  UNL     1       9.447   2.160  -3.945  1.00  0.00    -0.411 N
ATOM     43  H9  UNL     1       8.476   1.900  -4.121  1.00  0.00     0.153 HD
BRANCH  42  44
HETATM   44  C14 UNL     1      10.187   2.830  -4.939  1.00  0.00     0.140 C
BRANCH  44  45
HETATM   45  C15 UNL     1       9.178   3.174  -6.058  1.00  0.00     0.186 C
BRANCH  45  46
HETATM   46  O3  UNL     1       9.335   4.493  -6.451  1.00  0.00    -0.387 OA
BRANCH  46  47
HETATM   47  C16 UNL     1       8.568   5.356  -5.695  1.00  0.00     0.194 C
BRANCH  47  48
HETATM   48  C17 UNL     1       9.336   6.518  -5.157  1.00  0.00     0.197 C
BRANCH  48  49
HETATM   49  O4  UNL     1       9.641   6.487  -3.825  1.00  0.00    -0.357 OA
BRANCH  49  50
HETATM   50  C18 UNL     1      10.925   6.028  -3.557  1.00  0.00     0.292 C
HETATM   51  O5  UNL     1      11.869   7.028  -3.797  1.00  0.00    -0.356 OA
HETATM   52  C19 UNL     1      12.503   7.513  -2.689  1.00  0.00     0.205 C
HETATM   53  C20 UNL     1      11.463   7.831  -1.628  1.00  0.00     0.173 C
HETATM   54  C21 UNL     1      10.999   6.487  -1.100  1.00  0.00     0.184 C
HETATM   55  C22 UNL     1      11.033   5.437  -2.194  1.00  0.00     0.269 C
BRANCH  53  56
HETATM   56  O6  UNL     1      11.949   8.640  -0.621  1.00  0.00    -0.391 OA
ATOM     57  H6  UNL     1      12.252   8.152   0.135  1.00  0.00     0.210 HD
ENDBRANCH  53  56
BRANCH  54  58
HETATM   58  O7  UNL     1      11.871   6.086  -0.091  1.00  0.00    -0.391 OA
ATOM     59  H7  UNL     1      12.030   5.154  -0.185  1.00  0.00     0.210 HD
ENDBRANCH  54  58
BRANCH  55  60
HETATM   60  N10 UNL     1      12.203   4.586  -2.113  1.00  0.00    -0.068 N
ATOM     61 3H10 UNL     1      13.061   5.126  -1.998  1.00  0.00     0.275 HD
ATOM     62 2H10 UNL     1      12.237   4.065  -1.237  1.00  0.00     0.275 HD
ATOM     63 1H10 UNL     1      12.245   3.970  -2.925  1.00  0.00     0.275 HD
ENDBRANCH  55  60
ENDBRANCH  49  50
ENDBRANCH  48  49
ENDBRANCH  47  48
ENDBRANCH  46  47
ENDBRANCH  45  46
ENDBRANCH  44  45
ENDBRANCH  42  44
ENDBRANCH   4  42
TORSDOF 19
ENDMDL