MODEL 5
REMARK VINA RESULT: -8.483727733      3.694      8.491
REMARK  18 active torsions:
REMARK  status: ('A' for Active; 'I' for Inactive)
REMARK    1  A    between atoms: C2_2  and  N1_3
REMARK    2  A    between atoms: C2_2  and  C17_43
REMARK    3  A    between atoms: N1_3  and  N2_5
REMARK    4  A    between atoms: N2_5  and  N3_7
REMARK       I    between atoms: N3_7  and  C3_9
REMARK       I    between atoms: C3_9  and  N4_11
REMARK    5  A    between atoms: N4_11  and  C4_13
REMARK    6  A    between atoms: C6_18  and  O3_19
REMARK    7  A    between atoms: O3_19  and  C7_20
REMARK    8  A    between atoms: C8_21  and  N6_22
REMARK    9  A    between atoms: C9_24  and  O4_25
REMARK   10  A    between atoms: C9_24  and  C10_27
REMARK   11  A    between atoms: C10_27  and  N7_28
REMARK   12  A    between atoms: C15_37  and  O5_38
REMARK   13  A    between atoms: C16_40  and  O6_41
REMARK   14  A    between atoms: C18_47  and  S1_48
REMARK   15  A    between atoms: S1_48  and  C19_49
REMARK   16  A    between atoms: C19_49  and  C20_50
REMARK   17  A    between atoms: C20_50  and  N9_51
REMARK   18  A    between atoms: N9_51  and  C21_53
ROOT
HETATM    1  N3  UNL     1       7.323   3.601  -3.774  1.00  0.00    -0.237 N
ATOM      2  H3  UNL     1       6.788   3.949  -2.978  1.00  0.00     0.193 HD
HETATM    3  C3  UNL     1       8.392   2.651  -3.556  1.00  0.00     0.337 C
HETATM    4  O1  UNL     1       9.013   2.247  -4.567  1.00  0.00    -0.245 OA
HETATM    5  N4  UNL     1       8.688   2.228  -2.239  1.00  0.00    -0.318 N
ATOM      6  H4  UNL     1       8.157   2.591  -1.449  1.00  0.00     0.166 HD
ENDROOT
BRANCH   5   7
HETATM    7  C4  UNL     1       9.770   1.257  -2.023  1.00  0.00     0.220 C
HETATM    8  N5  UNL     1      11.057   1.944  -2.254  1.00  0.00    -0.335 N
HETATM    9  C5  UNL     1      11.992   1.514  -1.274  1.00  0.00     0.251 C
ATOM     10  H5  UNL     1      11.244   2.617  -2.998  1.00  0.00     0.164 HD
HETATM   11  O2  UNL     1      13.173   1.953  -1.255  1.00  0.00    -0.271 OA
HETATM   12  C6  UNL     1      11.302   0.555  -0.406  1.00  0.00     0.246 C
HETATM   13  C16 UNL     1       9.849   0.962  -0.544  1.00  0.00     0.198 C
BRANCH  12  14
HETATM   14  O3  UNL     1      11.750   0.482   0.865  1.00  0.00    -0.360 OA
BRANCH  14  15
HETATM   15  C7  UNL     1      11.258  -0.546   1.654  1.00  0.00     0.197 C
HETATM   16  C8  UNL     1      11.741  -0.401   3.084  1.00  0.00     0.023 C
HETATM   17  C11 UNL     1      12.627  -1.370   3.705  1.00  0.00     0.098 C
HETATM   18  C12 UNL     1      12.308  -2.802   3.364  1.00  0.00     0.107 C
HETATM   19  C13 UNL     1      13.559  -3.596   3.078  1.00  0.00     0.052 C
HETATM   20  F1  UNL     1      11.665  -3.394   4.431  1.00  0.00    -0.243 F
HETATM   21  C14 UNL     1      11.406  -2.911   2.159  1.00  0.00     0.078 C
HETATM   22  C15 UNL     1      11.806  -1.861   1.169  1.00  0.00     0.155 C
BRANCH  16  23
HETATM   23  N6  UNL     1      11.316   0.605   3.686  1.00  0.00    -0.344 N
HETATM   24  C9  UNL     1      11.099   1.939   3.523  1.00  0.00     0.141 C
ATOM     25  H6  UNL     1      11.034   0.334   4.629  1.00  0.00     0.167 HD
BRANCH  24  26
HETATM   26  O4  UNL     1       9.876   2.327   3.771  1.00  0.00    -0.348 OA
ATOM     27  H4  UNL     1       9.361   2.533   2.999  1.00  0.00     0.219 HD
ENDBRANCH  24  26
BRANCH  24  28
HETATM   28  C10 UNL     1      11.997   3.026   3.120  1.00  0.00     0.313 C
BRANCH  28  29
HETATM   29  N7  UNL     1      12.067   3.175   1.659  1.00  0.00    -0.072 N
ATOM     30  H73 UNL     1      11.244   2.776   1.207  1.00  0.00     0.274 HD
ATOM     31  H72 UNL     1      11.948   4.149   1.381  1.00  0.00     0.274 HD
ATOM     32  H71 UNL     1      12.926   2.784   1.273  1.00  0.00     0.274 HD
ENDBRANCH  28  29
ENDBRANCH  24  28
ENDBRANCH  16  23
BRANCH  22  33
HETATM   33  O5  UNL     1      13.200  -1.746   1.118  1.00  0.00    -0.393 OA
ATOM     34  H5  UNL     1      13.533  -2.501   0.646  1.00  0.00     0.210 HD
ENDBRANCH  22  33
ENDBRANCH  14  15
ENDBRANCH  12  14
BRANCH  13  35
HETATM   35  O6  UNL     1       9.591   2.182   0.107  1.00  0.00    -0.389 OA
ATOM     36  H6  UNL     1      10.131   2.179   0.890  1.00  0.00     0.210 HD
ENDBRANCH  13  35
ENDBRANCH   5   7
BRANCH   1  37
HETATM   37  N2  UNL     1       7.018   4.041  -5.038  1.00  0.00    -0.239 N
ATOM     38  H2  UNL     1       6.049   4.015  -5.354  1.00  0.00     0.208 HD
BRANCH  37  39
HETATM   39  N1  UNL     1       7.999   4.519  -5.894  1.00  0.00    -0.287 N
ATOM     40  H1  UNL     1       8.395   3.845  -6.549  1.00  0.00     0.188 HD
BRANCH  39  41
HETATM   41  C2  UNL     1       8.460   5.704  -5.954  1.00  0.00     0.069 C
HETATM   42  C1  UNL     1       7.841   6.750  -6.801  1.00  0.00     0.074 C
BRANCH  41  43
HETATM   43  C17 UNL     1       9.653   6.015  -5.146  1.00  0.00     0.152 A
HETATM   44  N8  UNL     1      10.462   5.198  -4.469  1.00  0.00    -0.240 N
HETATM   45  O7  UNL     1      11.398   5.915  -3.886  1.00  0.00    -0.210 OA
ATOM     46  H8  UNL     1      10.369   4.184  -4.413  1.00  0.00     0.196 HD
HETATM   47  C18 UNL     1      11.241   7.179  -4.152  1.00  0.00     0.210 A
HETATM   48  N14 UNL     1      10.151   7.269  -4.942  1.00  0.00    -0.313 N
ATOM     49  H14 UNL     1       9.764   8.132  -5.324  1.00  0.00     0.170 HD
BRANCH  47  50
HETATM   50  S1  UNL     1      12.290   8.495  -3.562  1.00  0.00    -0.083 SA
BRANCH  50  51
HETATM   51  C19 UNL     1      11.398   9.525  -2.385  1.00  0.00     0.102 C
BRANCH  51  52
HETATM   52  C20 UNL     1      11.606   9.079  -0.945  1.00  0.00     0.133 C
BRANCH  52  53
HETATM   53  N9  UNL     1      10.507   8.286  -0.468  1.00  0.00    -0.360 N
ATOM     54  H9  UNL     1       9.731   8.717   0.035  1.00  0.00     0.162 HD
BRANCH  53  55
HETATM   55  C21 UNL     1      10.527   6.879  -0.716  1.00  0.00     0.205 C
HETATM   56  N10 UNL     1       9.545   6.117  -1.062  1.00  0.00    -0.256 N
HETATM   57  N11 UNL     1       9.968   4.800  -1.210  1.00  0.00    -0.006 NA
ATOM     58  H10 UNL     1       8.587   6.437  -1.207  1.00  0.00     0.187 HD
HETATM   59  N12 UNL     1      11.252   4.714  -0.669  1.00  0.00    -0.006 NA
HETATM   60  N13 UNL     1      11.671   6.047  -0.623  1.00  0.00    -0.256 N
ATOM     61  H13 UNL     1      12.636   6.366  -0.536  1.00  0.00     0.187 HD
ENDBRANCH  53  55
ENDBRANCH  52  53
ENDBRANCH  51  52
ENDBRANCH  50  51
ENDBRANCH  47  50
ENDBRANCH  41  43
ENDBRANCH  39  41
ENDBRANCH  37  39
ENDBRANCH   1  37
TORSDOF 18
ENDMDL