MODEL 3
REMARK VINA RESULT: -8.709969721      4.605     10.423
REMARK  21 active torsions:
REMARK  status: ('A' for Active; 'I' for Inactive)
REMARK    1  A    between atoms: O1_1  and  C1_3
REMARK    2  A    between atoms: C1_3  and  C2_4
REMARK    3  A    between atoms: C3_6  and  O3_7
REMARK    4  A    between atoms: O3_7  and  C4_8
REMARK    5  A    between atoms: C6_10  and  C7_11
REMARK    6  A    between atoms: C7_11  and  C8_12
REMARK    7  A    between atoms: C9_14  and  O4_15
REMARK    8  A    between atoms: O4_15  and  C10_16
REMARK    9  A    between atoms: C11_18  and  C12_19
REMARK   10  A    between atoms: C12_19  and  O6_20
REMARK   11  A    between atoms: C13_22  and  O7_23
REMARK   12  A    between atoms: O7_23  and  C14_24
REMARK   13  A    between atoms: C15_26  and  C16_27
REMARK   14  A    between atoms: C16_27  and  O9_28
REMARK   15  A    between atoms: C17_30  and  O10_31
REMARK   16  A    between atoms: C18_33  and  O11_34
REMARK   17  A    between atoms: C19_36  and  O12_37
REMARK   18  A    between atoms: C20_39  and  O13_40
REMARK   19  A    between atoms: C21_42  and  O14_43
REMARK   20  A    between atoms: C23_47  and  O16_48
REMARK   21  A    between atoms: C24_50  and  O17_51
ROOT
HETATM    1  C10 UNL     1       9.104   1.264   1.334  1.00  0.00     0.292 C
HETATM    2  O5  UNL     1       8.805   0.190   2.125  1.00  0.00    -0.348 OA
HETATM    3  C11 UNL     1       9.880  -0.503   2.662  1.00  0.00     0.180 C
HETATM    4  C13 UNL     1      10.883  -0.907   1.648  1.00  0.00     0.187 C
HETATM    5  C20 UNL     1      11.360   0.397   0.951  1.00  0.00     0.183 C
HETATM    6  C21 UNL     1      10.075   0.888   0.270  1.00  0.00     0.204 C
ENDROOT
BRANCH   1   7
HETATM    7  O4  UNL     1       9.419   2.416   2.036  1.00  0.00    -0.351 OA
BRANCH   7   8
HETATM    8  C9  UNL     1       8.377   2.975   2.744  1.00  0.00     0.153 C
HETATM    9  C6  UNL     1       7.913   4.301   2.284  1.00  0.00     0.022 C
HETATM   10  C5  UNL     1       6.647   4.606   3.069  1.00  0.00     0.068 C
HETATM   11  C4  UNL     1       6.935   4.480   4.549  1.00  0.00     0.263 C
HETATM   12  O15 UNL     1       7.440   3.226   4.876  1.00  0.00    -0.359 OA
HETATM   13  C22 UNL     1       8.624   2.932   4.249  1.00  0.00     0.203 C
BRANCH   9  14
HETATM   14  C7  UNL     1       8.824   5.449   2.409  1.00  0.00     0.022 C
BRANCH  14  15
HETATM   15  C8  UNL     1       9.817   5.671   1.324  1.00  0.00     0.115 C
HETATM   16 CL1  UNL     1       9.155   5.127  -0.241  1.00  0.00    -0.130 Cl
ENDBRANCH  14  15
ENDBRANCH   9  14
BRANCH  11  17
HETATM   17  O3  UNL     1       5.749   4.642   5.229  1.00  0.00    -0.329 OA
BRANCH  17  18
HETATM   18  C3  UNL     1       4.864   3.584   5.034  1.00  0.00     0.294 C
HETATM   19  O2  UNL     1       3.634   4.151   4.695  1.00  0.00    -0.348 OA
HETATM   20  C2  UNL     1       3.334   4.846   5.879  1.00  0.00     0.179 C
HETATM   21  C24 UNL     1       3.542   3.805   6.967  1.00  0.00     0.182 C
HETATM   22  C23 UNL     1       4.516   2.872   6.324  1.00  0.00     0.204 C
BRANCH  20  23
HETATM   23  C1  UNL     1       1.887   5.287   5.901  1.00  0.00     0.198 C
BRANCH  23  24
HETATM   24  O1  UNL     1       1.635   6.178   6.941  1.00  0.00    -0.398 OA
ATOM     25  H1  UNL     1       2.277   6.099   7.636  1.00  0.00     0.209 HD
ENDBRANCH  23  24
ENDBRANCH  20  23
BRANCH  21  26
HETATM   26  O17 UNL     1       2.315   3.206   7.242  1.00  0.00    -0.390 OA
ATOM     27  H17 UNL     1       1.733   3.867   7.597  1.00  0.00     0.210 HD
ENDBRANCH  21  26
BRANCH  22  28
HETATM   28  O16 UNL     1       3.929   1.658   6.010  1.00  0.00    -0.388 OA
ATOM     29  H16 UNL     1       3.015   1.811   5.800  1.00  0.00     0.210 HD
ENDBRANCH  22  28
ENDBRANCH  17  18
ENDBRANCH  11  17
ENDBRANCH   7   8
ENDBRANCH   1   7
BRANCH   6  30
HETATM   30  O14 UNL     1      10.342   1.847  -0.669  1.00  0.00    -0.388 OA
ATOM     31  H14 UNL     1       9.906   1.746  -1.507  1.00  0.00     0.210 HD
ENDBRANCH   6  30
BRANCH   3  32
HETATM   32  C12 UNL     1      10.488   0.217   3.844  1.00  0.00     0.198 C
BRANCH  32  33
HETATM   33  O6  UNL     1      10.195  -0.501   5.001  1.00  0.00    -0.398 OA
ATOM     34  H6  UNL     1       9.650   0.037   5.561  1.00  0.00     0.209 HD
ENDBRANCH  32  33
ENDBRANCH   3  32
BRANCH   5  35
HETATM   35  O13 UNL     1      12.364   0.141   0.050  1.00  0.00    -0.390 OA
ATOM     36  H13 UNL     1      12.179   0.538  -0.793  1.00  0.00     0.210 HD
ENDBRANCH   5  35
BRANCH   4  37
HETATM   37  O7  UNL     1      11.955  -1.578   2.150  1.00  0.00    -0.348 OA
BRANCH  37  38
HETATM   38  C14 UNL     1      11.662  -2.902   2.485  1.00  0.00     0.292 C
HETATM   39  O8  UNL     1      11.749  -3.695   1.370  1.00  0.00    -0.348 OA
HETATM   40  C15 UNL     1      12.339  -4.898   1.436  1.00  0.00     0.179 C
HETATM   41  C17 UNL     1      13.480  -5.063   2.380  1.00  0.00     0.180 C
HETATM   42  C18 UNL     1      13.795  -3.803   3.159  1.00  0.00     0.183 C
HETATM   43  C19 UNL     1      12.429  -3.320   3.671  1.00  0.00     0.204 C
BRANCH  40  44
HETATM   44  C16 UNL     1      11.296  -5.954   1.742  1.00  0.00     0.198 C
BRANCH  44  45
HETATM   45  O9  UNL     1      11.745  -7.228   1.360  1.00  0.00    -0.398 OA
ATOM     46  H9  UNL     1      12.513  -7.481   1.859  1.00  0.00     0.209 HD
ENDBRANCH  44  45
ENDBRANCH  40  44
BRANCH  41  47
HETATM   47  O10 UNL     1      13.232  -6.060   3.326  1.00  0.00    -0.390 OA
ATOM     48  H10 UNL     1      12.612  -5.774   3.987  1.00  0.00     0.210 HD
ENDBRANCH  41  47
BRANCH  42  49
HETATM   49  O11 UNL     1      14.399  -2.875   2.353  1.00  0.00    -0.390 OA
ATOM     50  H11 UNL     1      14.052  -2.921   1.470  1.00  0.00     0.210 HD
ENDBRANCH  42  49
BRANCH  43  51
HETATM   51  O12 UNL     1      12.580  -2.268   4.555  1.00  0.00    -0.388 OA
ATOM     52  H12 UNL     1      13.334  -2.403   5.116  1.00  0.00     0.210 HD
ENDBRANCH  43  51
ENDBRANCH  37  38
ENDBRANCH   4  37
TORSDOF 21
ENDMDL