MODEL 1
REMARK VINA RESULT: -9.055299239      0.000      0.000
REMARK  20 active torsions:
REMARK  status: ('A' for Active; 'I' for Inactive)
REMARK    1  A    between atoms: O1_2  and  C2_3
REMARK    2  A    between atoms: C3_5  and  C4_6
REMARK    3  A    between atoms: C4_6  and  O3_7
REMARK    4  A    between atoms: C5_9  and  O4_10
REMARK    5  A    between atoms: O4_10  and  C6_11
REMARK    6  A    between atoms: C6_11  and  O5_12
REMARK    7  A    between atoms: O5_12  and  N1_13
REMARK    8  A    between atoms: C7_16  and  O6_17
REMARK    9  A    between atoms: C8_19  and  O7_20
REMARK   10  A    between atoms: O7_20  and  C9_21
REMARK   11  A    between atoms: C10_23  and  C11_24
REMARK   12  A    between atoms: C11_24  and  N2_25
REMARK   13  A    between atoms: N2_25  and  C12_27
REMARK   14  A    between atoms: C15_31  and  N3_32
REMARK   15  A    between atoms: C16_36  and  O9_37
REMARK   16  A    between atoms: C17_39  and  O10_40
REMARK   17  A    between atoms: C18_43  and  O12_44
REMARK   18  A    between atoms: O12_44  and  C19_45
REMARK   19  A    between atoms: C25_51  and  N4_52
REMARK   20  A    between atoms: C26_56  and  O13_57
ROOT
HETATM    1  C9  UNL     1      11.763   0.955   2.849  1.00  0.00     0.297 C
HETATM    2  O8  UNL     1      11.522   0.977   1.497  1.00  0.00    -0.324 OA
HETATM    3  C10 UNL     1      11.992  -0.101   0.791  1.00  0.00     0.306 C
HETATM    4  O11 UNL     1      12.425  -1.176   1.559  1.00  0.00    -0.324 OA
HETATM    5  C18 UNL     1      11.436  -1.492   2.478  1.00  0.00     0.297 C
HETATM    6  C26 UNL     1      11.462  -0.366   3.497  1.00  0.00     0.228 C
ENDROOT
BRANCH   1   7
HETATM    7  O7  UNL     1      10.958   1.914   3.460  1.00  0.00    -0.345 OA
BRANCH   7   8
HETATM    8  C8  UNL     1      10.287   2.697   2.532  1.00  0.00     0.211 C
HETATM    9  C2  UNL     1       8.869   2.884   3.046  1.00  0.00     0.291 C
HETATM   10  O2  UNL     1       8.156   3.596   2.109  1.00  0.00    -0.349 OA
HETATM   11  C3  UNL     1       8.573   4.870   1.952  1.00  0.00     0.180 C
HETATM   12  C5  UNL     1      10.079   5.044   1.685  1.00  0.00     0.186 C
HETATM   13  C7  UNL     1      10.885   4.100   2.497  1.00  0.00     0.183 C
BRANCH   9  14
HETATM   14  O1  UNL     1       8.291   1.645   3.283  1.00  0.00    -0.363 OA
HETATM   15  C1  UNL     1       8.077   1.018   2.073  1.00  0.00     0.204 C
ENDBRANCH   9  14
BRANCH  11  16
HETATM   16  C4  UNL     1       8.163   5.711   3.137  1.00  0.00     0.198 C
BRANCH  16  17
HETATM   17  O3  UNL     1       6.745   5.741   3.196  1.00  0.00    -0.398 OA
ATOM     18  H3  UNL     1       6.487   6.141   4.018  1.00  0.00     0.209 HD
ENDBRANCH  16  17
ENDBRANCH  11  16
BRANCH  12  19
HETATM   19  O4  UNL     1      10.327   5.114   0.347  1.00  0.00    -0.354 OA
BRANCH  19  20
HETATM   20  C6  UNL     1      11.001   6.147  -0.180  1.00  0.00     0.369 C
BRANCH  20  21
HETATM   21  O5  UNL     1      12.350   6.156  -0.277  1.00  0.00    -0.262 OA
BRANCH  21  22
HETATM   22  N1  UNL     1      12.903   6.582  -1.403  1.00  0.00    -0.309 N
ATOM     23  H12 UNL     1      12.349   6.610  -2.259  1.00  0.00     0.184 HD
ATOM     24  H11 UNL     1      13.880   6.874  -1.388  1.00  0.00     0.184 HD
ENDBRANCH  21  22
ENDBRANCH  20  21
ENDBRANCH  19  20
ENDBRANCH  12  19
BRANCH  13  25
HETATM   25  O6  UNL     1      12.212   4.072   2.122  1.00  0.00    -0.390 OA
ATOM     26  H6  UNL     1      12.801   3.991   2.863  1.00  0.00     0.210 HD
ENDBRANCH  13  25
ENDBRANCH   7   8
ENDBRANCH   1   7
BRANCH   6  27
HETATM   27  O13 UNL     1      10.232  -0.398   4.149  1.00  0.00    -0.386 OA
ATOM     28  H13 UNL     1       9.959  -1.272   4.403  1.00  0.00     0.210 HD
ENDBRANCH   6  27
BRANCH   3  29
HETATM   29  C11 UNL     1      10.988  -0.504  -0.247  1.00  0.00     0.121 C
BRANCH  29  30
HETATM   30  N2  UNL     1      11.104   0.046  -1.508  1.00  0.00    -0.369 N
ATOM     31  H2  UNL     1      11.755  -0.412  -2.146  1.00  0.00     0.164 HD
BRANCH  30  32
HETATM   32  C12 UNL     1      10.433   1.147  -1.998  1.00  0.00     0.020 C
HETATM   33  C13 UNL     1       8.941   0.951  -2.220  1.00  0.00     0.094 C
HETATM   34  C14 UNL     1       8.417   2.235  -2.812  1.00  0.00     0.208 C
HETATM   35  F1  UNL     1       7.099   2.471  -2.435  1.00  0.00    -0.247 F
HETATM   36  C15 UNL     1       9.232   3.424  -2.431  1.00  0.00     0.248 C
HETATM   37  C16 UNL     1      10.562   3.378  -3.115  1.00  0.00     0.185 C
HETATM   38  C17 UNL     1      11.107   1.943  -3.051  1.00  0.00     0.194 C
BRANCH  36  39
HETATM   39  N3  UNL     1       8.527   4.596  -2.978  1.00  0.00    -0.070 N
ATOM     40  H33 UNL     1       8.119   4.432  -3.898  1.00  0.00     0.274 HD
ATOM     41  H32 UNL     1       7.656   4.810  -2.492  1.00  0.00     0.274 HD
ATOM     42  H31 UNL     1       9.199   5.363  -2.964  1.00  0.00     0.274 HD
ENDBRANCH  36  39
BRANCH  37  43
HETATM   43  O9  UNL     1      11.445   4.294  -2.558  1.00  0.00    -0.390 OA
ATOM     44  H9  UNL     1      11.691   4.961  -3.188  1.00  0.00     0.210 HD
ENDBRANCH  37  43
BRANCH  38  45
HETATM   45  O10 UNL     1      12.461   2.116  -2.723  1.00  0.00    -0.387 OA
ATOM     46  H10 UNL     1      12.593   2.975  -2.340  1.00  0.00     0.210 HD
ENDBRANCH  38  45
ENDBRANCH  30  32
ENDBRANCH  29  30
ENDBRANCH   3  29
BRANCH   5  47
HETATM   47  O12 UNL     1      11.896  -2.673   3.112  1.00  0.00    -0.351 OA
BRANCH  47  48
HETATM   48  C19 UNL     1      12.457  -3.574   2.244  1.00  0.00     0.155 C
HETATM   49  C20 UNL     1      11.351  -4.107   1.339  1.00  0.00     0.038 C
HETATM   50  C21 UNL     1      11.886  -5.110   0.365  1.00  0.00    -0.016 C
HETATM   51  C22 UNL     1      10.765  -5.516  -0.551  1.00  0.00     0.010 C
HETATM   52  C23 UNL     1      12.401  -6.304   1.104  1.00  0.00     0.006 C
HETATM   53  C24 UNL     1      12.345  -6.063   2.586  1.00  0.00     0.036 C
HETATM   54  C25 UNL     1      12.990  -4.774   3.005  1.00  0.00     0.212 C
BRANCH  54  55
HETATM   55  N4  UNL     1      12.786  -4.624   4.437  1.00  0.00    -0.073 N
ATOM     56  H43 UNL     1      12.870  -3.650   4.728  1.00  0.00     0.274 HD
ATOM     57  H42 UNL     1      11.812  -4.782   4.695  1.00  0.00     0.274 HD
ATOM     58  H41 UNL     1      13.416  -5.228   4.967  1.00  0.00     0.274 HD
ENDBRANCH  54  55
ENDBRANCH  47  48
ENDBRANCH   5  47
TORSDOF 20
ENDMDL