MODEL 4
REMARK VINA RESULT: -9.095799641      1.177      1.459
REMARK  21 active torsions:
REMARK  status: ('A' for Active; 'I' for Inactive)
REMARK    1  A    between atoms: C2_2  and  O1_3
REMARK    2  A    between atoms: O1_3  and  C3_4
REMARK    3  A    between atoms: C4_5  and  O2_6
REMARK    4  A    between atoms: C5_8  and  C6_9
REMARK    5  A    between atoms: C6_9  and  N1_10
REMARK    6  A    between atoms: C7_15  and  O4_16
REMARK    7  A    between atoms: O4_16  and  C8_17
REMARK    8  A    between atoms: C9_19  and  C10_20
REMARK    9  A    between atoms: C10_20  and  N2_21
REMARK   10  A    between atoms: C11_25  and  O6_26
REMARK   11  A    between atoms: O6_26  and  C12_27
REMARK   12  A    between atoms: C15_31  and  O8_32
REMARK   13  A    between atoms: C16_34  and  O9_35
REMARK   14  A    between atoms: O9_35  and  C17_36
REMARK   15  A    between atoms: C18_38  and  C19_39
REMARK   16  A    between atoms: C19_39  and  N3_40
REMARK   17  A    between atoms: C20_44  and  O11_45
REMARK   18  A    between atoms: C21_47  and  O12_48
REMARK   19  A    between atoms: C22_50  and  N4_51
REMARK   20  A    between atoms: C23_55  and  O13_56
REMARK   21  A    between atoms: C24_58  and  O14_59
ROOT
HETATM    1  C12 UNL     1      11.560   1.200   1.785  1.00  0.00     0.292 C
HETATM    2  O7  UNL     1      10.220   1.178   2.051  1.00  0.00    -0.351 OA
HETATM    3  C13 UNL     1       9.787   0.211   2.909  1.00  0.00     0.152 C
HETATM    4  C14 UNL     1       9.231   0.864   4.161  1.00  0.00     0.042 C
HETATM    5  C15 UNL     1      10.775  -0.852   3.239  1.00  0.00     0.178 C
HETATM    6  C16 UNL     1      11.558  -1.274   2.021  1.00  0.00     0.189 C
HETATM    7  C23 UNL     1      12.095  -0.112   1.257  1.00  0.00     0.205 C
ENDROOT
BRANCH   1   8
HETATM    8  O6  UNL     1      11.811   2.221   0.870  1.00  0.00    -0.348 OA
BRANCH   8   9
HETATM    9  C11 UNL     1      10.739   3.094   0.730  1.00  0.00     0.189 C
HETATM   10  C9  UNL     1      11.053   4.484   1.175  1.00  0.00     0.181 C
HETATM   11  O5  UNL     1      11.431   5.206   0.054  1.00  0.00    -0.349 OA
HETATM   12  C8  UNL     1      10.617   4.731  -0.966  1.00  0.00     0.294 C
HETATM   13  C24 UNL     1      10.479   3.238  -0.766  1.00  0.00     0.205 C
BRANCH  10  14
HETATM   14  C10 UNL     1       9.907   5.195   1.831  1.00  0.00     0.264 C
BRANCH  14  15
HETATM   15  N2  UNL     1       9.210   4.195   2.655  1.00  0.00    -0.077 N
ATOM     16  H23 UNL     1       8.474   4.593   3.237  1.00  0.00     0.274 HD
ATOM     17  H22 UNL     1       8.618   3.566   2.112  1.00  0.00     0.274 HD
ATOM     18  H21 UNL     1       9.930   3.709   3.190  1.00  0.00     0.274 HD
ENDBRANCH  14  15
ENDBRANCH  10  14
BRANCH  12  19
HETATM   19  O4  UNL     1      11.015   5.082  -2.219  1.00  0.00    -0.326 OA
BRANCH  19  20
HETATM   20  C7  UNL     1      10.172   4.819  -3.248  1.00  0.00     0.300 C
HETATM   21  O3  UNL     1      10.722   4.122  -4.297  1.00  0.00    -0.349 OA
HETATM   22  C5  UNL     1       9.929   4.069  -5.430  1.00  0.00     0.181 C
HETATM   23  C4  UNL     1       9.592   5.421  -5.980  1.00  0.00     0.180 C
HETATM   24  C3  UNL     1      10.083   6.537  -5.060  1.00  0.00     0.191 C
HETATM   25  C25 UNL     1       9.566   6.160  -3.685  1.00  0.00     0.256 C
HETATM   26  F1  UNL     1       9.900   7.170  -2.804  1.00  0.00    -0.241 F
BRANCH  22  27
HETATM   27  C6  UNL     1       8.734   3.189  -5.168  1.00  0.00     0.264 C
BRANCH  27  28
HETATM   28  N1  UNL     1       8.231   2.569  -6.376  1.00  0.00    -0.077 N
ATOM     29  H13 UNL     1       7.429   3.080  -6.746  1.00  0.00     0.274 HD
ATOM     30  H12 UNL     1       8.879   2.699  -7.154  1.00  0.00     0.274 HD
ATOM     31  H11 UNL     1       8.010   1.582  -6.242  1.00  0.00     0.274 HD
ENDBRANCH  27  28
ENDBRANCH  22  27
BRANCH  23  32
HETATM   32  O2  UNL     1       8.209   5.507  -6.131  1.00  0.00    -0.390 OA
ATOM     33  H2  UNL     1       7.781   5.249  -5.323  1.00  0.00     0.210 HD
ENDBRANCH  23  32
BRANCH  24  34
HETATM   34  O1  UNL     1      11.451   6.586  -5.117  1.00  0.00    -0.381 OA
BRANCH  34  35
HETATM   35  C2  UNL     1      11.987   7.828  -5.347  1.00  0.00     0.164 C
HETATM   36  C1  UNL     1      12.713   8.420  -4.179  1.00  0.00     0.033 C
ENDBRANCH  34  35
ENDBRANCH  24  34
ENDBRANCH  19  20
ENDBRANCH  12  19
BRANCH  13  37
HETATM   37  O14 UNL     1      11.407   2.527  -1.520  1.00  0.00    -0.388 OA
ATOM     38  H14 UNL     1      11.657   2.996  -2.308  1.00  0.00     0.210 HD
ENDBRANCH  13  37
ENDBRANCH   8   9
ENDBRANCH   1   8
BRANCH   7  39
HETATM   39  O13 UNL     1      11.831  -0.278  -0.098  1.00  0.00    -0.388 OA
ATOM     40  H13 UNL     1      11.054   0.196  -0.371  1.00  0.00     0.210 HD
ENDBRANCH   7  39
BRANCH   6  41
HETATM   41  O9  UNL     1      10.718  -2.065   1.229  1.00  0.00    -0.348 OA
BRANCH  41  42
HETATM   42  C17 UNL     1      11.043  -3.400   1.289  1.00  0.00     0.294 C
HETATM   43  O10 UNL     1      11.104  -3.973   0.039  1.00  0.00    -0.349 OA
HETATM   44  C18 UNL     1      11.112  -5.363   0.094  1.00  0.00     0.181 C
HETATM   45  C20 UNL     1      12.245  -5.915   0.895  1.00  0.00     0.179 C
HETATM   46  C21 UNL     1      12.486  -5.150   2.174  1.00  0.00     0.184 C
HETATM   47  C22 UNL     1      12.396  -3.647   1.956  1.00  0.00     0.269 C
BRANCH  44  48
HETATM   48  C19 UNL     1      11.225  -5.865  -1.336  1.00  0.00     0.264 C
BRANCH  48  49
HETATM   49  N3  UNL     1      10.840  -7.235  -1.469  1.00  0.00    -0.077 N
ATOM     50  H33 UNL     1      10.953  -7.556  -2.430  1.00  0.00     0.274 HD
ATOM     51  H32 UNL     1      11.511  -7.851  -1.010  1.00  0.00     0.274 HD
ATOM     52  H31 UNL     1       9.892  -7.409  -1.133  1.00  0.00     0.274 HD
ENDBRANCH  48  49
ENDBRANCH  44  48
BRANCH  45  53
HETATM   53  O11 UNL     1      11.879  -7.224   1.279  1.00  0.00    -0.390 OA
ATOM     54  H11 UNL     1      12.632  -7.605   1.715  1.00  0.00     0.210 HD
ENDBRANCH  45  53
BRANCH  46  55
HETATM   55  O12 UNL     1      13.782  -5.432   2.601  1.00  0.00    -0.391 OA
ATOM     56  H12 UNL     1      14.029  -6.276   2.244  1.00  0.00     0.210 HD
ENDBRANCH  46  55
BRANCH  47  57
HETATM   57  N4  UNL     1      13.498  -3.259   1.116  1.00  0.00    -0.068 N
ATOM     58  H43 UNL     1      13.956  -4.074   0.709  1.00  0.00     0.275 HD
ATOM     59  H42 UNL     1      13.169  -2.813   0.259  1.00  0.00     0.275 HD
ATOM     60  H41 UNL     1      14.168  -2.665   1.606  1.00  0.00     0.275 HD
ENDBRANCH  47  57
ENDBRANCH  41  42
ENDBRANCH   6  41
BRANCH   5  61
HETATM   61  O8  UNL     1      11.592  -0.534   4.318  1.00  0.00    -0.390 OA
ATOM     62  H8  UNL     1      12.406  -0.113   4.066  1.00  0.00     0.210 HD
ENDBRANCH   5  61
TORSDOF 21
ENDMDL