MODEL 2
REMARK VINA RESULT: -8.444382987      2.860      7.451
REMARK  14 active torsions:
REMARK  status: ('A' for Active; 'I' for Inactive)
REMARK    1  A    between atoms: N2_6  and  C3_7
REMARK    2  A    between atoms: C3_7  and  C4_8
REMARK    3  A    between atoms: C4_8  and  N3_9
REMARK    4  A    between atoms: C4_8  and  C5_13
REMARK    5  A    between atoms: C5_13  and  N4_14
REMARK    6  A    between atoms: C5_13  and  O1_18
REMARK       I    between atoms: N6_23  and  C7_25
REMARK    7  A    between atoms: C7_25  and  C8_27
REMARK    8  A    between atoms: C8_27  and  C11_34
REMARK    9  A    between atoms: N7_28  and  O3_30
REMARK   10  A    between atoms: O3_30  and  C9_31
REMARK   11  A    between atoms: C9_31  and  C10_32
REMARK   12  A    between atoms: C12_35  and  C13_36
REMARK   13  A    between atoms: N9_42  and  N10_43
REMARK   14  A    between atoms: C16_45  and  C17_46
ROOT
HETATM    1  C8  UNL     1       7.769   5.221  -4.429  1.00  0.00     0.153 C
HETATM    2  N7  UNL     1       7.996   4.558  -5.558  1.00  0.00    -0.259 N
ATOM      3  H7  UNL     1       7.597   4.953  -6.410  1.00  0.00     0.194 HD
ENDROOT
BRANCH   1   4
HETATM    4  C7  UNL     1       8.353   4.620  -3.264  1.00  0.00     0.278 C
HETATM    5  N6  UNL     1       9.666   4.185  -3.050  1.00  0.00    -0.305 N
HETATM    6  C6  UNL     1      10.097   3.023  -2.813  1.00  0.00     0.142 C
ATOM      7  H6  UNL     1      10.378   4.913  -3.092  1.00  0.00     0.170 HD
HETATM    8  C1  UNL     1       9.316   1.796  -2.700  1.00  0.00     0.063 C
HETATM    9  N5  UNL     1      11.463   2.617  -2.590  1.00  0.00    -0.303 N
HETATM   10  N1  UNL     1       8.189   1.453  -3.181  1.00  0.00    -0.398 N
HETATM   11  C2  UNL     1      10.149   0.903  -1.829  1.00  0.00     0.174 C
ATOM     12  H12 UNL     1       7.643   0.596  -3.101  1.00  0.00     0.156 HD
ATOM     13  H11 UNL     1       7.623   2.061  -3.773  1.00  0.00     0.156 HD
HETATM   14  N2  UNL     1      11.476   1.425  -1.881  1.00  0.00    -0.222 NA
ATOM     15  H5  UNL     1      12.290   3.126  -2.903  1.00  0.00     0.182 HD
HETATM   16  O2  UNL     1       7.577   4.423  -2.245  1.00  0.00    -0.265 OA
BRANCH  14  17
HETATM   17  C3  UNL     1      12.158   1.508  -0.633  1.00  0.00     0.151 C
BRANCH  17  18
HETATM   18  C4  UNL     1      11.311   1.559   0.587  1.00  0.00     0.253 C
BRANCH  18  19
HETATM   19  N3  UNL     1      11.541   0.550   1.566  1.00  0.00    -0.070 N
ATOM     20  H33 UNL     1      12.307  -0.052   1.265  1.00  0.00     0.274 HD
ATOM     21  H32 UNL     1      11.950   0.968   2.402  1.00  0.00     0.274 HD
ATOM     22  H31 UNL     1      10.738  -0.023   1.828  1.00  0.00     0.274 HD
ENDBRANCH  18  19
BRANCH  18  23
HETATM   23  C5  UNL     1      11.293   2.910   1.270  1.00  0.00     0.348 C
BRANCH  23  24
HETATM   24  N4  UNL     1      11.325   4.016   0.347  1.00  0.00    -0.051 N
ATOM     25  H43 UNL     1      10.920   3.750  -0.550  1.00  0.00     0.277 HD
ATOM     26  H42 UNL     1      10.662   4.738   0.624  1.00  0.00     0.277 HD
ATOM     27  H41 UNL     1      12.258   4.409   0.222  1.00  0.00     0.277 HD
ENDBRANCH  23  24
BRANCH  23  28
HETATM   28  O1  UNL     1      12.479   2.959   2.040  1.00  0.00    -0.368 OA
ATOM     29  H1  UNL     1      13.190   2.921   1.412  1.00  0.00     0.212 HD
ENDBRANCH  23  28
ENDBRANCH  18  23
ENDBRANCH  17  18
ENDBRANCH  14  17
ENDBRANCH   1   4
BRANCH   1  30
HETATM   30  C11 UNL     1       7.099   6.519  -4.539  1.00  0.00     0.125 A
HETATM   31  C12 UNL     1       5.772   6.821  -4.575  1.00  0.00     0.142 A
HETATM   32  N8  UNL     1       5.671   8.196  -4.349  1.00  0.00    -0.343 N
HETATM   33  C14 UNL     1       6.900   8.642  -4.204  1.00  0.00     0.208 A
ATOM     34  H8  UNL     1       4.813   8.746  -4.306  1.00  0.00     0.167 HD
HETATM   35  N9  UNL     1       7.804   7.673  -4.311  1.00  0.00    -0.239 N
BRANCH  31  36
HETATM   36  C13 UNL     1       4.630   6.046  -5.037  1.00  0.00     0.229 C
HETATM   37  O4  UNL     1       4.758   5.298  -6.030  1.00  0.00    -0.643 OA
HETATM   38  O5  UNL     1       3.415   6.087  -4.421  1.00  0.00    -0.643 OA
ENDBRANCH  31  36
BRANCH  35  39
HETATM   39  N10 UNL     1       9.172   7.822  -4.211  1.00  0.00    -0.240 N
HETATM   40  C15 UNL     1       9.840   7.825  -3.044  1.00  0.00     0.139 A
HETATM   41  C16 UNL     1      11.199   7.948  -2.896  1.00  0.00     0.098 A
HETATM   42  C18 UNL     1      11.956   8.082  -4.052  1.00  0.00     0.208 A
HETATM   43  O7  UNL     1      13.190   8.198  -3.963  1.00  0.00    -0.286 OA
HETATM   44  C19 UNL     1      11.289   8.083  -5.258  1.00  0.00     0.130 A
HETATM   45  C20 UNL     1      12.032   8.208  -6.416  1.00  0.00     0.277 A
HETATM   46  C22 UNL     1       9.920   7.955  -5.347  1.00  0.00     0.162 A
HETATM   47  O8  UNL     1      13.278   8.324  -6.308  1.00  0.00    -0.266 OA
HETATM   48  N12 UNL     1      11.404   8.203  -7.600  1.00  0.00    -0.155 N
HETATM   49  C21 UNL     1      10.061   8.076  -7.641  1.00  0.00     0.680 A
ATOM     50  H12 UNL     1      11.939   8.295  -8.464  1.00  0.00     0.187 HD
HETATM   51  N13 UNL     1       9.466   8.069  -8.803  1.00  0.00    -0.234 N
HETATM   52  N14 UNL     1       9.312   7.952  -6.549  1.00  0.00    -0.174 N
ATOM     53 2H13 UNL     1      10.040   8.164  -9.641  1.00  0.00     0.174 HD
ATOM     54 1H13 UNL     1       8.451   7.972  -8.834  1.00  0.00     0.174 HD
ATOM     55  H14 UNL     1       8.300   7.857  -6.621  1.00  0.00     0.186 HD
BRANCH  41  56
HETATM   56  C17 UNL     1      11.835   7.939  -1.581  1.00  0.00     0.270 C
HETATM   57  N11 UNL     1      12.350   6.744  -1.046  1.00  0.00    -0.057 NA
HETATM   58  O6  UNL     1      11.913   8.999  -0.942  1.00  0.00    -0.271 OA
ENDBRANCH  41  56
ENDBRANCH  35  39
ENDBRANCH   1  30
BRANCH   2  59
HETATM   59  O3  UNL     1       8.689   3.432  -5.690  1.00  0.00    -0.277 OA
BRANCH  59  60
HETATM   60  C9  UNL     1       9.773   3.228  -6.578  1.00  0.00     0.232 C
BRANCH  60  61
HETATM   61  C10 UNL     1      10.900   4.194  -6.286  1.00  0.00     0.250 C
HETATM   62  F1  UNL     1      11.983   3.459  -5.844  1.00  0.00    -0.253 F
ENDBRANCH  60  61
ENDBRANCH  59  60
ENDBRANCH   2  59
TORSDOF 14
ENDMDL