MODEL 4
REMARK VINA RESULT: -8.912037974      2.764      7.855
REMARK  21 active torsions:
REMARK  status: ('A' for Active; 'I' for Inactive)
REMARK    1  A    between atoms: C2_2  and  S1_3
REMARK    2  A    between atoms: S1_3  and  C3_4
REMARK    3  A    between atoms: C3_4  and  C4_5
REMARK    4  A    between atoms: C5_7  and  O2_8
REMARK    5  A    between atoms: C6_10  and  O3_11
REMARK    6  A    between atoms: C7_13  and  O4_14
REMARK    7  A    between atoms: O4_14  and  C8_15
REMARK    8  A    between atoms: C9_16  and  O5_17
REMARK    9  A    between atoms: O5_17  and  C10_18
REMARK   10  A    between atoms: C11_20  and  C12_21
REMARK   11  A    between atoms: C12_21  and  N1_22
REMARK   12  A    between atoms: C13_26  and  O7_27
REMARK   13  A    between atoms: C14_29  and  O8_30
REMARK   14  A    between atoms: C15_32  and  N2_33
REMARK   15  A    between atoms: C17_38  and  N3_39
REMARK   16  A    between atoms: C18_43  and  O9_44
REMARK   17  A    between atoms: O9_44  and  C19_45
REMARK   18  A    between atoms: C20_47  and  C21_48
REMARK   19  A    between atoms: C21_48  and  N4_49
REMARK   20  A    between atoms: C22_53  and  O11_54
REMARK   21  A    between atoms: C23_56  and  O12_57
ROOT
HETATM    1  C8  UNL     1       9.709   2.929   1.302  1.00  0.00     0.184 C
HETATM    2  C9  UNL     1      10.215   1.829   2.217  1.00  0.00     0.186 C
HETATM    3  C15 UNL     1       8.996   1.391   2.997  1.00  0.00     0.217 C
HETATM    4  C16 UNL     1       8.518   2.573   3.854  1.00  0.00     0.071 C
HETATM    5  C17 UNL     1       8.283   3.815   3.060  1.00  0.00     0.217 C
HETATM    6  C18 UNL     1       9.555   4.107   2.283  1.00  0.00     0.186 C
ENDROOT
BRANCH   1   7
HETATM    7  O4  UNL     1      10.399   3.211   0.199  1.00  0.00    -0.369 OA
BRANCH   7   8
HETATM    8  C7  UNL     1      10.288   2.457  -0.923  1.00  0.00     0.197 C
HETATM    9  C6  UNL     1       8.952   1.846  -1.210  1.00  0.00     0.205 C
HETATM   10  C5  UNL     1       9.021   0.869  -2.335  1.00  0.00     0.288 C
HETATM   11  O1  UNL     1       9.790   1.243  -3.356  1.00  0.00    -0.349 OA
HETATM   12  C4  UNL     1      10.119   2.559  -3.397  1.00  0.00     0.176 C
HETATM   13  C24 UNL     1      10.912   3.007  -2.183  1.00  0.00     0.155 C
HETATM   14  C25 UNL     1      12.326   2.506  -2.383  1.00  0.00     0.057 C
HETATM   15  F1  UNL     1      10.944   4.379  -2.245  1.00  0.00    -0.238 F
BRANCH   9  16
HETATM   16  O3  UNL     1       7.934   2.741  -1.511  1.00  0.00    -0.388 OA
ATOM     17  H3  UNL     1       8.251   3.296  -2.213  1.00  0.00     0.210 HD
ENDBRANCH   9  16
BRANCH  10  18
HETATM   18  O2  UNL     1       7.701   0.633  -2.851  1.00  0.00    -0.369 OA
ATOM     19  H2  UNL     1       7.238   0.097  -2.219  1.00  0.00     0.212 HD
ENDBRANCH  10  18
BRANCH  12  20
HETATM   20  C3  UNL     1      10.875   2.819  -4.689  1.00  0.00     0.109 C
BRANCH  20  21
HETATM   21  S1  UNL     1      10.249   4.304  -5.524  1.00  0.00    -0.167 SA
BRANCH  21  22
HETATM   22  C2  UNL     1      11.577   5.036  -6.551  1.00  0.00     0.069 C
HETATM   23  C1  UNL     1      12.347   3.928  -7.265  1.00  0.00     0.016 C
ENDBRANCH  21  22
ENDBRANCH  20  21
ENDBRANCH  12  20
ENDBRANCH   7   8
ENDBRANCH   1   7
BRANCH   2  24
HETATM   24  O5  UNL     1      10.922   0.903   1.597  1.00  0.00    -0.349 OA
BRANCH  24  25
HETATM   25  C10 UNL     1      10.915  -0.393   2.009  1.00  0.00     0.292 C
HETATM   26  O6  UNL     1      11.866  -0.730   2.968  1.00  0.00    -0.349 OA
HETATM   27  C11 UNL     1      11.889  -2.117   2.943  1.00  0.00     0.181 C
HETATM   28  C13 UNL     1      12.160  -2.386   1.475  1.00  0.00     0.182 C
HETATM   29  C14 UNL     1      11.403  -1.233   0.837  1.00  0.00     0.204 C
BRANCH  27  30
HETATM   30  C12 UNL     1      13.025  -2.682   3.763  1.00  0.00     0.264 C
BRANCH  30  31
HETATM   31  N1  UNL     1      12.974  -4.130   3.636  1.00  0.00    -0.077 N
ATOM     32  H13 UNL     1      12.033  -4.507   3.745  1.00  0.00     0.274 HD
ATOM     33  H12 UNL     1      13.135  -4.452   2.682  1.00  0.00     0.274 HD
ATOM     34  H11 UNL     1      13.639  -4.518   4.305  1.00  0.00     0.274 HD
ENDBRANCH  30  31
ENDBRANCH  27  30
BRANCH  28  35
HETATM   35  O7  UNL     1      13.523  -2.330   1.220  1.00  0.00    -0.390 OA
ATOM     36  H7  UNL     1      13.687  -1.880   0.400  1.00  0.00     0.210 HD
ENDBRANCH  28  35
BRANCH  29  37
HETATM   37  O8  UNL     1      12.326  -0.477   0.112  1.00  0.00    -0.388 OA
ATOM     38  H8  UNL     1      12.461  -0.898  -0.729  1.00  0.00     0.210 HD
ENDBRANCH  29  37
ENDBRANCH  24  25
ENDBRANCH   2  24
BRANCH   6  39
HETATM   39  O9  UNL     1       9.636   5.332   1.724  1.00  0.00    -0.349 OA
BRANCH  39  40
HETATM   40  C19 UNL     1       8.476   5.773   1.146  1.00  0.00     0.292 C
HETATM   41  O10 UNL     1       7.820   6.754   1.892  1.00  0.00    -0.349 OA
HETATM   42  C20 UNL     1       6.814   7.123   1.003  1.00  0.00     0.181 C
HETATM   43  C22 UNL     1       7.650   7.501  -0.214  1.00  0.00     0.182 C
HETATM   44  C23 UNL     1       8.594   6.288  -0.250  1.00  0.00     0.204 C
BRANCH  42  45
HETATM   45  C21 UNL     1       5.976   8.269   1.494  1.00  0.00     0.264 C
BRANCH  45  46
HETATM   46  N4  UNL     1       6.401   9.540   1.008  1.00  0.00    -0.077 N
ATOM     47  H43 UNL     1       7.017   9.430   0.202  1.00  0.00     0.274 HD
ATOM     48  H42 UNL     1       5.626  10.034   0.564  1.00  0.00     0.274 HD
ATOM     49  H41 UNL     1       6.840  10.126   1.718  1.00  0.00     0.274 HD
ENDBRANCH  45  46
ENDBRANCH  42  45
BRANCH  43  50
HETATM   50  O11 UNL     1       6.875   7.584  -1.348  1.00  0.00    -0.390 OA
ATOM     51  H11 UNL     1       7.298   8.106  -2.019  1.00  0.00     0.210 HD
ENDBRANCH  43  50
BRANCH  44  52
HETATM   52  O12 UNL     1       7.996   5.418  -1.192  1.00  0.00    -0.388 OA
ATOM     53  H12 UNL     1       7.499   5.890  -1.850  1.00  0.00     0.210 HD
ENDBRANCH  44  52
ENDBRANCH  39  40
ENDBRANCH   6  39
BRANCH   3  54
HETATM   54  N2  UNL     1       9.269   0.362   3.983  1.00  0.00    -0.072 N
ATOM     55  H23 UNL     1       8.686  -0.457   3.819  1.00  0.00     0.274 HD
ATOM     56  H22 UNL     1      10.190  -0.049   3.827  1.00  0.00     0.274 HD
ATOM     57  H21 UNL     1       9.177   0.681   4.948  1.00  0.00     0.274 HD
ENDBRANCH   3  54
BRANCH   5  58
HETATM   58  N3  UNL     1       7.903   4.862   3.958  1.00  0.00    -0.072 N
ATOM     59  H33 UNL     1       7.109   5.403   3.616  1.00  0.00     0.274 HD
ATOM     60  H32 UNL     1       7.473   4.509   4.813  1.00  0.00     0.274 HD
ATOM     61  H31 UNL     1       8.721   5.442   4.141  1.00  0.00     0.274 HD
ENDBRANCH   5  58
TORSDOF 21
ENDMDL