MODEL 5
REMARK VINA RESULT: -8.422574332      1.543      1.827
REMARK  22 active torsions:
REMARK  status: ('A' for Active; 'I' for Inactive)
REMARK    1  A    between atoms: C2_2  and  N1_3
REMARK    2  A    between atoms: C3_7  and  O1_8
REMARK    3  A    between atoms: C4_10  and  N2_11
REMARK    4  A    between atoms: C6_16  and  N3_17
REMARK    5  A    between atoms: C7_21  and  O2_22
REMARK    6  A    between atoms: O2_22  and  C8_23
REMARK    7  A    between atoms: C9_25  and  C10_26
REMARK    8  A    between atoms: C10_26  and  N4_27
REMARK    9  A    between atoms: C11_31  and  O4_32
REMARK   10  A    between atoms: O4_32  and  C12_33
REMARK   11  A    between atoms: C13_34  and  O5_35
REMARK   12  A    between atoms: C14_37  and  C15_38
REMARK   13  A    between atoms: C15_38  and  S1_39
REMARK   14  A    between atoms: S1_39  and  C16_40
REMARK   15  A    between atoms: C16_40  and  C17_41
REMARK   16  A    between atoms: C18_44  and  C19_45
REMARK   17  A    between atoms: C19_45  and  O7_46
REMARK   18  A    between atoms: C20_48  and  O8_49
REMARK   19  A    between atoms: O8_49  and  C21_50
REMARK   20  A    between atoms: C22_51  and  N5_52
REMARK   21  A    between atoms: C24_57  and  O9_58
REMARK   22  A    between atoms: C25_60  and  N6_61
ROOT
HETATM    1  O4  UNL     1       9.989   1.869  -0.279  1.00  0.00    -0.348 OA
ENDROOT
BRANCH   1   2
HETATM    2  C11 UNL     1      10.839   0.930   0.196  1.00  0.00     0.296 C
HETATM    3  C9  UNL     1      11.569   0.247  -0.925  1.00  0.00     0.207 C
HETATM    4  O3  UNL     1      12.082  -0.863  -0.210  1.00  0.00    -0.327 OA
HETATM    5  C8  UNL     1      11.327  -1.010   0.918  1.00  0.00     0.416 C
HETATM    6  O10 UNL     1      10.176  -0.197   0.732  1.00  0.00    -0.305 OA
BRANCH   3   7
HETATM    7  C10 UNL     1      10.545  -0.326  -1.879  1.00  0.00     0.266 C
BRANCH   7   8
HETATM    8  N4  UNL     1      11.024  -0.492  -3.220  1.00  0.00    -0.077 N
ATOM      9  H43 UNL     1      10.254  -0.712  -3.850  1.00  0.00     0.274 HD
ATOM     10  H42 UNL     1      11.315   0.405  -3.609  1.00  0.00     0.274 HD
ATOM     11  H41 UNL     1      11.770  -1.182  -3.312  1.00  0.00     0.274 HD
ENDBRANCH   7   8
ENDBRANCH   3   7
BRANCH   5  12
HETATM   12  O2  UNL     1      11.023  -2.259   1.336  1.00  0.00    -0.329 OA
BRANCH  12  13
HETATM   13  C7  UNL     1      11.776  -3.277   0.739  1.00  0.00     0.195 C
HETATM   14  C2  UNL     1      12.554  -3.938   1.835  1.00  0.00     0.175 C
HETATM   15  C1  UNL     1      13.845  -3.236   2.183  1.00  0.00     0.052 C
HETATM   16  C3  UNL     1      12.886  -5.380   1.513  1.00  0.00     0.186 C
HETATM   17  C4  UNL     1      11.529  -6.073   1.478  1.00  0.00     0.216 C
HETATM   18  C5  UNL     1      10.791  -5.574   0.292  1.00  0.00     0.071 C
HETATM   19  C6  UNL     1      10.928  -4.159  -0.083  1.00  0.00     0.217 C
BRANCH  14  20
HETATM   20  N1  UNL     1      11.774  -3.973   3.070  1.00  0.00    -0.066 N
ATOM     21  H13 UNL     1      12.115  -3.332   3.786  1.00  0.00     0.275 HD
ATOM     22  H12 UNL     1      10.843  -3.568   2.976  1.00  0.00     0.275 HD
ATOM     23  H11 UNL     1      11.767  -4.950   3.366  1.00  0.00     0.275 HD
ENDBRANCH  14  20
BRANCH  16  24
HETATM   24  O1  UNL     1      13.639  -5.888   2.563  1.00  0.00    -0.391 OA
ATOM     25  H1  UNL     1      13.270  -6.729   2.806  1.00  0.00     0.210 HD
ENDBRANCH  16  24
BRANCH  17  26
HETATM   26  N2  UNL     1      11.795  -7.488   1.344  1.00  0.00    -0.072 N
ATOM     27  H23 UNL     1      12.561  -7.697   0.702  1.00  0.00     0.274 HD
ATOM     28  H22 UNL     1      12.213  -7.902   2.178  1.00  0.00     0.274 HD
ATOM     29  H21 UNL     1      10.913  -7.924   1.076  1.00  0.00     0.274 HD
ENDBRANCH  17  26
BRANCH  19  30
HETATM   30  N3  UNL     1      11.328  -4.101  -1.504  1.00  0.00    -0.072 N
ATOM     31  H33 UNL     1      11.795  -4.953  -1.819  1.00  0.00     0.274 HD
ATOM     32  H32 UNL     1      10.532  -4.141  -2.141  1.00  0.00     0.274 HD
ATOM     33  H31 UNL     1      11.899  -3.266  -1.637  1.00  0.00     0.274 HD
ENDBRANCH  19  30
ENDBRANCH  12  13
ENDBRANCH   5  12
ENDBRANCH   1   2
BRANCH   1  34
HETATM   34  C12 UNL     1      10.394   3.189  -0.172  1.00  0.00     0.187 C
HETATM   35  C13 UNL     1      10.181   3.491   1.329  1.00  0.00     0.179 C
HETATM   36  C14 UNL     1       8.689   3.732   1.464  1.00  0.00     0.162 C
HETATM   37  O6  UNL     1       8.492   4.987   0.920  1.00  0.00    -0.372 OA
HETATM   38  C18 UNL     1       8.619   4.947  -0.434  1.00  0.00     0.177 C
HETATM   39  C20 UNL     1       9.727   4.171  -1.041  1.00  0.00     0.184 C
BRANCH  35  40
HETATM   40  O5  UNL     1      10.852   4.645   1.711  1.00  0.00    -0.390 OA
ATOM     41  H5  UNL     1      10.555   4.951   2.561  1.00  0.00     0.210 HD
ENDBRANCH  35  40
BRANCH  36  42
HETATM   42  C15 UNL     1       8.315   3.627   2.903  1.00  0.00     0.108 C
BRANCH  42  43
HETATM   43  S1  UNL     1       8.467   1.912   3.438  1.00  0.00    -0.164 SA
BRANCH  43  44
HETATM   44  C16 UNL     1      10.041   1.620   4.303  1.00  0.00     0.105 C
BRANCH  44  45
HETATM   45  C17 UNL     1      10.295   0.137   4.298  1.00  0.00     0.232 C
HETATM   46  F1  UNL     1      10.890  -0.229   5.494  1.00  0.00    -0.255 F
ENDBRANCH  44  45
ENDBRANCH  43  44
ENDBRANCH  42  43
ENDBRANCH  36  42
BRANCH  38  47
HETATM   47  C19 UNL     1       8.647   6.422  -0.884  1.00  0.00     0.198 C
BRANCH  47  48
HETATM   48  O7  UNL     1       9.585   7.134  -0.141  1.00  0.00    -0.398 OA
ATOM     49  H7  UNL     1       9.161   7.581   0.581  1.00  0.00     0.209 HD
ENDBRANCH  47  48
ENDBRANCH  38  47
BRANCH  39  50
HETATM   50  O8  UNL     1       9.258   3.651  -2.246  1.00  0.00    -0.370 OA
BRANCH  50  51
HETATM   51  C21 UNL     1       9.933   4.076  -3.368  1.00  0.00     0.193 C
HETATM   52  C22 UNL     1       9.078   4.481  -4.510  1.00  0.00     0.239 C
HETATM   53  C23 UNL     1       9.938   4.204  -5.684  1.00  0.00     0.042 C
HETATM   54  C24 UNL     1      10.871   3.329  -5.351  1.00  0.00     0.074 C
HETATM   55  C25 UNL     1      10.739   2.931  -3.938  1.00  0.00     0.270 C
BRANCH  52  56
HETATM   56  N5  UNL     1       7.875   3.669  -4.684  1.00  0.00    -0.069 N
ATOM     57  H53 UNL     1       7.057   4.268  -4.798  1.00  0.00     0.275 HD
ATOM     58  H52 UNL     1       7.886   3.210  -5.594  1.00  0.00     0.275 HD
ATOM     59  H51 UNL     1       7.715   2.988  -3.942  1.00  0.00     0.275 HD
ENDBRANCH  52  56
BRANCH  54  60
HETATM   60  O9  UNL     1      11.848   2.840  -6.201  1.00  0.00    -0.363 OA
ATOM     61  H9  UNL     1      12.052   1.921  -6.331  1.00  0.00     0.217 HD
ENDBRANCH  54  60
BRANCH  55  62
HETATM   62  N6  UNL     1      12.052   2.851  -3.319  1.00  0.00    -0.067 N
ATOM     63  H63 UNL     1      12.278   3.704  -2.808  1.00  0.00     0.275 HD
ATOM     64  H62 UNL     1      12.059   2.195  -2.538  1.00  0.00     0.275 HD
ATOM     65  H61 UNL     1      12.772   2.624  -4.006  1.00  0.00     0.275 HD
ENDBRANCH  55  62
ENDBRANCH  50  51
ENDBRANCH  39  50
ENDBRANCH   1  34
TORSDOF 22
ENDMDL