MODEL 1
REMARK VINA RESULT: -9.762075956      0.000      0.000
REMARK  18 active torsions:
REMARK  status: ('A' for Active; 'I' for Inactive)
REMARK    1  A    between atoms: C5_9  and  N3_10
REMARK    2  A    between atoms: N4_13  and  N5_14
REMARK    3  A    between atoms: N6_17  and  C6_18
REMARK    4  A    between atoms: C6_18  and  C7_19
REMARK       I    between atoms: C7_19  and  N7_21
REMARK    5  A    between atoms: N7_21  and  C8_23
REMARK    6  A    between atoms: C8_23  and  C9_24
REMARK    7  A    between atoms: C10_26  and  C11_27
REMARK    8  A    between atoms: C11_27  and  N8_28
REMARK    9  A    between atoms: C14_34  and  C15_35
REMARK   10  A    between atoms: C15_35  and  N11_37
REMARK   11  A    between atoms: N11_37  and  O4_39
REMARK   12  A    between atoms: O4_39  and  C16_40
REMARK   13  A    between atoms: C16_40  and  C17_41
REMARK   14  A    between atoms: C17_41  and  C18_42
REMARK   15  A    between atoms: C18_42  and  N12_43
REMARK   16  A    between atoms: C19_47  and  N13_48
REMARK   17  A    between atoms: C20_52  and  O5_53
REMARK   18  A    between atoms: C21_55  and  O6_56
ROOT
HETATM    1  C9  UNL     1       8.701   1.638   2.640  1.00  0.00     0.116 C
HETATM    2  O3  UNL     1       9.017   1.051   1.376  1.00  0.00    -0.338 OA
HETATM    3  C10 UNL     1       9.014   1.987   0.380  1.00  0.00     0.180 C
HETATM    4  C19 UNL     1      10.056   3.037   0.619  1.00  0.00     0.249 C
HETATM    5  C20 UNL     1       9.523   3.889   1.787  1.00  0.00     0.210 C
HETATM    6  C21 UNL     1       8.566   3.070   2.581  1.00  0.00     0.108 C
ENDROOT
BRANCH   1   7
HETATM    7  C8  UNL     1       9.428   0.834   3.618  1.00  0.00     0.130 C
BRANCH   7   8
HETATM    8  N7  UNL     1      10.598   0.124   3.418  1.00  0.00    -0.333 N
HETATM    9  C7  UNL     1      11.423  -0.632   4.256  1.00  0.00     0.241 C
HETATM   10  O2  UNL     1      11.207  -0.771   5.468  1.00  0.00    -0.271 OA
ATOM     11  H7  UNL     1      10.930   0.161   2.454  1.00  0.00     0.168 HD
BRANCH   9  12
HETATM   12  C6  UNL     1      12.657  -1.351   3.745  1.00  0.00     0.259 C
BRANCH  12  13
HETATM   13  N6  UNL     1      12.293  -2.264   2.684  1.00  0.00    -0.212 N
HETATM   14  N4  UNL     1      12.225  -3.645   2.879  1.00  0.00    -0.187 N
HETATM   15  C3  UNL     1      11.867  -4.542   1.825  1.00  0.00     0.187 A
HETATM   16  C2  UNL     1      11.575  -4.072   0.576  1.00  0.00     0.163 A
HETATM   17  C4  UNL     1      11.797  -5.917   2.009  1.00  0.00     0.293 A
HETATM   18  N1  UNL     1      11.237  -4.938  -0.413  1.00  0.00    -0.170 N
HETATM   19  N14 UNL     1      11.626  -2.679   0.315  1.00  0.00    -0.290 N
HETATM   20  C1  UNL     1      10.938  -4.404  -1.709  1.00  0.00     0.177 C
HETATM   21  C5  UNL     1      11.182  -6.264  -0.191  1.00  0.00     0.682 A
HETATM   22  N2  UNL     1      11.462  -6.766   1.022  1.00  0.00    -0.154 N
ATOM     23  H2  UNL     1      11.420  -7.771   1.192  1.00  0.00     0.187 HD
HETATM   24  C22 UNL     1      11.987  -1.777   1.379  1.00  0.00     0.344 A
ATOM     25  H14 UNL     1      11.410  -2.320  -0.615  1.00  0.00     0.172 HD
HETATM   26  O7  UNL     1      12.020  -0.551   1.103  1.00  0.00    -0.245 OA
HETATM   27  O1  UNL     1      12.064  -6.362   3.157  1.00  0.00    -0.265 OA
BRANCH  14  28
HETATM   28  N5  UNL     1      12.511  -4.160   4.127  1.00  0.00    -0.323 N
ATOM     29  H52 UNL     1      11.927  -4.909   4.499  1.00  0.00     0.179 HD
ATOM     30  H51 UNL     1      13.301  -3.780   4.649  1.00  0.00     0.179 HD
ENDBRANCH  14  28
BRANCH  21  31
HETATM   31  N3  UNL     1      10.859  -7.097  -1.136  1.00  0.00    -0.234 N
ATOM     32  H32 UNL     1       9.953  -7.561  -1.076  1.00  0.00     0.174 HD
ATOM     33  H31 UNL     1      11.489  -7.285  -1.916  1.00  0.00     0.174 HD
ENDBRANCH  21  31
ENDBRANCH  12  13
ENDBRANCH   9  12
ENDBRANCH   7   8
ENDBRANCH   1   7
BRANCH   6  34
HETATM   34  O6  UNL     1       8.251   3.758   3.756  1.00  0.00    -0.359 OA
ATOM     35  H6  UNL     1       8.936   3.886   4.402  1.00  0.00     0.217 HD
ENDBRANCH   6  34
BRANCH   3  36
HETATM   36  C11 UNL     1       9.131   1.369  -0.990  1.00  0.00     0.165 C
BRANCH  36  37
HETATM   37  N8  UNL     1       8.798   2.289  -2.010  1.00  0.00    -0.335 N
HETATM   38  C12 UNL     1       7.473   2.654  -2.186  1.00  0.00     0.135 A
HETATM   39  C13 UNL     1       7.407   3.621  -3.156  1.00  0.00     0.120 A
HETATM   40 CL1  UNL     1       5.980   4.418  -3.755  1.00  0.00    -0.063 Cl
HETATM   41  N9  UNL     1       8.672   3.815  -3.539  1.00  0.00    -0.329 N
HETATM   42  C14 UNL     1       9.518   3.003  -2.843  1.00  0.00     0.152 A
ATOM     43  H9  UNL     1       8.965   4.479  -4.254  1.00  0.00     0.168 HD
BRANCH  42  44
HETATM   44  C15 UNL     1      10.932   2.951  -3.075  1.00  0.00     0.180 C
HETATM   45  N10 UNL     1      11.982   3.188  -2.182  1.00  0.00    -0.077 NA
BRANCH  44  46
HETATM   46  N11 UNL     1      11.373   2.597  -4.267  1.00  0.00    -0.250 N
ATOM     47  H11 UNL     1      12.379   2.541  -4.430  1.00  0.00     0.196 HD
BRANCH  46  48
HETATM   48  O4  UNL     1      10.514   2.304  -5.290  1.00  0.00    -0.279 OA
BRANCH  48  49
HETATM   49  C16 UNL     1      10.628   3.020  -6.486  1.00  0.00     0.203 C
BRANCH  49  50
HETATM   50  C17 UNL     1      11.954   3.756  -6.589  1.00  0.00     0.056 C
BRANCH  50  51
HETATM   51  C18 UNL     1      11.633   5.237  -6.571  1.00  0.00     0.231 C
BRANCH  51  52
HETATM   52  N12 UNL     1      10.201   5.355  -6.321  1.00  0.00    -0.079 N
ATOM     53 3H12 UNL     1       9.636   4.768  -6.934  1.00  0.00     0.274 HD
ATOM     54 2H12 UNL     1       9.911   4.934  -5.437  1.00  0.00     0.274 HD
ATOM     55 1H12 UNL     1       9.970   6.346  -6.389  1.00  0.00     0.274 HD
ENDBRANCH  51  52
ENDBRANCH  50  51
ENDBRANCH  49  50
ENDBRANCH  48  49
ENDBRANCH  46  48
ENDBRANCH  44  46
ENDBRANCH  42  44
ENDBRANCH  36  37
ENDBRANCH   3  36
BRANCH   5  56
HETATM   56  O5  UNL     1      10.542   4.491   2.468  1.00  0.00    -0.387 OA
ATOM     57  H5  UNL     1      10.221   5.196   3.018  1.00  0.00     0.210 HD
ENDBRANCH   5  56
BRANCH   4  58
HETATM   58  N13 UNL     1      11.320   2.510   1.068  1.00  0.00    -0.070 N
ATOM     59 3H13 UNL     1      11.350   2.467   2.087  1.00  0.00     0.275 HD
ATOM     60 2H13 UNL     1      11.391   1.515   0.854  1.00  0.00     0.275 HD
ATOM     61 1H13 UNL     1      12.128   3.015   0.705  1.00  0.00     0.275 HD
ENDBRANCH   4  58
TORSDOF 18
ENDMDL