MODEL 2
REMARK VINA RESULT: -8.089558113      4.207      7.914
REMARK  19 active torsions:
REMARK  status: ('A' for Active; 'I' for Inactive)
REMARK    1  A    between atoms: C2_2  and  N1_3
REMARK    2  A    between atoms: C4_8  and  N2_9
REMARK       I    between atoms: N2_9  and  C5_11
REMARK    3  A    between atoms: C6_15  and  O3_16
REMARK    4  A    between atoms: O3_16  and  C7_17
REMARK    5  A    between atoms: C8_18  and  C9_19
REMARK    6  A    between atoms: C9_19  and  O4_20
REMARK    7  A    between atoms: O4_20  and  C10_21
REMARK    8  A    between atoms: C11_23  and  C12_24
REMARK    9  A    between atoms: C12_24  and  N4_25
REMARK   10  A    between atoms: C13_29  and  O6_30
REMARK   11  A    between atoms: C15_33  and  N5_34
REMARK   12  A    between atoms: C18_40  and  N6_41
REMARK   13  A    between atoms: C19_45  and  O7_46
REMARK   14  A    between atoms: O7_46  and  C20_47
REMARK   15  A    between atoms: C21_49  and  C22_50
REMARK   16  A    between atoms: C22_50  and  O9_51
REMARK   17  A    between atoms: C23_54  and  O11_55
REMARK   18  A    between atoms: C24_57  and  C25_58
REMARK   19  A    between atoms: C25_58  and  O12_59
ROOT
HETATM    1  C7  UNL     1       9.500   3.171  -2.234  1.00  0.00     0.162 C
HETATM    2  C8  UNL     1       8.846   1.980  -1.563  1.00  0.00     0.041 C
HETATM    3  C16 UNL     1       9.711   0.790  -1.871  1.00  0.00     0.011 C
HETATM    4  C17 UNL     1      11.052   0.995  -1.221  1.00  0.00     0.036 C
HETATM    5  C18 UNL     1      11.715   2.134  -1.993  1.00  0.00     0.215 C
HETATM    6  C19 UNL     1      10.926   3.392  -1.854  1.00  0.00     0.184 C
ENDROOT
BRANCH   2   7
HETATM    7  C9  UNL     1       8.546   2.188  -0.132  1.00  0.00     0.178 C
BRANCH   7   8
HETATM    8  O4  UNL     1       8.729   1.090   0.650  1.00  0.00    -0.359 OA
BRANCH   8   9
HETATM    9  C10 UNL     1       8.579   1.229   1.998  1.00  0.00     0.290 C
HETATM   10  O5  UNL     1       8.917   0.099   2.749  1.00  0.00    -0.350 OA
HETATM   11  C11 UNL     1      10.252  -0.245   2.611  1.00  0.00     0.178 C
HETATM   12  C13 UNL     1      11.044   0.787   3.409  1.00  0.00     0.151 C
HETATM   13  C14 UNL     1      10.834   2.114   2.672  1.00  0.00     0.072 C
HETATM   14  C15 UNL     1       9.370   2.382   2.579  1.00  0.00     0.240 C
BRANCH  11  15
HETATM   15  C12 UNL     1      10.514  -1.640   3.074  1.00  0.00     0.264 C
BRANCH  15  16
HETATM   16  N4  UNL     1      11.628  -2.269   2.434  1.00  0.00    -0.077 N
ATOM     17  H43 UNL     1      11.782  -1.867   1.508  1.00  0.00     0.274 HD
ATOM     18  H42 UNL     1      12.501  -1.999   2.887  1.00  0.00     0.274 HD
ATOM     19  H41 UNL     1      11.556  -3.285   2.374  1.00  0.00     0.274 HD
ENDBRANCH  15  16
ENDBRANCH  11  15
BRANCH  12  20
HETATM   20  O6  UNL     1      12.368   0.461   3.543  1.00  0.00    -0.393 OA
ATOM     21  H6  UNL     1      12.824   1.003   4.176  1.00  0.00     0.210 HD
ENDBRANCH  12  20
BRANCH  14  22
HETATM   22  N5  UNL     1       8.869   2.558   3.952  1.00  0.00    -0.070 N
ATOM     23  H53 UNL     1       9.398   3.242   4.494  1.00  0.00     0.274 HD
ATOM     24  H52 UNL     1       7.968   3.034   4.000  1.00  0.00     0.274 HD
ATOM     25  H51 UNL     1       8.862   1.626   4.366  1.00  0.00     0.274 HD
ENDBRANCH  14  22
ENDBRANCH   8   9
ENDBRANCH   7   8
ENDBRANCH   2   7
BRANCH   1  26
HETATM   26  O3  UNL     1       9.482   2.876  -3.599  1.00  0.00    -0.350 OA
BRANCH  26  27
HETATM   27  C6  UNL     1       8.969   3.882  -4.369  1.00  0.00     0.298 C
HETATM   28  C2  UNL     1       9.446   3.677  -5.790  1.00  0.00     0.173 C
HETATM   29  C1  UNL     1       9.913   2.257  -6.041  1.00  0.00     0.051 C
HETATM   30  C3  UNL     1       8.178   3.973  -6.594  1.00  0.00     0.097 C
HETATM   31  C4  UNL     1       7.353   4.683  -5.542  1.00  0.00     0.230 C
HETATM   32  O2  UNL     1       7.572   3.875  -4.427  1.00  0.00    -0.334 OA
BRANCH  28  33
HETATM   33  N1  UNL     1      10.441   4.651  -6.180  1.00  0.00    -0.066 N
ATOM     34  H13 UNL     1      11.063   4.876  -5.404  1.00  0.00     0.275 HD
ATOM     35  H12 UNL     1      11.123   4.247  -6.822  1.00  0.00     0.275 HD
ATOM     36  H11 UNL     1      10.019   5.493  -6.571  1.00  0.00     0.275 HD
ENDBRANCH  28  33
BRANCH  31  37
HETATM   37  N2  UNL     1       5.983   4.836  -5.891  1.00  0.00    -0.319 N
HETATM   38  C5  UNL     1       5.297   6.018  -5.517  1.00  0.00     0.330 C
HETATM   39  N3  UNL     1       3.910   6.233  -5.841  1.00  0.00    -0.040 NA
HETATM   40  O1  UNL     1       5.872   6.923  -4.889  1.00  0.00    -0.251 OA
ATOM     41  H2  UNL     1       5.498   4.101  -6.406  1.00  0.00     0.166 HD
ENDBRANCH  31  37
ENDBRANCH  26  27
ENDBRANCH   1  26
BRANCH   6  42
HETATM   42  O7  UNL     1      11.078   4.028  -0.629  1.00  0.00    -0.351 OA
BRANCH  42  43
HETATM   43  C20 UNL     1      10.204   5.083  -0.461  1.00  0.00     0.274 C
HETATM   44  O8  UNL     1      10.126   5.334   0.909  1.00  0.00    -0.329 OA
HETATM   45  C21 UNL     1       9.240   6.372   1.190  1.00  0.00     0.289 C
HETATM   46  O10 UNL     1       8.669   6.829   0.021  1.00  0.00    -0.329 OA
HETATM   47  C23 UNL     1       9.689   7.440  -0.741  1.00  0.00     0.270 C
HETATM   48  C24 UNL     1      10.633   6.352  -1.148  1.00  0.00     0.120 C
BRANCH  45  49
HETATM   49  C22 UNL     1       8.116   5.912   2.096  1.00  0.00     0.225 C
BRANCH  49  50
HETATM   50  O9  UNL     1       8.559   5.689   3.391  1.00  0.00    -0.396 OA
ATOM     51  H9  UNL     1       8.092   4.973   3.804  1.00  0.00     0.209 HD
ENDBRANCH  49  50
ENDBRANCH  45  49
BRANCH  47  52
HETATM   52  O11 UNL     1      10.269   8.499  -0.090  1.00  0.00    -0.371 OA
ATOM     53  H11 UNL     1      11.132   8.708  -0.430  1.00  0.00     0.212 HD
ENDBRANCH  47  52
BRANCH  48  54
HETATM   54  C25 UNL     1      12.081   6.670  -0.827  1.00  0.00     0.178 C
BRANCH  54  55
HETATM   55  O12 UNL     1      12.868   6.181  -1.873  1.00  0.00    -0.400 OA
ATOM     56  H12 UNL     1      12.753   5.239  -1.907  1.00  0.00     0.209 HD
ENDBRANCH  54  55
ENDBRANCH  48  54
ENDBRANCH  42  43
ENDBRANCH   6  42
BRANCH   5  57
HETATM   57  N6  UNL     1      13.104   2.248  -1.709  1.00  0.00    -0.072 N
ATOM     58  H63 UNL     1      13.320   3.152  -1.290  1.00  0.00     0.274 HD
ATOM     59  H62 UNL     1      13.372   1.641  -0.934  1.00  0.00     0.274 HD
ATOM     60  H61 UNL     1      13.685   2.076  -2.529  1.00  0.00     0.274 HD
ENDBRANCH   5  57
TORSDOF 19
ENDMDL