MODEL 3
REMARK VINA RESULT: -3.308843955      2.601      6.059
REMARK  2 active torsions:
REMARK  status: ('A' for Active; 'I' for Inactive)
REMARK       I    between atoms: N1_2  and  C3_4
REMARK    1  A    between atoms: C3_4  and  C4_6
REMARK    2  A    between atoms: C8_10  and  O2_11
ROOT
HETATM    1  C4  UNL     1      28.766   0.507   4.925  1.00  0.00     0.086 C
HETATM    2  C5  UNL     1      28.964   1.803   4.176  1.00  0.00     0.049 C
HETATM    3  C6  UNL     1      27.473   1.799   3.927  1.00  0.00    -0.068 C
HETATM    4  C7  UNL     1      26.599   2.756   3.745  1.00  0.00     0.013 C
HETATM    5  C8  UNL     1      27.096   4.170   3.773  1.00  0.00     0.153 C
HETATM    6  C9  UNL     1      26.039   5.189   3.539  1.00  0.00     0.046 C
HETATM    7  C10 UNL     1      24.753   4.901   4.269  1.00  0.00    -0.032 A
HETATM    8  C11 UNL     1      23.787   6.067   4.298  1.00  0.00     0.016 C
HETATM    9  C12 UNL     1      24.756   4.059   5.494  1.00  0.00     0.021 A
HETATM   10  C13 UNL     1      24.264   3.537   4.172  1.00  0.00     0.062 A
HETATM   11  C14 UNL     1      25.151   2.530   3.506  1.00  0.00     0.196 C
HETATM   12  O3  UNL     1      24.825   1.291   4.052  1.00  0.00    -0.349 OA
HETATM   13  C15 UNL     1      23.750   0.857   3.296  1.00  0.00     0.198 C
HETATM   14  C16 UNL     1      24.119   1.337   1.913  1.00  0.00     0.198 C
HETATM   15  O4  UNL     1      24.908   2.430   2.138  1.00  0.00    -0.349 OA
HETATM   16  C17 UNL     1      27.574   0.314   3.999  1.00  0.00     0.049 C
ENDROOT
BRANCH   5  17
HETATM   17  O2  UNL     1      28.030   4.270   2.734  1.00  0.00    -0.391 OA
ATOM     18  H2  UNL     1      28.134   3.390   2.392  1.00  0.00     0.210 HD
ENDBRANCH   5  17
BRANCH   1  19
HETATM   19  C3  UNL     1      29.877  -0.415   4.713  1.00  0.00     0.223 C
HETATM   20  N1  UNL     1      29.777  -1.448   3.752  1.00  0.00    -0.360 N
HETATM   21  C1  UNL     1      28.576  -1.580   2.982  1.00  0.00     0.152 C
HETATM   22  C2  UNL     1      30.870  -2.386   3.521  1.00  0.00     0.152 C
HETATM   23  O1  UNL     1      30.951  -0.330   5.368  1.00  0.00    -0.273 OA
ENDBRANCH   1  19
TORSDOF 2
ENDMDL