MODEL 2
REMARK VINA RESULT: -6.024857705      1.820      2.852
REMARK  2 active torsions:
REMARK  status: ('A' for Active; 'I' for Inactive)
REMARK       I    between atoms: C1_2  and  N1_3
REMARK    1  A    between atoms: C1_2  and  C10_16
REMARK    2  A    between atoms: N1_3  and  C2_5
ROOT
HETATM    1  C2  UNL     1      27.976   3.322   4.203  1.00  0.00     0.151 A
HETATM    2  N2  UNL     1      26.736   2.822   4.216  1.00  0.00    -0.339 N
ATOM      3  H2  UNL     1      26.572   1.835   4.415  1.00  0.00     0.168 HD
HETATM    4  C3  UNL     1      25.734   3.634   3.967  1.00  0.00     0.024 A
HETATM    5  C4  UNL     1      26.037   4.946   3.710  1.00  0.00     0.009 A
HETATM    6  S1  UNL     1      27.733   4.964   3.835  1.00  0.00    -0.057 SA
HETATM    7  C5  UNL     1      25.155   6.120   3.392  1.00  0.00     0.048 C
HETATM    8  C6  UNL     1      24.084   6.308   4.414  1.00  0.00     0.005 C
HETATM    9  C7  UNL     1      22.997   5.268   4.111  1.00  0.00     0.001 C
HETATM   10  C8  UNL     1      23.425   4.007   4.831  1.00  0.00     0.006 C
HETATM   11  C9  UNL     1      24.294   3.127   3.966  1.00  0.00     0.058 C
ENDROOT
BRANCH   1  12
HETATM   12  N1  UNL     1      29.099   2.669   4.428  1.00  0.00    -0.307 N
HETATM   13  C1  UNL     1      29.331   1.401   3.825  1.00  0.00     0.227 C
HETATM   14  O1  UNL     1      29.454   1.397   2.572  1.00  0.00    -0.273 OA
ATOM     15  H1  UNL     1      29.807   3.076   5.038  1.00  0.00     0.171 HD
BRANCH  13  16
HETATM   16  C10 UNL     1      29.409   0.205   4.684  1.00  0.00     0.080 C
HETATM   17  C11 UNL     1      29.820  -1.028   3.906  1.00  0.00     0.024 C
HETATM   18  C12 UNL     1      28.777  -1.495   2.945  1.00  0.00     0.075 C
HETATM   19  S2  UNL     1      27.140  -1.617   3.680  1.00  0.00    -0.169 SA
HETATM   20  C13 UNL     1      26.936  -0.262   4.837  1.00  0.00     0.075 C
HETATM   21  C14 UNL     1      28.213   0.000   5.545  1.00  0.00     0.024 C
ENDBRANCH  13  16
ENDBRANCH   1  12
TORSDOF 2
ENDMDL