MODEL 3
REMARK VINA RESULT: -5.064351241      1.857      2.206
REMARK  1 active torsions:
REMARK  status: ('A' for Active; 'I' for Inactive)
REMARK    1  A    between atoms: C1_2  and  C2_3
REMARK       I    between atoms: C1_2  and  N3_14
ROOT
HETATM    1  O1  UNL     1      23.367   1.656   3.130  1.00  0.00    -0.265 OA
HETATM    2  C1  UNL     1      24.395   2.387   3.442  1.00  0.00     0.276 C
HETATM    3  N3  UNL     1      25.660   1.824   3.310  1.00  0.00    -0.326 N
HETATM    4  C8  UNL     1      25.736   0.424   2.822  1.00  0.00     0.132 C
HETATM    5  C9  UNL     1      26.555  -0.291   3.889  1.00  0.00     0.030 C
HETATM    6  C10 UNL     1      27.985   0.197   3.764  1.00  0.00    -0.031 C
HETATM    7  C11 UNL     1      28.561   0.174   5.163  1.00  0.00     0.036 C
HETATM    8  C12 UNL     1      30.077   0.011   5.147  1.00  0.00     0.168 C
HETATM    9  O3  UNL     1      30.307  -1.227   4.546  1.00  0.00    -0.391 OA
HETATM   10  C13 UNL     1      30.071  -1.099   3.207  1.00  0.00     0.168 C
HETATM   11  C14 UNL     1      28.699  -0.709   2.814  1.00  0.00     0.036 C
HETATM   12  C15 UNL     1      28.095   1.603   3.259  1.00  0.00     0.054 C
HETATM   13  C16 UNL     1      26.881   2.465   3.599  1.00  0.00     0.068 C
ENDROOT
BRANCH   2  14
HETATM   14  C2  UNL     1      24.065   3.729   3.897  1.00  0.00     0.124 A
HETATM   15  N1  UNL     1      22.921   4.295   4.271  1.00  0.00    -0.295 N
HETATM   16  N2  UNL     1      23.086   5.583   4.623  1.00  0.00    -0.301 N
ATOM     17  H1  UNL     1      22.024   3.809   4.288  1.00  0.00     0.187 HD
HETATM   18  C3  UNL     1      24.357   5.900   4.489  1.00  0.00     0.058 A
ATOM     19  H2  UNL     1      22.348   6.211   4.942  1.00  0.00     0.186 HD
HETATM   20  C4  UNL     1      25.004   4.767   4.037  1.00  0.00     0.004 A
HETATM   21  C7  UNL     1      25.202   7.104   4.702  1.00  0.00     0.226 C
HETATM   22  C5  UNL     1      26.457   4.935   3.822  1.00  0.00     0.069 C
HETATM   23  C6  UNL     1      26.645   6.252   3.099  1.00  0.00     0.172 C
HETATM   24  O2  UNL     1      26.111   7.340   3.712  1.00  0.00    -0.385 OA
ENDBRANCH   2  14
TORSDOF 1
ENDMDL