MODEL 3
REMARK VINA RESULT: 1.555343823      1.932      4.252
REMARK  2 active torsions:
REMARK  status: ('A' for Active; 'I' for Inactive)
REMARK    1  A    between atoms: C10_11  and  O1_12
REMARK    2  A    between atoms: C15_19  and  O2_20
ROOT
HETATM    1  C1  UNL     1      26.208   4.426   4.693  1.00  0.00     0.017 C
HETATM    2  C2  UNL     1      27.220   3.640   4.419  1.00  0.00    -0.054 C
HETATM    3  C3  UNL     1      28.379   3.592   5.353  1.00  0.00     0.042 C
HETATM    4  C4  UNL     1      28.507   2.309   6.071  1.00  0.00     0.020 C
HETATM    5  C5  UNL     1      29.494   1.311   5.624  1.00  0.00     0.278 C
HETATM    6  N1  UNL     1      28.784   0.214   4.977  1.00  0.00     0.103 N
HETATM    7  C6  UNL     1      29.514  -0.473   4.002  1.00  0.00     0.273 C
HETATM    8  C7  UNL     1      29.102  -0.360   2.600  1.00  0.00     0.031 C
HETATM    9  C8  UNL     1      28.450   0.931   2.168  1.00  0.00     0.012 C
HETATM   10  C9  UNL     1      27.989   1.666   3.340  1.00  0.00     0.068 C
HETATM   11  C10 UNL     1      27.091   2.867   3.117  1.00  0.00     0.091 C
HETATM   12  C12 UNL     1      25.754   2.433   2.735  1.00  0.00     0.067 C
HETATM   13  C13 UNL     1      24.844   1.713   3.584  1.00  0.00     0.078 C
HETATM   14  C14 UNL     1      23.824   0.999   2.660  1.00  0.00     0.032 C
HETATM   15  N2  UNL     1      25.253   0.765   4.518  1.00  0.00    -0.391 N
ATOM     16  H2  UNL     1      24.747   0.632   5.394  1.00  0.00     0.156 HD
HETATM   17  C15 UNL     1      26.439  -0.036   4.195  1.00  0.00     0.255 C
HETATM   18  C17 UNL     1      27.577   0.854   4.509  1.00  0.00     0.209 C
HETATM   19  C18 UNL     1      27.231   1.550   5.782  1.00  0.00     0.053 C
ENDROOT
BRANCH  11  20
HETATM   20  O1  UNL     1      27.641   3.726   2.226  1.00  0.00    -0.380 OA
HETATM   21  C11 UNL     1      27.522   5.038   2.222  1.00  0.00     0.203 C
ENDBRANCH  11  20
BRANCH  17  22
HETATM   22  O2  UNL     1      26.399  -1.233   4.892  1.00  0.00    -0.369 OA
HETATM   23  C16 UNL     1      26.447  -2.388   4.208  1.00  0.00     0.204 C
ENDBRANCH  17  22
TORSDOF 2
ENDMDL