MODEL 5
REMARK VINA RESULT: 2.514924223      1.482      2.858
REMARK  1 active torsions:
REMARK  status: ('A' for Active; 'I' for Inactive)
REMARK    1  A    between atoms: C16_19  and  O1_21
ROOT
HETATM    1  C1  UNL     1      25.964   4.088   1.854  1.00  0.00     0.315 C
HETATM    2  N1  UNL     1      26.639   3.041   2.547  1.00  0.00     0.130 N
HETATM    3  C2  UNL     1      26.073   1.777   2.042  1.00  0.00     0.396 C
HETATM    4  N2  UNL     1      26.252   0.815   3.056  1.00  0.00    -0.381 N
HETATM    5  C3  UNL     1      25.270   0.939   4.003  1.00  0.00     0.123 C
HETATM    6  C4  UNL     1      25.330   2.393   4.511  1.00  0.00     0.084 C
HETATM    7  C5  UNL     1      26.557   3.114   3.994  1.00  0.00     0.233 C
HETATM    8  C6  UNL     1      26.302   4.584   4.377  1.00  0.00     0.066 C
HETATM    9  C7  UNL     1      27.650   5.205   4.465  1.00  0.00     0.024 C
HETATM   10  C8  UNL     1      28.469   4.048   4.976  1.00  0.00     0.119 C
HETATM   11  N3  UNL     1      27.759   2.832   4.627  1.00  0.00    -0.378 N
HETATM   12  C9  UNL     1      27.931   1.832   5.587  1.00  0.00     0.128 C
HETATM   13  C10 UNL     1      28.798   0.640   5.130  1.00  0.00    -0.025 C
HETATM   14  C11 UNL     1      29.811   0.477   6.300  1.00  0.00     0.017 C
HETATM   15  C12 UNL     1      29.619   1.026   3.973  1.00  0.00     0.011 C
HETATM   16  C13 UNL     1      29.629   0.075   2.793  1.00  0.00     0.003 C
HETATM   17  C14 UNL     1      28.341   0.078   2.095  1.00  0.00     0.028 C
HETATM   18  C15 UNL     1      27.080  -0.264   2.818  1.00  0.00     0.114 C
HETATM   19  C16 UNL     1      27.397  -1.184   3.941  1.00  0.00     0.075 C
HETATM   20  C17 UNL     1      26.198  -2.029   4.395  1.00  0.00     0.048 C
HETATM   21  C18 UNL     1      28.074  -0.638   5.119  1.00  0.00     0.050 C
ENDROOT
BRANCH  19  22
HETATM   22  O1  UNL     1      28.190  -2.195   3.309  1.00  0.00    -0.388 OA
ATOM     23  H1  UNL     1      29.078  -1.929   3.520  1.00  0.00     0.210 HD
ENDBRANCH  19  22
TORSDOF 1
ENDMDL