MODEL 3
REMARK VINA RESULT: -4.832120504      2.205      3.401
REMARK  3 active torsions:
REMARK  status: ('A' for Active; 'I' for Inactive)
REMARK    1  A    between atoms: C4_4  and  N1_5
REMARK    2  A    between atoms: N1_5  and  C5_7
REMARK    3  A    between atoms: C5_7  and  N2_9
ROOT
HETATM    1  N2  UNL     1      27.370   1.799   4.357  1.00  0.00    -0.351 N
HETATM    2  C6  UNL     1      27.856   2.355   5.634  1.00  0.00     0.151 C
HETATM    3  C7  UNL     1      29.072   1.478   5.963  1.00  0.00     0.191 C
HETATM    4  O1  UNL     1      28.773   0.168   5.606  1.00  0.00    -0.352 OA
HETATM    5  C8  UNL     1      28.953  -0.057   4.227  1.00  0.00     0.180 C
HETATM    6  C9  UNL     1      30.413  -0.247   3.980  1.00  0.00     0.070 C
HETATM    7  C10 UNL     1      30.815  -1.680   4.222  1.00  0.00     0.007 C
HETATM    8  C11 UNL     1      30.115  -2.535   3.188  1.00  0.00     0.026 C
HETATM    9  C12 UNL     1      28.839  -1.864   2.795  1.00  0.00     0.171 C
HETATM   10  O2  UNL     1      28.240  -1.157   3.823  1.00  0.00    -0.353 OA
HETATM   11  C13 UNL     1      28.389   1.184   3.553  1.00  0.00     0.193 C
ENDROOT
BRANCH   1  12
HETATM   12  C5  UNL     1      25.996   1.912   4.043  1.00  0.00     0.170 C
HETATM   13  S1  UNL     1      25.450   1.266   2.614  1.00  0.00    -0.041 SA
BRANCH  12  14
HETATM   14  N1  UNL     1      25.029   2.544   4.861  1.00  0.00    -0.362 N
ATOM     15  H1  UNL     1      24.589   1.971   5.581  1.00  0.00     0.162 HD
BRANCH  14  16
HETATM   16  C4  UNL     1      24.615   3.902   4.774  1.00  0.00     0.088 C
HETATM   17  C3  UNL     1      25.483   4.789   3.919  1.00  0.00     0.056 C
HETATM   18  C2  UNL     1      25.235   6.213   4.426  1.00  0.00     0.119 C
HETATM   19  C1  UNL     1      25.923   7.240   3.578  1.00  0.00     0.039 C
HETATM   20  O3  UNL     1      23.880   6.426   4.577  1.00  0.00    -0.386 OA
HETATM   21  C15 UNL     1      23.062   5.562   3.884  1.00  0.00     0.170 C
HETATM   22  C14 UNL     1      23.201   4.123   4.344  1.00  0.00     0.051 C
ENDBRANCH  14  16
ENDBRANCH  12  14
ENDBRANCH   1  12
TORSDOF 3
ENDMDL