MODEL 3
REMARK VINA RESULT: -1.837572497      2.381      3.790
REMARK  3 active torsions:
REMARK  status: ('A' for Active; 'I' for Inactive)
REMARK    1  A    between atoms: O1_2  and  C2_3
REMARK    2  A    between atoms: C2_3  and  C3_5
REMARK       I    between atoms: N1_8  and  C5_10
REMARK       I    between atoms: C5_10  and  N3_16
REMARK       I    between atoms: N2_11  and  C6_13
REMARK    3  A    between atoms: N3_16  and  C8_18
ROOT
HETATM    1  C3  UNL     1      28.357  -0.084   4.561  1.00  0.00     0.200 C
HETATM    2  S1  UNL     1      26.836   0.811   4.108  1.00  0.00    -0.072 SA
HETATM    3  C4  UNL     1      27.342   2.329   4.967  1.00  0.00     0.160 C
HETATM    4  N1  UNL     1      26.904   3.516   4.749  1.00  0.00    -0.170 N
ATOM      5  H1  UNL     1      27.269   4.292   5.302  1.00  0.00     0.186 HD
HETATM    6  C5  UNL     1      25.925   3.770   3.760  1.00  0.00     0.683 C
HETATM    7  N2  UNL     1      26.233   4.488   2.744  1.00  0.00    -0.160 N
ATOM      8  H2  UNL     1      25.514   4.663   2.041  1.00  0.00     0.187 HD
HETATM    9  C6  UNL     1      27.510   5.051   2.545  1.00  0.00     0.231 C
HETATM   10  C7  UNL     1      27.851   5.587   1.198  1.00  0.00     0.118 C
HETATM   11  O3  UNL     1      28.397   5.136   3.433  1.00  0.00    -0.273 OA
HETATM   12  N3  UNL     1      24.625   3.234   3.902  1.00  0.00    -0.218 N
ATOM     13  H3  UNL     1      24.384   2.368   3.421  1.00  0.00     0.178 HD
HETATM   14  N4  UNL     1      28.291   1.848   5.875  1.00  0.00    -0.342 N
ATOM     15  H4  UNL     1      28.573   2.426   6.667  1.00  0.00     0.167 HD
HETATM   16  C12 UNL     1      28.791   0.726   5.724  1.00  0.00     0.009 C
HETATM   17  C13 UNL     1      29.831   0.124   6.666  1.00  0.00     0.065 C
ENDROOT
BRANCH  12  18
HETATM   18  C8  UNL     1      23.642   3.886   4.710  1.00  0.00     0.036 C
HETATM   19  C9  UNL     1      22.354   4.078   3.935  1.00  0.00     0.038 C
HETATM   20  C10 UNL     1      24.151   5.274   5.056  1.00  0.00     0.038 C
HETATM   21  C11 UNL     1      23.386   3.160   6.011  1.00  0.00     0.038 C
ENDBRANCH  12  18
BRANCH   1  22
HETATM   22  C2  UNL     1      29.298  -0.004   3.440  1.00  0.00     0.278 C
HETATM   23  O2  UNL     1      29.732   1.113   3.076  1.00  0.00    -0.264 OA
BRANCH  22  24
HETATM   24  O1  UNL     1      29.760  -1.106   2.732  1.00  0.00    -0.325 OA
HETATM   25  C1  UNL     1      30.214  -2.270   3.376  1.00  0.00     0.213 C
ENDBRANCH  22  24
ENDBRANCH   1  22
TORSDOF 3
ENDMDL