MODEL 4
REMARK VINA RESULT: -2.774936726      1.441      1.958
REMARK  5 active torsions:
REMARK  status: ('A' for Active; 'I' for Inactive)
REMARK    1  A    between atoms: C2_2  and  N1_3
REMARK    2  A    between atoms: C3_6  and  O1_7
REMARK    3  A    between atoms: C3_6  and  N2_9
REMARK       I    between atoms: N3_15  and  C9_16
REMARK    4  A    between atoms: C9_16  and  O3_18
REMARK    5  A    between atoms: O3_18  and  C10_19
ROOT
HETATM    1  N2  UNL     1      26.343   4.893   3.809  1.00  0.00    -0.360 N
HETATM    2  C4  UNL     1      27.593   4.563   3.236  1.00  0.00     0.126 C
HETATM    3  C5  UNL     1      27.698   3.064   3.231  1.00  0.00     0.031 C
HETATM    4  C6  UNL     1      26.787   2.647   4.345  1.00  0.00    -0.020 C
HETATM    5  C7  UNL     1      26.204   1.283   4.208  1.00  0.00     0.031 C
HETATM    6  C8  UNL     1      26.983   0.224   4.950  1.00  0.00     0.129 C
HETATM    7  N3  UNL     1      28.281   0.671   5.350  1.00  0.00    -0.328 N
HETATM    8  C9  UNL     1      29.418  -0.096   4.954  1.00  0.00     0.363 C
HETATM    9  O2  UNL     1      30.589   0.249   5.277  1.00  0.00    -0.238 OA
HETATM   10  C14 UNL     1      28.396   1.874   6.134  1.00  0.00     0.129 C
HETATM   11  C15 UNL     1      27.431   2.908   5.670  1.00  0.00     0.031 C
HETATM   12  C16 UNL     1      25.640   3.661   4.182  1.00  0.00     0.134 C
ENDROOT
BRANCH   1  13
HETATM   13  C3  UNL     1      25.790   6.171   4.034  1.00  0.00     0.160 C
HETATM   14  C2  UNL     1      24.415   6.518   4.286  1.00  0.00     0.050 C
HETATM   15  C1  UNL     1      24.033   7.979   4.517  1.00  0.00     0.072 C
BRANCH  14  16
HETATM   16  N1  UNL     1      23.471   5.710   4.340  1.00  0.00    -0.399 N
ATOM     17  H12 UNL     1      22.902   5.418   3.545  1.00  0.00     0.156 HD
ATOM     18  H11 UNL     1      23.280   5.329   5.266  1.00  0.00     0.156 HD
ENDBRANCH  14  16
BRANCH  13  19
HETATM   19  O1  UNL     1      26.629   7.173   4.012  1.00  0.00    -0.345 OA
ATOM     20  H1  UNL     1      26.705   7.660   4.825  1.00  0.00     0.219 HD
ENDBRANCH  13  19
ENDBRANCH   1  13
BRANCH   8  21
HETATM   21  O3  UNL     1      29.323  -1.245   4.205  1.00  0.00    -0.294 OA
BRANCH  21  22
HETATM   22  C10 UNL     1      29.304  -1.331   2.828  1.00  0.00     0.061 C
HETATM   23  C11 UNL     1      28.006  -1.750   2.216  1.00  0.00     0.046 C
HETATM   24  C12 UNL     1      30.351  -2.368   2.410  1.00  0.00     0.046 C
HETATM   25  C13 UNL     1      29.726  -0.029   2.154  1.00  0.00     0.046 C
ENDBRANCH  21  22
ENDBRANCH   8  21
TORSDOF 5
ENDMDL