MODEL 3
REMARK VINA RESULT: -3.557672182      1.020      1.049
REMARK  1 active torsions:
REMARK  status: ('A' for Active; 'I' for Inactive)
REMARK    1  A    between atoms: C11_13  and  C12_14
ROOT
HETATM    1  C1  UNL     1      25.628   6.858   3.755  1.00  0.00     0.154 C
HETATM    2  N1  UNL     1      25.493   5.409   3.982  1.00  0.00    -0.375 N
HETATM    3  C2  UNL     1      24.192   4.925   3.907  1.00  0.00     0.100 C
HETATM    4  C3  UNL     1      23.661   4.153   5.084  1.00  0.00     0.290 A
HETATM    5  C4  UNL     1      22.651   3.074   4.697  1.00  0.00     0.315 A
HETATM    6  N2  UNL     1      23.934   2.676   5.134  1.00  0.00     0.107 N
HETATM    7  C5  UNL     1      25.107   2.515   4.491  1.00  0.00     0.231 C
HETATM    8  C6  UNL     1      26.055   3.359   5.266  1.00  0.00     0.053 C
HETATM    9  C7  UNL     1      27.069   3.485   4.160  1.00  0.00     0.015 C
HETATM   10  C8  UNL     1      26.765   2.412   3.103  1.00  0.00     0.026 C
HETATM   11  C9  UNL     1      26.030   1.483   4.117  1.00  0.00     0.043 C
HETATM   12  C10 UNL     1      27.158   1.027   4.974  1.00  0.00     0.094 C
HETATM   13  C11 UNL     1      28.197   0.205   4.253  1.00  0.00     0.019 C
HETATM   14  C13 UNL     1      29.447   0.925   3.863  1.00  0.00     0.009 C
HETATM   15  C14 UNL     1      29.359   2.429   3.763  1.00  0.00     0.027 C
HETATM   16  C15 UNL     1      28.367   3.102   4.682  1.00  0.00     0.097 C
HETATM   17  N3  UNL     1      28.033   1.973   5.553  1.00  0.00    -0.388 N
HETATM   18  C16 UNL     1      28.729   1.741   6.683  1.00  0.00     0.116 C
HETATM   19  C17 UNL     1      26.677   4.780   3.582  1.00  0.00     0.074 C
ENDROOT
BRANCH  13  20
HETATM   20  C12 UNL     1      27.660  -0.755   3.249  1.00  0.00     0.092 C
HETATM   21  S1  UNL     1      28.855  -1.978   2.674  1.00  0.00    -0.097 SA
ENDBRANCH  13  20
TORSDOF 1
ENDMDL