MODEL 4
REMARK VINA RESULT: 0.263721310      2.024      4.872
REMARK  2 active torsions:
REMARK  status: ('A' for Active; 'I' for Inactive)
REMARK    1  A    between atoms: O1_2  and  C2_3
REMARK    2  A    between atoms: C2_3  and  C3_5
REMARK       I    between atoms: N1_8  and  C6_9
ROOT
HETATM    1  C3  UNL     1      27.197   2.488   4.612  1.00  0.00     0.065 C
HETATM    2  C4  UNL     1      27.260   2.190   6.114  1.00  0.00     0.028 C
HETATM    3  C5  UNL     1      25.813   2.771   4.175  1.00  0.00     0.145 C
HETATM    4  N1  UNL     1      25.158   1.787   3.385  1.00  0.00    -0.351 N
HETATM    5  C6  UNL     1      23.768   1.855   3.188  1.00  0.00     0.215 C
HETATM    6  C7  UNL     1      23.006   0.862   2.371  1.00  0.00     0.117 C
HETATM    7  O3  UNL     1      23.114   2.790   3.714  1.00  0.00    -0.274 OA
HETATM    8  C8  UNL     1      25.857   0.665   2.739  1.00  0.00     0.133 C
HETATM    9  C9  UNL     1      26.867   0.191   3.798  1.00  0.00     0.036 C
HETATM   10  C10 UNL     1      27.843   1.306   3.929  1.00  0.00     0.015 C
HETATM   11  C11 UNL     1      29.068   0.862   4.664  1.00  0.00     0.036 C
HETATM   12  C12 UNL     1      29.671  -0.266   3.865  1.00  0.00     0.019 C
HETATM   13  C13 UNL     1      30.922  -0.700   4.646  1.00  0.00     0.037 C
HETATM   14  C14 UNL     1      30.175   0.202   2.515  1.00  0.00     0.037 C
HETATM   15  N2  UNL     1      28.789  -1.359   3.820  1.00  0.00    -0.405 N
ATOM     16  H2  UNL     1      29.121  -2.300   4.032  1.00  0.00     0.154 HD
HETATM   17  C15 UNL     1      27.445  -1.137   3.479  1.00  0.00     0.024 C
HETATM   18  C16 UNL     1      26.629  -2.191   4.252  1.00  0.00     0.038 C
HETATM   19  C17 UNL     1      27.224  -1.497   2.016  1.00  0.00     0.038 C
ENDROOT
BRANCH   1  20
HETATM   20  C2  UNL     1      28.005   3.720   4.407  1.00  0.00     0.269 C
HETATM   21  O2  UNL     1      29.020   3.992   5.097  1.00  0.00    -0.264 OA
BRANCH  20  22
HETATM   22  O1  UNL     1      27.665   4.648   3.422  1.00  0.00    -0.326 OA
HETATM   23  C1  UNL     1      27.247   5.973   3.780  1.00  0.00     0.213 C
ENDBRANCH  20  22
ENDBRANCH   1  20
TORSDOF 2
ENDMDL