MODEL 2
REMARK VINA RESULT: -7.469314748      5.801      7.671
REMARK  8 active torsions:
REMARK  status: ('A' for Active; 'I' for Inactive)
REMARK    1  A    between atoms: C3_3  and  C4_4
REMARK    2  A    between atoms: C4_4  and  N1_5
REMARK    3  A    between atoms: N1_5  and  N2_6
REMARK    4  A    between atoms: N2_6  and  C5_8
REMARK    5  A    between atoms: C5_8  and  C6_12
REMARK    6  A    between atoms: C10_18  and  N4_19
REMARK    7  A    between atoms: N4_19  and  C11_21
REMARK    8  A    between atoms: C14_24  and  N5_25
ROOT
HETATM    1  C1  UNL     1     -12.204  22.460 -37.516  1.00  0.00     0.052 C
HETATM    2  C2  UNL     1     -13.413  23.198 -37.147  1.00  0.00    -0.014 A
HETATM    3  C3  UNL     1     -14.640  22.732 -37.542  1.00  0.00     0.003 A
HETATM    4  C8  UNL     1     -15.794  23.405 -37.210  1.00  0.00     0.017 A
HETATM    5  C9  UNL     1     -15.689  24.567 -36.469  1.00  0.00     0.032 A
HETATM    6  C10 UNL     1     -14.452  25.041 -36.068  1.00  0.00     0.062 A
HETATM    7  C14 UNL     1     -13.295  24.370 -36.398  1.00  0.00     0.136 A
ENDROOT
BRANCH   3   8
HETATM    8  C4  UNL     1     -14.742  21.483 -38.341  1.00  0.00     0.221 C
BRANCH   8   9
HETATM    9  N1  UNL     1     -14.707  21.486 -39.508  1.00  0.00    -0.336 NA
BRANCH   9  10
HETATM   10  N2  UNL     1     -14.494  21.584 -40.781  1.00  0.00    -0.221 N
ATOM     11  H2  UNL     1     -15.045  21.033 -41.440  1.00  0.00     0.203 HD
BRANCH  10  12
HETATM   12  C5  UNL     1     -13.456  22.495 -41.265  1.00  0.00     0.140 C
HETATM   13  N3  UNL     1     -12.237  22.087 -41.302  1.00  0.00    -0.385 N
ATOM     14  H32 UNL     1     -11.925  21.160 -41.015  1.00  0.00     0.157 HD
ATOM     15  H31 UNL     1     -11.513  22.722 -41.640  1.00  0.00     0.157 HD
BRANCH  12  16
HETATM   16  C6  UNL     1     -13.904  23.827 -41.677  1.00  0.00     0.169 C
HETATM   17  C7  UNL     1     -13.018  24.416 -42.742  1.00  0.00     0.059 C
HETATM   18 CL1  UNL     1     -15.560  23.666 -42.352  1.00  0.00    -0.093 Cl
HETATM   19 CL2  UNL     1     -13.928  24.907 -40.256  1.00  0.00    -0.093 Cl
ENDBRANCH  12  16
ENDBRANCH  10  12
ENDBRANCH   9  10
ENDBRANCH   8   9
ENDBRANCH   3   8
BRANCH   7  20
HETATM   20  N5  UNL     1     -12.020  24.793 -36.027  1.00  0.00    -0.113 N
HETATM   21  O1  UNL     1     -11.532  24.342 -34.951  1.00  0.00    -0.532 OA
HETATM   22  O2  UNL     1     -11.232  25.664 -36.729  1.00  0.00    -0.532 OA
ENDBRANCH   7  20
BRANCH   6  23
HETATM   23  N4  UNL     1     -14.320  26.243 -35.299  1.00  0.00    -0.383 N
ATOM     24  H4  UNL     1     -13.889  27.068 -35.716  1.00  0.00     0.160 HD
BRANCH  23  25
HETATM   25  C11 UNL     1     -14.791  26.292 -33.945  1.00  0.00     0.082 A
HETATM   26  C12 UNL     1     -13.747  26.025 -32.880  1.00  0.00     0.027 A
HETATM   27  C13 UNL     1     -14.901  25.077 -33.100  1.00  0.00     0.027 A
ENDBRANCH  23  25
ENDBRANCH   6  23
TORSDOF 8
ENDMDL