MODEL 4
REMARK VINA RESULT: -7.970070056      5.143      8.903
REMARK  8 active torsions:
REMARK  status: ('A' for Active; 'I' for Inactive)
REMARK    1  A    between atoms: C2_2  and  O1_5
REMARK    2  A    between atoms: O1_5  and  C5_6
REMARK       I    between atoms: C5_6  and  N1_8
REMARK    3  A    between atoms: N1_8  and  N2_9
REMARK       I    between atoms: N2_9  and  C6_11
REMARK    4  A    between atoms: C6_11  and  C7_13
REMARK    5  A    between atoms: C9_15  and  O4_16
REMARK    6  A    between atoms: N3_18  and  C10_19
REMARK    7  A    between atoms: C10_19  and  C13_22
REMARK    8  A    between atoms: C13_22  and  C14_23
ROOT
HETATM    1  C7  UNL     1     -11.833  23.695 -36.345  1.00  0.00     0.054 A
HETATM    2  C8  UNL     1     -11.824  25.109 -36.593  1.00  0.00     0.074 A
HETATM    3  C9  UNL     1     -11.935  25.717 -35.381  1.00  0.00     0.143 A
HETATM    4  N3  UNL     1     -12.011  24.790 -34.420  1.00  0.00    -0.328 N
HETATM    5  C15 UNL     1     -11.945  23.600 -34.986  1.00  0.00     0.111 A
ENDROOT
BRANCH   1   6
HETATM    6  C6  UNL     1     -11.860  22.716 -37.415  1.00  0.00     0.281 C
HETATM    7  N2  UNL     1     -10.937  22.891 -38.502  1.00  0.00    -0.193 N
ATOM      8  H2  UNL     1     -10.221  23.615 -38.451  1.00  0.00     0.205 HD
HETATM    9  O3  UNL     1     -12.636  21.753 -37.465  1.00  0.00    -0.265 OA
BRANCH   7  10
HETATM   10  N1  UNL     1     -11.016  22.106 -39.582  1.00  0.00    -0.256 NA
HETATM   11  C5  UNL     1     -11.095  21.309 -40.682  1.00  0.00     0.459 C
HETATM   12  O2  UNL     1     -10.181  21.312 -41.577  1.00  0.00    -0.219 OA
BRANCH  11  13
HETATM   13  O1  UNL     1     -12.139  20.410 -40.978  1.00  0.00    -0.281 OA
BRANCH  13  14
HETATM   14  C2  UNL     1     -13.318  20.928 -41.627  1.00  0.00     0.062 C
HETATM   15  C1  UNL     1     -13.944  19.717 -42.285  1.00  0.00     0.046 C
HETATM   16  C3  UNL     1     -13.084  22.001 -42.615  1.00  0.00     0.046 C
HETATM   17  C4  UNL     1     -14.312  21.397 -40.538  1.00  0.00     0.046 C
ENDBRANCH  13  14
ENDBRANCH  11  13
ENDBRANCH   7  10
ENDBRANCH   1   6
BRANCH   3  18
HETATM   18  O4  UNL     1     -11.953  27.121 -35.301  1.00  0.00    -0.346 OA
ATOM     19  H4  UNL     1     -11.855  27.548 -34.458  1.00  0.00     0.219 HD
ENDBRANCH   3  18
BRANCH   4  20
HETATM   20  C10 UNL     1     -12.174  25.139 -33.031  1.00  0.00     0.036 C
HETATM   21  C11 UNL     1     -12.070  23.891 -32.211  1.00  0.00     0.039 C
HETATM   22  C12 UNL     1     -10.922  25.970 -32.632  1.00  0.00     0.039 C
BRANCH  20  23
HETATM   23  C13 UNL     1     -13.407  25.855 -32.639  1.00  0.00     0.101 C
BRANCH  23  24
HETATM   24  C14 UNL     1     -14.702  25.486 -33.222  1.00  0.00     0.355 C
HETATM   25  F1  UNL     1     -15.664  25.794 -32.238  1.00  0.00    -0.214 F
HETATM   26  F2  UNL     1     -15.064  26.208 -34.335  1.00  0.00    -0.214 F
ENDBRANCH  23  24
ENDBRANCH  20  23
ENDBRANCH   4  20
TORSDOF 8
ENDMDL