MODEL 5
REMARK VINA RESULT: -8.352270194      3.052      4.905
REMARK  7 active torsions:
REMARK  status: ('A' for Active; 'I' for Inactive)
REMARK    1  A    between atoms: C2_2  and  C3_3
REMARK    2  A    between atoms: C3_3  and  C4_4
REMARK       I    between atoms: C4_4  and  N1_6
REMARK    3  A    between atoms: N1_6  and  N2_8
REMARK    4  A    between atoms: C5_10  and  C6_11
REMARK    5  A    between atoms: C7_12  and  O2_13
REMARK    6  A    between atoms: N4_19  and  C9_20
REMARK    7  A    between atoms: C14_25  and  C15_26
ROOT
HETATM    1  C6  UNL     1     -10.684  25.734 -36.269  1.00  0.00     0.105 A
HETATM    2  C7  UNL     1      -9.786  25.243 -37.153  1.00  0.00     0.171 A
HETATM    3  N3  UNL     1     -10.101  23.966 -37.420  1.00  0.00    -0.312 N
ATOM      4  H3  UNL     1      -9.606  23.336 -38.051  1.00  0.00     0.170 HD
HETATM    5  C8  UNL     1     -11.187  23.681 -36.701  1.00  0.00     0.181 A
HETATM    6  S1  UNL     1     -11.907  22.223 -36.725  1.00  0.00    -0.040 SA
HETATM    7  N4  UNL     1     -11.579  24.741 -35.979  1.00  0.00    -0.314 N
ENDROOT
BRANCH   1   8
HETATM    8  C5  UNL     1     -10.726  27.072 -35.702  1.00  0.00     0.141 C
HETATM    9  N2  UNL     1      -9.917  27.991 -35.659  1.00  0.00    -0.307 N
ATOM     10  H2  UNL     1     -10.328  28.782 -35.164  1.00  0.00     0.186 HD
BRANCH   9  11
HETATM   11  N1  UNL     1      -8.690  28.299 -36.041  1.00  0.00    -0.270 N
HETATM   12  C4  UNL     1      -7.934  29.444 -35.591  1.00  0.00     0.235 C
HETATM   13  O1  UNL     1      -8.469  30.219 -34.773  1.00  0.00    -0.272 OA
ATOM     14  H1  UNL     1      -8.238  27.676 -36.710  1.00  0.00     0.190 HD
BRANCH  12  15
HETATM   15  C3  UNL     1      -6.565  29.709 -36.074  1.00  0.00     0.104 C
BRANCH  15  16
HETATM   16  C2  UNL     1      -6.546  30.146 -37.519  1.00  0.00     0.005 C
HETATM   17  C1  UNL     1      -5.858  29.118 -38.381  1.00  0.00     0.005 C
ENDBRANCH  15  16
ENDBRANCH  12  15
ENDBRANCH   9  11
ENDBRANCH   1   8
BRANCH   2  18
HETATM   18  O2  UNL     1      -8.669  25.853 -37.767  1.00  0.00    -0.344 OA
ATOM     19  H2  UNL     1      -7.877  26.218 -37.389  1.00  0.00     0.219 HD
ENDBRANCH   2  18
BRANCH   7  20
HETATM   20  C9  UNL     1     -12.714  24.776 -35.096  1.00  0.00     0.102 C
HETATM   21  C10 UNL     1     -13.843  25.622 -35.646  1.00  0.00     0.026 C
HETATM   22  C11 UNL     1     -14.459  26.520 -34.619  1.00  0.00     0.002 C
HETATM   23  C12 UNL     1     -14.640  25.941 -33.267  1.00  0.00     0.001 C
HETATM   24  C13 UNL     1     -13.670  24.854 -32.891  1.00  0.00     0.012 C
HETATM   25  C14 UNL     1     -12.378  25.162 -33.671  1.00  0.00     0.074 C
BRANCH  25  26
HETATM   26  C15 UNL     1     -11.264  24.310 -33.155  1.00  0.00     0.359 C
HETATM   27  F1  UNL     1     -11.020  24.600 -31.826  1.00  0.00    -0.214 F
HETATM   28  F2  UNL     1     -11.674  22.972 -33.215  1.00  0.00    -0.214 F
ENDBRANCH  25  26
ENDBRANCH   7  20
TORSDOF 7
ENDMDL