MODEL 2
REMARK VINA RESULT: -7.645657284      1.147      1.385
REMARK  6 active torsions:
REMARK  status: ('A' for Active; 'I' for Inactive)
REMARK    1  A    between atoms: O1_1  and  C1_3
REMARK    2  A    between atoms: C1_3  and  C2_4
REMARK    3  A    between atoms: C2_4  and  C3_7
REMARK    4  A    between atoms: C3_7  and  C4_8
REMARK    5  A    between atoms: C4_8  and  S1_9
REMARK    6  A    between atoms: S1_9  and  C5_10
ROOT
HETATM    1  C2  UNL     1     -11.782  23.748 -36.876  1.00  0.00     0.144 C
HETATM    2 CL1  UNL     1     -11.328  24.386 -38.471  1.00  0.00    -0.098 Cl
HETATM    3 CL2  UNL     1     -13.047  22.532 -37.103  1.00  0.00    -0.098 Cl
ENDROOT
BRANCH   1   4
HETATM    4  C1  UNL     1     -12.425  24.889 -36.058  1.00  0.00     0.094 C
HETATM    5  C7  UNL     1     -13.882  24.794 -36.233  1.00  0.00     0.041 C
HETATM    6  C8  UNL     1     -14.754  25.459 -35.253  1.00  0.00     0.003 C
HETATM    7  C9  UNL     1     -14.063  26.355 -34.272  1.00  0.00     0.001 C
HETATM    8  C10 UNL     1     -13.679  25.497 -33.090  1.00  0.00     0.016 C
HETATM    9  C11 UNL     1     -12.784  24.394 -33.614  1.00  0.00     0.061 C
HETATM   10  S2  UNL     1     -11.701  23.946 -32.205  1.00  0.00    -0.092 SA
HETATM   11  C12 UNL     1     -11.866  24.865 -34.705  1.00  0.00     0.057 C
BRANCH   4  12
HETATM   12  O1  UNL     1     -11.963  26.065 -36.695  1.00  0.00    -0.387 OA
ATOM     13  H1  UNL     1     -11.152  26.266 -36.243  1.00  0.00     0.210 HD
ENDBRANCH   4  12
ENDBRANCH   1   4
BRANCH   1  14
HETATM   14  C3  UNL     1     -10.573  23.214 -36.197  1.00  0.00     0.056 C
BRANCH  14  15
HETATM   15  C4  UNL     1     -10.558  21.719 -36.063  1.00  0.00     0.085 C
BRANCH  15  16
HETATM   16  S1  UNL     1     -10.138  21.154 -34.401  1.00  0.00    -0.092 SA
BRANCH  16  17
HETATM   17  C5  UNL     1      -8.384  20.855 -34.335  1.00  0.00     0.160 A
HETATM   18  N1  UNL     1      -7.517  21.102 -35.318  1.00  0.00    -0.331 N
HETATM   19  C6  UNL     1      -6.271  20.745 -34.899  1.00  0.00     0.199 A
ATOM     20  H1  UNL     1      -7.749  21.493 -36.231  1.00  0.00     0.168 HD
HETATM   21  N2  UNL     1      -6.393  20.284 -33.659  1.00  0.00    -0.294 N
HETATM   22  N3  UNL     1      -7.685  20.351 -33.312  1.00  0.00    -0.279 N
ATOM     23  H2  UNL     1      -5.634  19.938 -33.072  1.00  0.00     0.187 HD
ATOM     24  H3  UNL     1      -8.073  20.063 -32.414  1.00  0.00     0.189 HD
ENDBRANCH  16  17
ENDBRANCH  15  16
ENDBRANCH  14  15
ENDBRANCH   1  14
TORSDOF 6
ENDMDL