MODEL 3
REMARK VINA RESULT: -8.364946837      2.443      4.958
REMARK  6 active torsions:
REMARK  status: ('A' for Active; 'I' for Inactive)
REMARK    1  A    between atoms: C3_4  and  O2_5
REMARK    2  A    between atoms: O2_5  and  C4_6
REMARK    3  A    between atoms: C8_12  and  O3_13
REMARK    4  A    between atoms: C9_15  and  C10_16
REMARK    5  A    between atoms: N1_17  and  O4_19
REMARK    6  A    between atoms: O4_19  and  C11_20
ROOT
HETATM    1  C4  UNL     1     -12.656  22.562 -37.436  1.00  0.00     0.114 A
HETATM    2  C5  UNL     1     -13.796  23.338 -37.535  1.00  0.00     0.070 A
HETATM    3 CL1  UNL     1     -14.870  23.004 -38.874  1.00  0.00    -0.081 Cl
HETATM    4  C6  UNL     1     -14.082  24.336 -36.617  1.00  0.00     0.053 A
HETATM    5  C7  UNL     1     -13.192  24.549 -35.585  1.00  0.00     0.069 A
HETATM    6 CL2  UNL     1     -13.485  25.801 -34.377  1.00  0.00    -0.081 Cl
HETATM    7  C8  UNL     1     -12.050  23.788 -35.467  1.00  0.00     0.102 A
HETATM    8  C9  UNL     1     -11.780  22.789 -36.396  1.00  0.00     0.052 A
ENDROOT
BRANCH   1   9
HETATM    9  O2  UNL     1     -12.382  21.580 -38.344  1.00  0.00    -0.290 OA
BRANCH   9  10
HETATM   10  C3  UNL     1     -11.637  21.681 -39.475  1.00  0.00     0.168 A
HETATM   11  C2  UNL     1     -11.642  20.807 -40.533  1.00  0.00     0.133 A
HETATM   12  C1  UNL     1     -10.733  21.301 -41.463  1.00  0.00     0.263 A
HETATM   13  O1  UNL     1     -10.462  20.769 -42.568  1.00  0.00    -0.267 OA
HETATM   14  N3  UNL     1     -10.213  22.439 -40.954  1.00  0.00    -0.264 N
HETATM   15  N2  UNL     1     -10.762  22.652 -39.769  1.00  0.00    -0.277 N
ATOM     16  H3  UNL     1      -9.516  23.033 -41.405  1.00  0.00     0.190 HD
ATOM     17  H2  UNL     1     -10.549  23.444 -39.163  1.00  0.00     0.189 HD
ENDBRANCH   9  10
ENDBRANCH   1   9
BRANCH   8  18
HETATM   18  C10 UNL     1     -10.544  21.995 -36.235  1.00  0.00     0.131 C
HETATM   19  N1  UNL     1      -9.399  22.545 -36.188  1.00  0.00    -0.277 N
ATOM     20  H1  UNL     1      -9.307  23.558 -36.262  1.00  0.00     0.193 HD
BRANCH  19  21
HETATM   21  O4  UNL     1      -8.287  21.753 -36.037  1.00  0.00    -0.275 OA
BRANCH  21  22
HETATM   22  C11 UNL     1      -7.821  21.532 -34.727  1.00  0.00     0.152 C
HETATM   23  C12 UNL     1      -6.586  20.622 -34.684  1.00  0.00     0.034 C
HETATM   24  C13 UNL     1      -7.172  20.052 -33.396  1.00  0.00     0.005 C
HETATM   25  C14 UNL     1      -8.544  20.444 -33.959  1.00  0.00     0.034 C
ENDBRANCH  21  22
ENDBRANCH  19  21
ENDBRANCH   8  18
BRANCH   7  26
HETATM   26  O3  UNL     1     -11.140  23.982 -34.435  1.00  0.00    -0.358 OA
ATOM     27  H3  UNL     1     -10.236  24.221 -34.601  1.00  0.00     0.217 HD
ENDBRANCH   7  26
TORSDOF 6
ENDMDL