MODEL 4
REMARK VINA RESULT: -7.303398887      2.993      3.781
REMARK  6 active torsions:
REMARK  status: ('A' for Active; 'I' for Inactive)
REMARK    1  A    between atoms: S1_2  and  C1_4
REMARK    2  A    between atoms: S1_2  and  N1_9
REMARK    3  A    between atoms: N1_9  and  C6_10
REMARK    4  A    between atoms: N1_9  and  C11_23
REMARK    5  A    between atoms: C6_10  and  C7_11
REMARK    6  A    between atoms: C8_12  and  O3_13
ROOT
HETATM    1  C6  UNL     1     -11.418  24.253 -37.699  1.00  0.00     0.159 C
ENDROOT
BRANCH   1   2
HETATM    2  N1  UNL     1     -12.674  24.902 -37.566  1.00  0.00    -0.147 NA
BRANCH   2   3
HETATM    3  S1  UNL     1     -13.206  24.685 -35.929  1.00  0.00     0.220 S
HETATM    4  O1  UNL     1     -12.263  23.735 -35.241  1.00  0.00    -0.211 OA
HETATM    5  O2  UNL     1     -14.547  24.019 -35.912  1.00  0.00    -0.211 OA
BRANCH   3   6
HETATM    6  C1  UNL     1     -13.354  26.189 -35.020  1.00  0.00     0.124 C
HETATM    7  C2  UNL     1     -12.578  26.283 -33.775  1.00  0.00     0.021 C
HETATM    8  C3  UNL     1     -13.442  25.846 -32.611  1.00  0.00     0.001 C
HETATM    9  C4  UNL     1     -14.762  25.419 -33.212  1.00  0.00     0.001 C
HETATM   10  C5  UNL     1     -14.800  26.206 -34.482  1.00  0.00     0.021 C
ENDBRANCH   3   6
ENDBRANCH   2   3
BRANCH   2  11
HETATM   11  C11 UNL     1     -13.609  24.355 -38.523  1.00  0.00     0.446 C
HETATM   12  F1  UNL     1     -13.601  25.073 -39.733  1.00  0.00    -0.196 F
HETATM   13  F2  UNL     1     -13.356  23.057 -38.886  1.00  0.00    -0.196 F
ENDBRANCH   2  11
ENDBRANCH   1   2
BRANCH   1  14
HETATM   14  C7  UNL     1     -10.277  25.000 -38.244  1.00  0.00     0.045 A
HETATM   15  C8  UNL     1      -9.586  25.822 -37.336  1.00  0.00     0.152 A
HETATM   16  N2  UNL     1      -8.516  26.503 -37.753  1.00  0.00    -0.313 N
HETATM   17  C9  UNL     1      -8.080  26.426 -39.018  1.00  0.00     0.178 A
ATOM     18  H2  UNL     1      -8.018  27.098 -37.091  1.00  0.00     0.170 HD
HETATM   19  S2  UNL     1      -6.759  27.298 -39.446  1.00  0.00    -0.040 SA
HETATM   20  N3  UNL     1      -8.738  25.649 -39.868  1.00  0.00    -0.323 N
HETATM   21  C10 UNL     1      -9.838  24.922 -39.511  1.00  0.00     0.114 A
ATOM     22  H3  UNL     1      -8.407  25.591 -40.831  1.00  0.00     0.169 HD
HETATM   23  S3  UNL     1     -10.479  23.984 -40.680  1.00  0.00    -0.060 SA
BRANCH  15  24
HETATM   24  O3  UNL     1     -10.024  25.919 -36.003  1.00  0.00    -0.346 OA
ATOM     25  H3  UNL     1      -9.506  26.399 -35.367  1.00  0.00     0.219 HD
ENDBRANCH  15  24
ENDBRANCH   1  14
TORSDOF 6
ENDMDL