MODEL 2
REMARK VINA RESULT: -7.515929665      4.259      4.885
REMARK  8 active torsions:
REMARK  status: ('A' for Active; 'I' for Inactive)
REMARK    1  A    between atoms: N1_1  and  C1_4
REMARK    2  A    between atoms: C1_4  and  C2_5
REMARK    3  A    between atoms: C1_4  and  N2_10
REMARK    4  A    between atoms: C2_5  and  C3_6
REMARK    5  A    between atoms: C3_6  and  C4_7
REMARK    6  A    between atoms: C4_7  and  C5_8
REMARK    7  A    between atoms: N2_10  and  C6_12
REMARK    8  A    between atoms: C7_17  and  C8_18
ROOT
HETATM    1  C6  UNL     1     -10.473  27.098 -33.016  1.00  0.00     0.166 A
HETATM    2  N3  UNL     1      -9.200  27.291 -32.664  1.00  0.00    -0.279 N
ATOM      3  H3  UNL     1      -8.890  27.094 -31.713  1.00  0.00     0.189 HD
HETATM    4  N4  UNL     1      -8.384  27.723 -33.530  1.00  0.00    -0.291 N
ATOM      5  H4  UNL     1      -7.409  27.873 -33.268  1.00  0.00     0.187 HD
HETATM    6  C7  UNL     1      -8.769  27.981 -34.760  1.00  0.00     0.105 A
HETATM    7  S2  UNL     1     -10.447  27.567 -34.659  1.00  0.00    -0.033 SA
ENDROOT
BRANCH   1   8
HETATM    8  N2  UNL     1     -11.473  26.663 -32.284  1.00  0.00    -0.325 N
ATOM      9  H2  UNL     1     -12.029  27.334 -31.755  1.00  0.00     0.169 HD
BRANCH   8  10
HETATM   10  C1  UNL     1     -11.796  25.295 -32.210  1.00  0.00     0.076 C
BRANCH  10  11
HETATM   11  N1  UNL     1     -11.087  24.514 -31.501  1.00  0.00    -0.389 N
ATOM     12  H12 UNL     1     -11.444  23.593 -31.247  1.00  0.00     0.157 HD
ATOM     13  H11 UNL     1     -10.161  24.803 -31.185  1.00  0.00     0.157 HD
ENDBRANCH  10  11
BRANCH  10  14
HETATM   14  C2  UNL     1     -12.955  24.777 -32.955  1.00  0.00     0.076 C
BRANCH  14  15
HETATM   15  C3  UNL     1     -14.085  25.770 -32.796  1.00  0.00     0.008 C
BRANCH  15  16
HETATM   16  C4  UNL     1     -14.720  26.119 -34.122  1.00  0.00     0.011 C
BRANCH  16  17
HETATM   17  C5  UNL     1     -13.903  25.448 -35.205  1.00  0.00     0.086 C
HETATM   18  S1  UNL     1     -15.083  24.833 -36.457  1.00  0.00    -0.098 SA
ENDBRANCH  16  17
ENDBRANCH  15  16
ENDBRANCH  14  15
ENDBRANCH  10  14
ENDBRANCH   8  10
ENDBRANCH   1   8
BRANCH   6  19
HETATM   19  C8  UNL     1      -8.026  28.477 -35.915  1.00  0.00     0.038 A
HETATM   20  C9  UNL     1      -7.278  29.595 -35.826  1.00  0.00     0.103 A
HETATM   21  N5  UNL     1      -6.573  30.075 -36.898  1.00  0.00    -0.373 N
HETATM   22  C10 UNL     1      -6.626  29.419 -38.075  1.00  0.00     0.113 A
ATOM     23  H5  UNL     1      -6.014  30.923 -36.807  1.00  0.00     0.164 HD
HETATM   24  C11 UNL     1      -7.377  28.266 -38.227  1.00  0.00     0.072 A
HETATM   25 CL1  UNL     1      -7.487  27.374 -39.709  1.00  0.00    -0.081 Cl
HETATM   26  C12 UNL     1      -8.078  27.808 -37.115  1.00  0.00     0.071 A
HETATM   27 CL2  UNL     1      -9.032  26.354 -37.287  1.00  0.00    -0.081 Cl
ENDBRANCH   6  19
TORSDOF 8
ENDMDL