MODEL 4
REMARK VINA RESULT: -7.317422570      0.770      1.041
REMARK  7 active torsions:
REMARK  status: ('A' for Active; 'I' for Inactive)
REMARK    1  A    between atoms: C2_2  and  O1_3
REMARK    2  A    between atoms: O1_3  and  C3_4
REMARK    3  A    between atoms: C3_4  and  C4_6
REMARK    4  A    between atoms: C5_7  and  N1_8
REMARK    5  A    between atoms: N1_8  and  C6_10
REMARK    6  A    between atoms: C9_13  and  O3_14
REMARK    7  A    between atoms: C13_19  and  N2_20
ROOT
HETATM    1  C4  UNL     1      -9.310  26.527 -36.895  1.00  0.00     0.089 A
HETATM    2  C5  UNL     1      -9.724  26.863 -35.639  1.00  0.00     0.048 A
HETATM    3  C12 UNL     1      -9.198  28.014 -35.013  1.00  0.00     0.061 A
HETATM    4  C13 UNL     1      -8.282  28.798 -35.646  1.00  0.00     0.053 A
HETATM    5  C15 UNL     1      -7.842  28.480 -36.925  1.00  0.00     0.083 A
HETATM    6 CL1  UNL     1      -6.663  29.510 -37.706  1.00  0.00    -0.080 Cl
HETATM    7  C16 UNL     1      -8.361  27.357 -37.522  1.00  0.00     0.076 A
HETATM    8 CL2  UNL     1      -7.827  26.933 -39.126  1.00  0.00    -0.081 Cl
ENDROOT
BRANCH   2   9
HETATM    9  N1  UNL     1     -10.630  26.074 -34.894  1.00  0.00    -0.384 N
ATOM     10  H1  UNL     1     -10.515  25.061 -34.899  1.00  0.00     0.160 HD
BRANCH   9  11
HETATM   11  C6  UNL     1     -11.731  26.654 -34.115  1.00  0.00     0.082 C
HETATM   12  C7  UNL     1     -11.827  25.970 -32.760  1.00  0.00     0.027 C
HETATM   13  C8  UNL     1     -12.557  24.666 -32.802  1.00  0.00     0.034 C
HETATM   14  C9  UNL     1     -14.007  25.036 -33.156  1.00  0.00     0.118 C
HETATM   15  C10 UNL     1     -13.963  25.531 -34.560  1.00  0.00     0.034 C
HETATM   16  C11 UNL     1     -13.034  26.650 -34.840  1.00  0.00     0.027 C
BRANCH  14  17
HETATM   17  O3  UNL     1     -14.465  26.035 -32.285  1.00  0.00    -0.396 OA
ATOM     18  H3  UNL     1     -14.075  26.868 -32.523  1.00  0.00     0.210 HD
ENDBRANCH  14  17
ENDBRANCH   9  11
ENDBRANCH   2   9
BRANCH   1  19
HETATM   19  C3  UNL     1      -9.804  25.394 -37.635  1.00  0.00     0.297 C
HETATM   20  O2  UNL     1      -9.365  24.238 -37.575  1.00  0.00    -0.259 OA
BRANCH  19  21
HETATM   21  O1  UNL     1     -10.880  25.517 -38.530  1.00  0.00    -0.318 OA
BRANCH  21  22
HETATM   22  C2  UNL     1     -11.078  24.645 -39.619  1.00  0.00     0.174 C
HETATM   23  C1  UNL     1     -10.496  25.130 -40.902  1.00  0.00     0.034 C
ENDBRANCH  21  22
ENDBRANCH  19  21
ENDBRANCH   1  19
BRANCH   4  24
HETATM   24  N2  UNL     1      -7.743  29.963 -35.027  1.00  0.00    -0.393 N
HETATM   25  C14 UNL     1      -8.587  30.705 -34.125  1.00  0.00     0.146 C
ATOM     26  H2  UNL     1      -6.787  30.262 -35.218  1.00  0.00     0.159 HD
ENDBRANCH   4  24
TORSDOF 7
ENDMDL