MODEL 2
REMARK VINA RESULT: -8.195273923      2.437      3.616
REMARK  5 active torsions:
REMARK  status: ('A' for Active; 'I' for Inactive)
REMARK    1  A    between atoms: C3_5  and  S1_6
REMARK    2  A    between atoms: S1_6  and  C4_7
REMARK    3  A    between atoms: C6_13  and  C7_14
REMARK    4  A    between atoms: C7_14  and  N3_15
REMARK    5  A    between atoms: C7_14  and  C9_22
REMARK       I    between atoms: N3_15  and  C8_17
ROOT
HETATM    1  C4  UNL     1      -7.997  27.166 -38.858  1.00  0.00     0.386 C
HETATM    2  F1  UNL     1      -7.996  26.924 -37.516  1.00  0.00    -0.177 F
HETATM    3  F2  UNL     1      -8.463  28.319 -39.310  1.00  0.00    -0.177 F
HETATM    4  C5  UNL     1      -6.511  27.179 -39.169  1.00  0.00     0.150 C
HETATM    5  N2  UNL     1      -5.359  27.224 -39.419  1.00  0.00    -0.190 NA
ENDROOT
BRANCH   1   6
HETATM    6  S1  UNL     1      -8.722  25.744 -39.736  1.00  0.00    -0.012 SA
BRANCH   6   7
HETATM    7  C3  UNL     1      -9.922  24.959 -38.656  1.00  0.00     0.119 A
HETATM    8  N1  UNL     1     -10.484  23.769 -38.787  1.00  0.00    -0.348 N
HETATM    9  C2  UNL     1     -11.296  23.321 -37.896  1.00  0.00     0.021 A
ATOM     10  H1  UNL     1     -10.271  23.199 -39.605  1.00  0.00     0.167 HD
HETATM   11  C1  UNL     1     -11.935  21.936 -37.963  1.00  0.00     0.069 C
HETATM   12  C6  UNL     1     -11.579  24.093 -36.799  1.00  0.00     0.030 A
HETATM   13  S2  UNL     1     -10.597  25.479 -37.146  1.00  0.00    -0.066 SA
BRANCH  12  14
HETATM   14  C7  UNL     1     -12.555  24.040 -35.740  1.00  0.00     0.130 C
BRANCH  14  15
HETATM   15  N3  UNL     1     -13.658  24.940 -36.244  1.00  0.00    -0.355 N
HETATM   16  C8  UNL     1     -14.582  24.585 -37.215  1.00  0.00     0.182 C
HETATM   17  N4  UNL     1     -15.762  24.157 -36.857  1.00  0.00    -0.374 N
HETATM   18  N5  UNL     1     -14.379  24.634 -38.635  1.00  0.00    -0.064 NA
ATOM     19  H42 UNL     1     -15.907  24.122 -35.847  1.00  0.00     0.158 HD
ATOM     20  H41 UNL     1     -16.442  23.895 -37.571  1.00  0.00     0.158 HD
ATOM     21  H3  UNL     1     -13.728  25.875 -35.843  1.00  0.00     0.162 HD
ENDBRANCH  14  15
BRANCH  14  22
HETATM   22  C9  UNL     1     -12.226  24.649 -34.440  1.00  0.00     0.013 C
HETATM   23  C10 UNL     1     -11.555  23.558 -33.596  1.00  0.00     0.007 C
HETATM   24  C11 UNL     1     -12.214  23.526 -32.213  1.00  0.00     0.000 C
HETATM   25  C12 UNL     1     -12.003  24.853 -31.522  1.00  0.00     0.000 C
HETATM   26  C13 UNL     1     -12.390  25.994 -32.450  1.00  0.00     0.000 C
HETATM   27  C14 UNL     1     -13.223  25.379 -33.613  1.00  0.00     0.007 C
ENDBRANCH  14  22
ENDBRANCH  12  14
ENDBRANCH   6   7
ENDBRANCH   1   6
TORSDOF 5
ENDMDL