MODEL 5
REMARK VINA RESULT: -7.159391009      2.916      4.308
REMARK  8 active torsions:
REMARK  status: ('A' for Active; 'I' for Inactive)
REMARK    1  A    between atoms: C2_2  and  N1_3
REMARK    2  A    between atoms: N1_3  and  C3_5
REMARK    3  A    between atoms: C3_5  and  C4_6
REMARK    4  A    between atoms: C4_6  and  O2_8
REMARK    5  A    between atoms: O2_8  and  C5_9
REMARK    6  A    between atoms: C9_13  and  C11_15
REMARK    7  A    between atoms: C13_17  and  O3_18
REMARK    8  A    between atoms: C16_24  and  O4_25
ROOT
HETATM    1  C3  UNL     1     -12.554  24.186 -36.787  1.00  0.00     0.111 C
HETATM    2  C9  UNL     1     -11.847  23.629 -37.884  1.00  0.00    -0.016 C
HETATM    3  C10 UNL     1     -11.418  22.163 -37.782  1.00  0.00     0.052 C
ENDROOT
BRANCH   2   4
HETATM    4  C11 UNL     1     -11.103  24.326 -38.941  1.00  0.00     0.010 A
HETATM    5  C12 UNL     1     -11.670  24.599 -40.208  1.00  0.00     0.053 A
HETATM    6  C13 UNL     1     -11.058  25.341 -41.186  1.00  0.00     0.090 A
HETATM    7  C14 UNL     1      -9.813  25.878 -40.979  1.00  0.00     0.091 A
HETATM    8 CL1  UNL     1      -8.980  26.829 -42.199  1.00  0.00    -0.079 Cl
HETATM    9  C15 UNL     1      -9.224  25.634 -39.764  1.00  0.00     0.092 A
HETATM   10 CL2  UNL     1      -7.621  26.316 -39.494  1.00  0.00    -0.079 Cl
HETATM   11  C16 UNL     1      -9.841  24.885 -38.775  1.00  0.00     0.100 A
BRANCH   6  12
HETATM   12  O3  UNL     1     -11.684  25.565 -42.403  1.00  0.00    -0.359 OA
ATOM     13  H3  UNL     1     -11.176  25.662 -43.200  1.00  0.00     0.217 HD
ENDBRANCH   6  12
BRANCH  11  14
HETATM   14  O4  UNL     1      -9.139  24.703 -37.624  1.00  0.00    -0.358 OA
ATOM     15  H4  UNL     1      -8.778  25.442 -37.149  1.00  0.00     0.217 HD
ENDBRANCH  11  14
ENDBRANCH   2   4
BRANCH   1  16
HETATM   16  N1  UNL     1     -13.838  23.821 -36.620  1.00  0.00    -0.385 N
ATOM     17  H1  UNL     1     -13.963  22.893 -36.213  1.00  0.00     0.159 HD
BRANCH  16  18
HETATM   18  C2  UNL     1     -15.012  24.482 -36.902  1.00  0.00     0.115 C
HETATM   19  C1  UNL     1     -16.123  23.411 -37.072  1.00  0.00     0.026 C
ENDBRANCH  16  18
ENDBRANCH   1  16
BRANCH   1  20
HETATM   20  C4  UNL     1     -12.167  25.054 -35.695  1.00  0.00     0.311 C
HETATM   21  O1  UNL     1     -12.155  26.294 -35.655  1.00  0.00    -0.258 OA
BRANCH  20  22
HETATM   22  O2  UNL     1     -11.722  24.491 -34.462  1.00  0.00    -0.306 OA
BRANCH  22  23
HETATM   23  C5  UNL     1     -12.336  24.960 -33.272  1.00  0.00     0.060 C
HETATM   24  C6  UNL     1     -11.593  26.087 -32.634  1.00  0.00     0.046 C
HETATM   25  C7  UNL     1     -13.787  25.231 -33.413  1.00  0.00     0.046 C
HETATM   26  C8  UNL     1     -12.180  23.763 -32.291  1.00  0.00     0.046 C
ENDBRANCH  22  23
ENDBRANCH  20  22
ENDBRANCH   1  20
TORSDOF 8
ENDMDL