MODEL 2
REMARK VINA RESULT: -9.684826905      2.047      3.878
REMARK  10 active torsions:
REMARK  status: ('A' for Active; 'I' for Inactive)
REMARK       I    between atoms: C1_4  and  N3_6
REMARK    1  A    between atoms: N3_6  and  C2_8
REMARK    2  A    between atoms: C5_11  and  C6_12
REMARK    3  A    between atoms: C6_12  and  C7_13
REMARK    4  A    between atoms: C7_13  and  N4_14
REMARK    5  A    between atoms: C7_13  and  N8_25
REMARK       I    between atoms: N8_25  and  C12_27
REMARK    6  A    between atoms: C12_27  and  C13_29
REMARK    7  A    between atoms: C13_29  and  S1_30
REMARK    8  A    between atoms: S1_30  and  C14_31
REMARK    9  A    between atoms: N11_36  and  C15_37
REMARK   10  A    between atoms: C20_46  and  O3_47
ROOT
HETATM    1  C7  UNL     1     224.257 -65.023  -4.486  1.00  0.00     0.189 C
ENDROOT
BRANCH   1   2
HETATM    2  C6  UNL     1     224.865 -65.328  -5.848  1.00  0.00     0.085 C
BRANCH   2   3
HETATM    3  C5  UNL     1     224.474 -66.672  -6.335  1.00  0.00    -0.052 A
HETATM    4  C4  UNL     1     223.447 -67.422  -5.808  1.00  0.00     0.010 A
HETATM    5  C3  UNL     1     223.082 -68.673  -6.273  1.00  0.00     0.033 A
HETATM    6  C2  UNL     1     223.771 -69.231  -7.330  1.00  0.00     0.068 A
HETATM    7  C20 UNL     1     224.813 -68.480  -7.871  1.00  0.00     0.092 A
HETATM    8  C19 UNL     1     225.166 -67.238  -7.399  1.00  0.00     0.046 A
BRANCH   6   9
HETATM    9  N3  UNL     1     223.434 -70.501  -7.848  1.00  0.00    -0.329 N
HETATM   10  C1  UNL     1     222.676 -70.608  -9.044  1.00  0.00     0.186 C
HETATM   11  N1  UNL     1     223.188 -70.321 -10.210  1.00  0.00    -0.373 N
HETATM   12  N2  UNL     1     221.329 -71.030  -9.037  1.00  0.00    -0.064 NA
ATOM     13  H12 UNL     1     222.644 -70.399 -11.069  1.00  0.00     0.158 HD
ATOM     14  H11 UNL     1     224.162 -70.016 -10.215  1.00  0.00     0.158 HD
ATOM     15  H3  UNL     1     223.737 -71.345  -7.361  1.00  0.00     0.168 HD
ENDBRANCH   6   9
BRANCH   7  16
HETATM   16  O3  UNL     1     225.500 -69.058  -8.938  1.00  0.00    -0.358 OA
ATOM     17  H3  UNL     1     225.410 -69.999  -9.034  1.00  0.00     0.217 HD
ENDBRANCH   7  16
ENDBRANCH   2   3
ENDBRANCH   1   2
BRANCH   1  18
HETATM   18  N4  UNL     1     222.875 -64.903  -4.463  1.00  0.00    -0.357 N
HETATM   19  C8  UNL     1     221.927 -65.011  -3.665  1.00  0.00     0.104 C
HETATM   20  N5  UNL     1     220.554 -64.786  -4.081  1.00  0.00    -0.314 N
HETATM   21  C11 UNL     1     221.906 -65.360  -2.243  1.00  0.00     0.192 C
HETATM   22  C9  UNL     1     219.690 -64.960  -2.985  1.00  0.00     0.245 C
ATOM     23  H5  UNL     1     220.260 -64.539  -5.026  1.00  0.00     0.170 HD
HETATM   24  O1  UNL     1     218.424 -65.036  -3.007  1.00  0.00    -0.271 OA
HETATM   25  C10 UNL     1     220.495 -65.041  -1.767  1.00  0.00     0.215 C
HETATM   26  N6  UNL     1     221.063 -63.811  -1.320  1.00  0.00    -0.131 NA
HETATM   27  N7  UNL     1     222.326 -64.410  -1.274  1.00  0.00    -0.133 NA
ATOM     28  H4  UNL     1     222.529 -64.648  -5.387  1.00  0.00     0.163 HD
ENDBRANCH   1  18
BRANCH   1  29
HETATM   29  N8  UNL     1     224.898 -63.864  -3.898  1.00  0.00    -0.339 N
HETATM   30  C12 UNL     1     225.675 -63.923  -2.694  1.00  0.00     0.228 C
HETATM   31  O2  UNL     1     225.784 -65.048  -2.161  1.00  0.00    -0.273 OA
ATOM     32  H8  UNL     1     224.792 -62.963  -4.363  1.00  0.00     0.164 HD
BRANCH  30  33
HETATM   33  C13 UNL     1     226.307 -62.708  -2.130  1.00  0.00     0.185 C
BRANCH  33  34
HETATM   34  S1  UNL     1     225.314 -61.215  -2.308  1.00  0.00    -0.082 SA
BRANCH  34  35
HETATM   35  C14 UNL     1     223.927 -61.301  -1.184  1.00  0.00     0.176 A
HETATM   36  N9  UNL     1     222.647 -60.987  -1.447  1.00  0.00    -0.263 N
HETATM   37  N10 UNL     1     221.920 -61.199  -0.389  1.00  0.00    -0.222 N
ATOM     38  H9  UNL     1     222.300 -60.635  -2.338  1.00  0.00     0.190 HD
HETATM   39  N11 UNL     1     222.715 -61.658   0.587  1.00  0.00    -0.194 N
ATOM     40  H10 UNL     1     220.914 -61.044  -0.316  1.00  0.00     0.210 HD
HETATM   41  N13 UNL     1     223.937 -61.720   0.105  1.00  0.00    -0.259 N
ATOM     42  H13 UNL     1     224.761 -62.032   0.620  1.00  0.00     0.191 HD
BRANCH  39  43
HETATM   43  C15 UNL     1     222.169 -61.999   1.883  1.00  0.00     0.225 C
HETATM   44  C16 UNL     1     223.211 -62.101   2.970  1.00  0.00     0.055 C
HETATM   45  C17 UNL     1     222.535 -63.106   3.917  1.00  0.00     0.048 C
HETATM   46  C18 UNL     1     221.793 -63.948   2.937  1.00  0.00     0.058 C
HETATM   47  N12 UNL     1     221.613 -63.322   1.856  1.00  0.00    -0.379 N
ATOM     48  H12 UNL     1     221.126 -63.715   1.050  1.00  0.00     0.160 HD
ENDBRANCH  39  43
ENDBRANCH  34  35
ENDBRANCH  33  34
ENDBRANCH  30  33
ENDBRANCH   1  29
TORSDOF 10
ENDMDL