MODEL 4
REMARK VINA RESULT: -9.072240225      2.087      3.834
REMARK  13 active torsions:
REMARK  status: ('A' for Active; 'I' for Inactive)
REMARK    1  A    between atoms: C2_2  and  O1_3
REMARK    2  A    between atoms: C2_2  and  C3_5
REMARK    3  A    between atoms: C2_2  and  C4_8
REMARK    4  A    between atoms: C3_5  and  O2_6
REMARK    5  A    between atoms: C4_8  and  O3_9
REMARK    6  A    between atoms: C4_8  and  C5_11
REMARK    7  A    between atoms: C5_11  and  O4_12
REMARK    8  A    between atoms: C5_11  and  C6_14
REMARK    9  A    between atoms: C6_14  and  N1_15
REMARK   10  A    between atoms: C8_17  and  C9_18
REMARK   11  A    between atoms: C10_21  and  C11_22
REMARK   12  A    between atoms: C12_25  and  C13_26
REMARK   13  A    between atoms: C20_44  and  N10_45
ROOT
HETATM    1  C9  UNL     1     223.278 -64.117  -2.810  1.00  0.00     0.089 A
HETATM    2  N2  UNL     1     222.974 -65.283  -3.442  1.00  0.00    -0.349 N
ATOM      3  H2  UNL     1     222.331 -65.920  -2.972  1.00  0.00     0.166 HD
HETATM    4  C10 UNL     1     223.453 -65.655  -4.626  1.00  0.00     0.078 A
HETATM    5  C18 UNL     1     224.328 -64.782  -5.259  1.00  0.00     0.036 A
HETATM    6  C19 UNL     1     224.689 -63.589  -4.703  1.00  0.00     0.034 A
HETATM    7  C20 UNL     1     224.131 -63.266  -3.439  1.00  0.00     0.063 A
ENDROOT
BRANCH   1   8
HETATM    8  C8  UNL     1     222.754 -63.902  -1.446  1.00  0.00     0.095 A
HETATM    9  C7  UNL     1     223.576 -63.892  -0.308  1.00  0.00     0.145 A
HETATM   10  N1  UNL     1     222.785 -63.674   0.753  1.00  0.00    -0.284 N
HETATM   11  N14 UNL     1     221.540 -63.552   0.323  1.00  0.00    -0.240 N
HETATM   12  N13 UNL     1     221.529 -63.689  -0.989  1.00  0.00    -0.283 N
ATOM     13  H14 UNL     1     220.723 -63.381   0.909  1.00  0.00     0.208 HD
ATOM     14  H13 UNL     1     220.693 -63.638  -1.571  1.00  0.00     0.188 HD
BRANCH  10  15
HETATM   15  C6  UNL     1     223.178 -63.582   2.139  1.00  0.00     0.184 C
BRANCH  15  16
HETATM   16  C5  UNL     1     223.384 -62.162   2.608  1.00  0.00     0.169 C
BRANCH  16  17
HETATM   17  C4  UNL     1     222.439 -61.233   1.901  1.00  0.00     0.184 C
BRANCH  17  18
HETATM   18  C2  UNL     1     223.193 -60.204   1.080  1.00  0.00     0.103 C
HETATM   19  C1  UNL     1     223.162 -58.895   1.873  1.00  0.00     0.051 C
BRANCH  18  20
HETATM   20  O1  UNL     1     224.481 -60.591   0.792  1.00  0.00    -0.385 OA
ATOM     21  H1  UNL     1     224.901 -60.997   1.542  1.00  0.00     0.210 HD
ENDBRANCH  18  20
BRANCH  18  22
HETATM   22  C3  UNL     1     222.440 -59.921  -0.209  1.00  0.00     0.204 C
BRANCH  22  23
HETATM   23  O2  UNL     1     221.261 -60.654  -0.220  1.00  0.00    -0.398 OA
ATOM     24  H2  UNL     1     220.842 -60.561  -1.068  1.00  0.00     0.209 HD
ENDBRANCH  22  23
ENDBRANCH  18  22
ENDBRANCH  17  18
BRANCH  17  25
HETATM   25  O3  UNL     1     221.664 -60.547   2.828  1.00  0.00    -0.390 OA
ATOM     26  H3  UNL     1     222.229 -60.301   3.551  1.00  0.00     0.210 HD
ENDBRANCH  17  25
ENDBRANCH  16  17
BRANCH  16  27
HETATM   27  O4  UNL     1     223.266 -62.118   3.977  1.00  0.00    -0.391 OA
ATOM     28  H4  UNL     1     223.550 -62.918   4.403  1.00  0.00     0.210 HD
ENDBRANCH  16  27
ENDBRANCH  15  16
ENDBRANCH  10  15
ENDBRANCH   1   8
BRANCH   7  29
HETATM   29  N10 UNL     1     224.380 -61.952  -2.986  1.00  0.00    -0.331 N
HETATM   30  C21 UNL     1     225.421 -61.542  -2.378  1.00  0.00     0.201 C
HETATM   31  N11 UNL     1     226.515 -62.373  -2.047  1.00  0.00    -0.066 NA
HETATM   32  N12 UNL     1     225.435 -60.135  -2.026  1.00  0.00    -0.066 NA
ATOM     33  H10 UNL     1     223.652 -61.260  -3.164  1.00  0.00     0.168 HD
ENDBRANCH   7  29
BRANCH   4  34
HETATM   34  C11 UNL     1     223.116 -66.909  -5.290  1.00  0.00     0.141 A
HETATM   35  N3  UNL     1     223.899 -67.524  -6.225  1.00  0.00    -0.334 N
HETATM   36  C12 UNL     1     223.320 -68.649  -6.641  1.00  0.00     0.126 A
ATOM     37  H3  UNL     1     224.798 -67.174  -6.555  1.00  0.00     0.168 HD
HETATM   38  C14 UNL     1     222.113 -68.783  -5.959  1.00  0.00     0.144 A
HETATM   39  N8  UNL     1     221.144 -69.713  -5.987  1.00  0.00    -0.350 N
HETATM   40  N9  UNL     1     222.036 -67.706  -5.155  1.00  0.00    -0.290 N
HETATM   41  C15 UNL     1     220.043 -69.642  -5.230  1.00  0.00     0.091 A
ATOM     42  H8  UNL     1     221.253 -70.510  -6.615  1.00  0.00     0.166 HD
HETATM   43  C16 UNL     1     219.915 -68.564  -4.392  1.00  0.00     0.035 A
HETATM   44  C17 UNL     1     220.937 -67.620  -4.388  1.00  0.00     0.102 A
BRANCH  36  45
HETATM   45  C13 UNL     1     223.835 -69.588  -7.630  1.00  0.00     0.168 A
HETATM   46  N4  UNL     1     223.696 -70.927  -7.652  1.00  0.00    -0.267 N
HETATM   47  N5  UNL     1     224.298 -71.428  -8.697  1.00  0.00    -0.227 N
ATOM     48  H4  UNL     1     223.192 -71.472  -6.952  1.00  0.00     0.190 HD
HETATM   49  N6  UNL     1     224.831 -70.423  -9.360  1.00  0.00    -0.227 N
ATOM     50  H5  UNL     1     224.345 -72.414  -8.953  1.00  0.00     0.210 HD
HETATM   51  N7  UNL     1     224.560 -69.291  -8.725  1.00  0.00    -0.267 N
ATOM     52  H6  UNL     1     225.368 -70.502 -10.225  1.00  0.00     0.210 HD
ATOM     53  H7  UNL     1     224.849 -68.358  -9.015  1.00  0.00     0.190 HD
ENDBRANCH  36  45
ENDBRANCH   4  34
TORSDOF 13
ENDMDL