MODEL 2
REMARK VINA RESULT: -9.183761683      1.735      2.506
REMARK  13 active torsions:
REMARK  status: ('A' for Active; 'I' for Inactive)
REMARK    1  A    between atoms: N1_1  and  C1_4
REMARK    2  A    between atoms: C2_9  and  C3_10
REMARK    3  A    between atoms: N4_12  and  C5_13
REMARK    4  A    between atoms: C5_13  and  C6_14
REMARK    5  A    between atoms: C6_14  and  N5_15
REMARK    6  A    between atoms: C8_17  and  C9_18
REMARK    7  A    between atoms: C12_21  and  C13_22
REMARK    8  A    between atoms: C13_22  and  N6_23
REMARK    9  A    between atoms: C17_30  and  C18_31
REMARK   10  A    between atoms: C18_31  and  O1_32
REMARK   11  A    between atoms: C18_31  and  C19_34
REMARK       I    between atoms: C19_34  and  N7_36
REMARK   12  A    between atoms: N7_36  and  N8_38
REMARK   13  A    between atoms: C20_43  and  N10_44
ROOT
HETATM    1  N5  UNL     1     221.351 -67.571  -2.510  1.00  0.00    -0.340 N
HETATM    2  C7  UNL     1     221.816 -68.338  -3.489  1.00  0.00     0.106 A
HETATM    3  C8  UNL     1     222.016 -67.571  -4.677  1.00  0.00     0.006 A
HETATM    4  C16 UNL     1     221.643 -66.299  -4.328  1.00  0.00     0.051 A
HETATM    5  C17 UNL     1     221.602 -65.133  -5.064  1.00  0.00     0.102 A
HETATM    6  N9  UNL     1     221.119 -64.059  -4.348  1.00  0.00    -0.188 N
ATOM      7  H9  UNL     1     221.056 -63.160  -4.825  1.00  0.00     0.184 HD
HETATM    8  C20 UNL     1     220.730 -64.112  -3.072  1.00  0.00     0.678 A
HETATM    9  N11 UNL     1     220.790 -65.244  -2.399  1.00  0.00    -0.176 N
ATOM     10  H11 UNL     1     220.495 -65.280  -1.423  1.00  0.00     0.186 HD
HETATM   11  C21 UNL     1     221.244 -66.350  -3.009  1.00  0.00     0.136 A
ENDROOT
BRANCH   1  12
HETATM   12  C6  UNL     1     221.042 -68.046  -1.175  1.00  0.00     0.152 C
BRANCH  12  13
HETATM   13  C5  UNL     1     220.542 -69.470  -1.268  1.00  0.00     0.170 C
BRANCH  13  14
HETATM   14  N4  UNL     1     219.126 -69.396  -1.658  1.00  0.00    -0.285 N
HETATM   15  C4  UNL     1     218.168 -70.230  -1.235  1.00  0.00     0.145 A
HETATM   16  C3  UNL     1     216.998 -69.827  -1.822  1.00  0.00     0.096 A
HETATM   17  N13 UNL     1     217.310 -68.765  -2.573  1.00  0.00    -0.283 N
HETATM   18  N12 UNL     1     218.580 -68.518  -2.465  1.00  0.00    -0.240 N
ATOM     19  H13 UNL     1     216.652 -68.231  -3.141  1.00  0.00     0.188 HD
ATOM     20  H12 UNL     1     219.076 -67.761  -2.935  1.00  0.00     0.208 HD
BRANCH  16  21
HETATM   21  C2  UNL     1     215.677 -70.435  -1.661  1.00  0.00     0.094 A
HETATM   22  N3  UNL     1     214.601 -69.710  -1.307  1.00  0.00    -0.283 N
HETATM   23  N2  UNL     1     213.412 -70.271  -1.166  1.00  0.00    -0.132 N
ATOM     24  H3  UNL     1     214.703 -68.708  -1.146  1.00  0.00     0.187 HD
HETATM   25  C1  UNL     1     213.198 -71.585  -1.360  1.00  0.00     0.690 A
ATOM     26  H2  UNL     1     212.624 -69.683  -0.898  1.00  0.00     0.205 HD
HETATM   27  N14 UNL     1     214.266 -72.329  -1.715  1.00  0.00    -0.199 N
HETATM   28  C22 UNL     1     215.487 -71.784  -1.867  1.00  0.00     0.139 A
ATOM     29  H14 UNL     1     214.145 -73.329  -1.872  1.00  0.00     0.183 HD
BRANCH  25  30
HETATM   30  N1  UNL     1     212.017 -72.128  -1.215  1.00  0.00    -0.233 N
ATOM     31  H12 UNL     1     211.239 -71.597  -0.822  1.00  0.00     0.174 HD
ATOM     32  H11 UNL     1     211.825 -73.092  -1.485  1.00  0.00     0.174 HD
ENDBRANCH  25  30
ENDBRANCH  16  21
ENDBRANCH  13  14
ENDBRANCH  12  13
ENDBRANCH   1  12
BRANCH   3  33
HETATM   33  C9  UNL     1     222.411 -68.175  -5.910  1.00  0.00    -0.024 A
HETATM   34  C10 UNL     1     223.705 -68.169  -6.293  1.00  0.00     0.013 A
HETATM   35  C11 UNL     1     224.165 -68.828  -7.431  1.00  0.00     0.010 A
HETATM   36  C12 UNL     1     223.241 -69.511  -8.186  1.00  0.00    -0.033 A
HETATM   37  C14 UNL     1     221.923 -69.541  -7.834  1.00  0.00     0.010 A
HETATM   38  C15 UNL     1     221.532 -68.856  -6.676  1.00  0.00     0.013 A
BRANCH  36  39
HETATM   39  C13 UNL     1     223.675 -70.249  -9.437  1.00  0.00     0.268 C
BRANCH  39  40
HETATM   40  N6  UNL     1     224.203 -71.529  -8.997  1.00  0.00    -0.075 N
ATOM     41  H63 UNL     1     224.920 -71.444  -8.277  1.00  0.00     0.274 HD
ATOM     42  H62 UNL     1     223.538 -72.075  -8.449  1.00  0.00     0.274 HD
ATOM     43  H61 UNL     1     224.527 -72.011  -9.836  1.00  0.00     0.274 HD
ENDBRANCH  39  40
ENDBRANCH  36  39
ENDBRANCH   3  33
BRANCH   5  44
HETATM   44  C18 UNL     1     222.113 -64.925  -6.416  1.00  0.00     0.164 C
BRANCH  44  45
HETATM   45  O1  UNL     1     221.311 -64.938  -7.503  1.00  0.00    -0.354 OA
ATOM     46  H1  UNL     1     221.566 -65.356  -8.317  1.00  0.00     0.218 HD
ENDBRANCH  44  45
BRANCH  44  47
HETATM   47  C19 UNL     1     223.488 -64.414  -6.525  1.00  0.00     0.294 C
HETATM   48  O2  UNL     1     223.702 -63.496  -7.353  1.00  0.00    -0.264 OA
HETATM   49  N7  UNL     1     224.554 -64.897  -5.757  1.00  0.00    -0.271 N
ATOM     50  H7  UNL     1     224.380 -65.643  -5.083  1.00  0.00     0.189 HD
BRANCH  49  51
HETATM   51  N8  UNL     1     225.849 -64.391  -5.884  1.00  0.00    -0.342 N
ATOM     52  H82 UNL     1     226.568 -65.008  -6.261  1.00  0.00     0.176 HD
ATOM     53  H81 UNL     1     226.088 -63.437  -5.612  1.00  0.00     0.176 HD
ENDBRANCH  49  51
ENDBRANCH  44  47
ENDBRANCH   5  44
BRANCH   8  54
HETATM   54  N10 UNL     1     220.282 -63.034  -2.471  1.00  0.00    -0.234 N
ATOM     55 2H10 UNL     1     220.950 -62.367  -2.085  1.00  0.00     0.174 HD
ATOM     56 1H10 UNL     1     219.279 -62.867  -2.393  1.00  0.00     0.174 HD
ENDBRANCH   8  54
TORSDOF 13
ENDMDL