MODEL 1
REMARK VINA RESULT: -8.640741203      0.000      0.000
REMARK  10 active torsions:
REMARK  status: ('A' for Active; 'I' for Inactive)
REMARK    1  A    between atoms: N1_2  and  C3_4
REMARK    2  A    between atoms: N3_9  and  C6_10
REMARK    3  A    between atoms: C10_22  and  O1_23
REMARK    4  A    between atoms: C10_22  and  N8_25
REMARK    5  A    between atoms: N8_25  and  C11_27
REMARK    6  A    between atoms: C11_27  and  C12_28
REMARK    7  A    between atoms: N9_32  and  C14_33
REMARK    8  A    between atoms: C17_41  and  O4_42
REMARK    9  A    between atoms: N13_46  and  C18_47
REMARK   10  A    between atoms: C18_47  and  C19_48
ROOT
HETATM    1  C3  UNL     1     221.015 -66.755  -1.607  1.00  0.00     0.138 A
HETATM    2  C4  UNL     1     221.520 -67.663  -2.494  1.00  0.00     0.107 A
HETATM    3  C5  UNL     1     221.812 -67.616  -3.908  1.00  0.00     0.140 C
HETATM    4  N2  UNL     1     221.536 -68.587  -4.768  1.00  0.00    -0.279 N
ATOM      5  H2  UNL     1     221.087 -69.472  -4.529  1.00  0.00     0.189 HD
HETATM    6  N3  UNL     1     221.947 -68.221  -6.038  1.00  0.00    -0.255 N
HETATM    7  C13 UNL     1     221.860 -66.740  -5.995  1.00  0.00     0.279 C
HETATM    8  N9  UNL     1     222.459 -66.597  -4.643  1.00  0.00    -0.315 N
HETATM    9  C17 UNL     1     221.768 -68.829  -1.732  1.00  0.00     0.173 A
HETATM   10  N12 UNL     1     221.411 -68.572  -0.469  1.00  0.00    -0.275 N
ATOM     11  H12 UNL     1     221.478 -69.232   0.306  1.00  0.00     0.189 HD
HETATM   12  N13 UNL     1     220.954 -67.322  -0.376  1.00  0.00    -0.274 N
ENDROOT
BRANCH   6  13
HETATM   13  C6  UNL     1     222.430 -68.934  -7.160  1.00  0.00     0.157 A
HETATM   14  N4  UNL     1     223.763 -68.599  -7.463  1.00  0.00    -0.174 N
HETATM   15  C7  UNL     1     224.347 -69.101  -8.537  1.00  0.00     0.678 A
ATOM     16  H4  UNL     1     224.280 -67.968  -6.850  1.00  0.00     0.186 HD
HETATM   17  N5  UNL     1     225.568 -68.796  -8.814  1.00  0.00    -0.234 N
HETATM   18  N6  UNL     1     223.660 -69.926  -9.333  1.00  0.00    -0.178 N
ATOM     19  H52 UNL     1     226.092 -68.166  -8.206  1.00  0.00     0.174 HD
ATOM     20  H51 UNL     1     226.018 -69.183  -9.643  1.00  0.00     0.174 HD
HETATM   21  C8  UNL     1     222.402 -70.266  -9.082  1.00  0.00     0.150 A
ATOM     22  H6  UNL     1     224.118 -70.307 -10.161  1.00  0.00     0.185 HD
HETATM   23  N7  UNL     1     221.704 -71.139  -9.949  1.00  0.00    -0.081 NA
HETATM   24  C9  UNL     1     221.714 -69.764  -7.937  1.00  0.00     0.102 A
HETATM   25  C10 UNL     1     220.374 -70.204  -7.723  1.00  0.00     0.153 C
BRANCH  25  26
HETATM   26  O1  UNL     1     219.892 -70.977  -8.655  1.00  0.00    -0.345 OA
ATOM     27  H1  UNL     1     219.857 -70.589  -9.522  1.00  0.00     0.219 HD
ENDBRANCH  25  26
BRANCH  25  28
HETATM   28  N8  UNL     1     219.497 -69.940  -6.667  1.00  0.00    -0.360 N
ATOM     29  H8  UNL     1     219.168 -68.991  -6.488  1.00  0.00     0.162 HD
BRANCH  28  30
HETATM   30  C11 UNL     1     219.052 -71.075  -5.806  1.00  0.00     0.235 C
BRANCH  30  31
HETATM   31  C12 UNL     1     219.908 -71.105  -4.598  1.00  0.00     0.191 C
HETATM   32  O2  UNL     1     219.486 -70.646  -3.507  1.00  0.00    -0.647 OA
HETATM   33  O3  UNL     1     221.193 -71.633  -4.628  1.00  0.00    -0.647 OA
ENDBRANCH  30  31
ENDBRANCH  28  30
ENDBRANCH  25  28
ENDBRANCH   6  13
BRANCH   8  34
HETATM   34  C14 UNL     1     223.461 -65.656  -4.272  1.00  0.00     0.330 C
HETATM   35  C15 UNL     1     223.106 -64.284  -4.707  1.00  0.00     0.111 C
HETATM   36  N10 UNL     1     224.164 -63.683  -5.045  1.00  0.00    -0.376 N
HETATM   37  C16 UNL     1     225.302 -64.543  -4.884  1.00  0.00     0.357 C
ATOM     38  H10 UNL     1     224.204 -62.722  -5.386  1.00  0.00     0.160 HD
HETATM   39  N11 UNL     1     224.727 -65.898  -4.947  1.00  0.00    -0.034 N
ATOM     40 2H11 UNL     1     225.304 -66.646  -4.563  1.00  0.00     0.282 HD
ATOM     41 1H11 UNL     1     224.666 -66.314  -5.876  1.00  0.00     0.282 HD
ENDBRANCH   8  34
BRANCH   1  42
HETATM   42  N1  UNL     1     220.590 -65.444  -1.968  1.00  0.00    -0.374 N
HETATM   43  C1  UNL     1     219.394 -65.206  -2.788  1.00  0.00     0.150 C
HETATM   44  C2  UNL     1     221.300 -64.237  -1.582  1.00  0.00     0.150 C
ENDBRANCH   1  42
BRANCH   9  45
HETATM   45  O4  UNL     1     222.290 -70.026  -2.220  1.00  0.00    -0.344 OA
ATOM     46  H4  UNL     1     221.792 -70.813  -2.408  1.00  0.00     0.219 HD
ENDBRANCH   9  45
BRANCH  12  47
HETATM   47  C18 UNL     1     220.498 -66.751   0.850  1.00  0.00     0.155 C
BRANCH  47  48
HETATM   48  C19 UNL     1     221.599 -66.165   1.707  1.00  0.00     0.005 A
HETATM   49  C20 UNL     1     221.270 -65.806   3.112  1.00  0.00     0.007 A
HETATM   50  C21 UNL     1     221.592 -64.757   2.104  1.00  0.00     0.007 A
ENDBRANCH  47  48
ENDBRANCH  12  47
TORSDOF 10
ENDMDL