MODEL 3
REMARK VINA RESULT: -8.741859393      2.793      3.906
REMARK  13 active torsions:
REMARK  status: ('A' for Active; 'I' for Inactive)
REMARK    1  A    between atoms: C3_3  and  O1_4
REMARK    2  A    between atoms: C4_6  and  N1_7
REMARK    3  A    between atoms: C11_14  and  O2_15
REMARK    4  A    between atoms: C12_17  and  C13_18
REMARK    5  A    between atoms: N2_19  and  N3_21
REMARK       I    between atoms: N3_21  and  C14_23
REMARK    6  A    between atoms: C14_23  and  C15_25
REMARK    7  A    between atoms: C15_25  and  C16_26
REMARK    8  A    between atoms: C15_25  and  N5_31
REMARK    9  A    between atoms: C16_26  and  N4_27
REMARK   10  A    between atoms: N5_31  and  N6_33
REMARK       I    between atoms: N6_33  and  C17_35
REMARK   11  A    between atoms: C17_35  and  C18_37
REMARK   12  A    between atoms: N7_39  and  C20_40
REMARK   13  A    between atoms: C21_46  and  N10_47
ROOT
HETATM    1  C15 UNL     1     225.413 -60.391  -2.265  1.00  0.00     0.218 C
ENDROOT
BRANCH   1   2
HETATM    2  C14 UNL     1     225.297 -61.853  -2.643  1.00  0.00     0.262 C
HETATM    3  N3  UNL     1     224.577 -62.159  -3.816  1.00  0.00    -0.269 N
ATOM      4  H3  UNL     1     224.154 -61.422  -4.380  1.00  0.00     0.190 HD
HETATM    5  O3  UNL     1     225.838 -62.701  -1.907  1.00  0.00    -0.269 OA
BRANCH   3   6
HETATM    6  N2  UNL     1     224.461 -63.500  -4.184  1.00  0.00    -0.308 N
HETATM    7  C13 UNL     1     224.050 -63.803  -5.349  1.00  0.00     0.122 C
ATOM      8  H2  UNL     1     224.706 -64.236  -3.521  1.00  0.00     0.186 HD
BRANCH   7   9
HETATM    9  C12 UNL     1     223.872 -65.140  -5.888  1.00  0.00     0.023 A
HETATM   10  C2  UNL     1     222.640 -65.650  -6.244  1.00  0.00    -0.012 A
HETATM   11  C1  UNL     1     221.420 -64.820  -6.086  1.00  0.00     0.052 C
HETATM   12  C3  UNL     1     222.563 -66.953  -6.754  1.00  0.00     0.099 A
HETATM   13  C4  UNL     1     223.702 -67.736  -6.907  1.00  0.00     0.067 A
HETATM   14  C10 UNL     1     224.921 -67.218  -6.549  1.00  0.00     0.069 A
HETATM   15  C11 UNL     1     224.997 -65.938  -6.048  1.00  0.00     0.080 A
BRANCH  12  16
HETATM   16  O1  UNL     1     221.383 -67.532  -7.130  1.00  0.00    -0.358 OA
ATOM     17  H1  UNL     1     221.337 -68.391  -7.533  1.00  0.00     0.217 HD
ENDBRANCH  12  16
BRANCH  13  18
HETATM   18  N1  UNL     1     223.693 -69.068  -7.410  1.00  0.00    -0.379 N
HETATM   19  C5  UNL     1     223.388 -70.126  -6.481  1.00  0.00     0.123 C
HETATM   20  C6  UNL     1     222.244 -70.975  -6.932  1.00  0.00     0.020 C
HETATM   21  C7  UNL     1     221.990 -70.791  -8.404  1.00  0.00     0.003 C
HETATM   22  C8  UNL     1     223.340 -70.701  -9.128  1.00  0.00     0.020 C
HETATM   23  C9  UNL     1     223.984 -69.383  -8.778  1.00  0.00     0.123 C
ENDBRANCH  13  18
BRANCH  15  24
HETATM   24  O2  UNL     1     226.226 -65.438  -5.697  1.00  0.00    -0.360 OA
ATOM     25  H2  UNL     1     226.469 -65.423  -4.778  1.00  0.00     0.217 HD
ENDBRANCH  15  24
ENDBRANCH   7   9
ENDBRANCH   3   6
ENDBRANCH   1   2
BRANCH   1  26
HETATM   26  C16 UNL     1     226.479 -60.390  -1.171  1.00  0.00     0.265 C
BRANCH  26  27
HETATM   27  N4  UNL     1     227.131 -59.114  -1.040  1.00  0.00    -0.077 N
ATOM     28  H43 UNL     1     228.144 -59.210  -1.117  1.00  0.00     0.274 HD
ATOM     29  H42 UNL     1     226.960 -58.529  -1.857  1.00  0.00     0.274 HD
ATOM     30  H41 UNL     1     226.872 -58.631  -0.180  1.00  0.00     0.274 HD
ENDBRANCH  26  27
ENDBRANCH   1  26
BRANCH   1  31
HETATM   31  N5  UNL     1     224.131 -59.971  -1.825  1.00  0.00    -0.318 N
ATOM     32  H5  UNL     1     223.646 -59.193  -2.270  1.00  0.00     0.181 HD
BRANCH  31  33
HETATM   33  N6  UNL     1     223.569 -60.661  -0.770  1.00  0.00    -0.268 N
HETATM   34  C17 UNL     1     223.114 -59.977   0.395  1.00  0.00     0.289 C
HETATM   35  O4  UNL     1     223.238 -58.736   0.443  1.00  0.00    -0.264 OA
ATOM     36  H6  UNL     1     223.477 -61.675  -0.825  1.00  0.00     0.190 HD
BRANCH  34  37
HETATM   37  C18 UNL     1     222.517 -60.684   1.514  1.00  0.00     0.136 A
HETATM   38  C19 UNL     1     223.145 -61.533   2.400  1.00  0.00     0.156 A
HETATM   39  N7  UNL     1     222.268 -62.000   3.314  1.00  0.00    -0.229 N
HETATM   40  N11 UNL     1     221.119 -61.440   2.985  1.00  0.00    -0.234 N
HETATM   41  N12 UNL     1     221.223 -60.661   1.935  1.00  0.00    -0.279 N
ATOM     42  H11 UNL     1     220.248 -61.596   3.491  1.00  0.00     0.209 HD
ATOM     43  H12 UNL     1     220.465 -60.129   1.507  1.00  0.00     0.189 HD
BRANCH  39  44
HETATM   44  C20 UNL     1     222.509 -62.894   4.392  1.00  0.00     0.195 A
HETATM   45  N8  UNL     1     223.668 -63.039   5.080  1.00  0.00    -0.220 N
HETATM   46  O5  UNL     1     223.491 -63.949   5.986  1.00  0.00    -0.153 OA
ATOM     47  H8  UNL     1     224.531 -62.523   4.912  1.00  0.00     0.198 HD
HETATM   48  N9  UNL     1     222.285 -64.428   5.955  1.00  0.00    -0.222 N
HETATM   49  C21 UNL     1     221.638 -63.783   4.958  1.00  0.00     0.169 A
ATOM     50  H9  UNL     1     221.901 -65.151   6.563  1.00  0.00     0.198 HD
BRANCH  49  51
HETATM   51  N10 UNL     1     220.413 -63.982   4.615  1.00  0.00    -0.381 N
ATOM     52 2H10 UNL     1     220.014 -64.882   4.350  1.00  0.00     0.157 HD
ATOM     53 1H10 UNL     1     219.676 -63.279   4.559  1.00  0.00     0.157 HD
ENDBRANCH  49  51
ENDBRANCH  39  44
ENDBRANCH  34  37
ENDBRANCH  31  33
ENDBRANCH   1  31
TORSDOF 13
ENDMDL