MODEL 2
REMARK VINA RESULT: -9.067152573      1.070      1.532
REMARK  9 active torsions:
REMARK  status: ('A' for Active; 'I' for Inactive)
REMARK    1  A    between atoms: N1_2  and  C2_4
REMARK    2  A    between atoms: C3_7  and  N3_8
REMARK    3  A    between atoms: N3_8  and  N4_9
REMARK    4  A    between atoms: N4_9  and  C4_11
REMARK    5  A    between atoms: C5_19  and  N9_20
REMARK       I    between atoms: N9_20  and  C6_21
REMARK    6  A    between atoms: C6_21  and  C7_23
REMARK    7  A    between atoms: N12_30  and  C10_31
REMARK    8  A    between atoms: C14_35  and  C15_36
REMARK    9  A    between atoms: C17_40  and  C19_42
ROOT
HETATM    1  C2  UNL     1     226.047 -65.172  -4.050  1.00  0.00     0.138 C
HETATM    2  N2  UNL     1     225.163 -65.161  -3.113  1.00  0.00    -0.345 N
ATOM      3  H2  UNL     1     225.479 -65.216  -2.145  1.00  0.00     0.163 HD
HETATM    4  C3  UNL     1     223.753 -65.074  -3.372  1.00  0.00     0.262 C
HETATM    5  C5  UNL     1     223.424 -66.125  -4.456  1.00  0.00     0.136 C
HETATM    6  C17 UNL     1     223.767 -65.666  -5.823  1.00  0.00     0.155 C
HETATM    7  C18 UNL     1     223.746 -66.867  -6.764  1.00  0.00     0.047 C
HETATM    8  S1  UNL     1     225.521 -65.077  -5.736  1.00  0.00    -0.066 SA
ENDROOT
BRANCH   5   9
HETATM    9  N9  UNL     1     222.291 -66.822  -4.169  1.00  0.00    -0.368 NA
HETATM   10  C6  UNL     1     221.131 -67.518  -3.878  1.00  0.00     0.346 C
HETATM   11  O1  UNL     1     219.954 -67.018  -3.839  1.00  0.00    -0.249 OA
BRANCH  10  12
HETATM   12  C7  UNL     1     221.129 -68.957  -3.563  1.00  0.00     0.164 A
HETATM   13  C8  UNL     1     221.459 -69.510  -2.352  1.00  0.00     0.059 A
HETATM   14  C9  UNL     1     221.937 -68.907  -1.082  1.00  0.00     0.072 C
HETATM   15  N10 UNL     1     221.276 -70.862  -2.543  1.00  0.00    -0.288 N
HETATM   16  N11 UNL     1     220.876 -71.066  -3.754  1.00  0.00    -0.235 N
ATOM     17  H10 UNL     1     221.431 -71.586  -1.841  1.00  0.00     0.188 HD
HETATM   18  N12 UNL     1     220.768 -69.915  -4.426  1.00  0.00    -0.234 N
ATOM     19  H11 UNL     1     220.670 -71.985  -4.146  1.00  0.00     0.209 HD
BRANCH  18  20
HETATM   20  C10 UNL     1     220.337 -69.875  -5.771  1.00  0.00     0.059 A
HETATM   21  C11 UNL     1     219.085 -69.558  -6.222  1.00  0.00     0.031 A
HETATM   22  C12 UNL     1     218.742 -69.598  -7.583  1.00  0.00     0.003 A
HETATM   23  C13 UNL     1     219.682 -69.963  -8.520  1.00  0.00     0.017 A
HETATM   24  C14 UNL     1     220.953 -70.287  -8.099  1.00  0.00     0.031 A
HETATM   25  C16 UNL     1     221.244 -70.236  -6.781  1.00  0.00     0.048 A
BRANCH  24  26
HETATM   26  C15 UNL     1     221.943 -70.693  -9.121  1.00  0.00     0.265 C
HETATM   27  N13 UNL     1     223.338 -70.679  -8.817  1.00  0.00    -0.057 NA
HETATM   28  O2  UNL     1     221.474 -71.033 -10.221  1.00  0.00    -0.271 OA
ENDBRANCH  24  26
ENDBRANCH  18  20
ENDBRANCH  10  12
ENDBRANCH   5   9
BRANCH   4  29
HETATM   29  N3  UNL     1     223.336 -63.754  -3.688  1.00  0.00    -0.093 NA
BRANCH  29  30
HETATM   30  N4  UNL     1     222.387 -63.257  -2.749  1.00  0.00    -0.132 N
ATOM     31  H4  UNL     1     222.628 -62.481  -2.133  1.00  0.00     0.201 HD
BRANCH  30  32
HETATM   32  C4  UNL     1     221.112 -63.849  -2.681  1.00  0.00     0.722 A
HETATM   33  N5  UNL     1     220.080 -63.776  -3.527  1.00  0.00    -0.112 N
HETATM   34  N6  UNL     1     219.066 -64.485  -3.064  1.00  0.00     0.009 NA
ATOM     35  H5  UNL     1     220.076 -63.250  -4.402  1.00  0.00     0.203 HD
HETATM   36  N7  UNL     1     219.424 -65.029  -1.902  1.00  0.00    -0.211 N
HETATM   37  N8  UNL     1     220.653 -64.638  -1.690  1.00  0.00    -0.117 N
ATOM     38  H7  UNL     1     218.856 -65.626  -1.301  1.00  0.00     0.206 HD
ATOM     39  H8  UNL     1     221.200 -64.900  -0.871  1.00  0.00     0.207 HD
ENDBRANCH  30  32
ENDBRANCH  29  30
ENDBRANCH   4  29
BRANCH   6  40
HETATM   40  C19 UNL     1     222.954 -64.631  -6.441  1.00  0.00     0.199 C
HETATM   41  O3  UNL     1     223.519 -63.753  -7.191  1.00  0.00    -0.646 OA
HETATM   42  O4  UNL     1     221.596 -64.495  -6.307  1.00  0.00    -0.646 OA
ENDBRANCH   6  40
BRANCH   1  43
HETATM   43  N1  UNL     1     227.453 -65.263  -3.732  1.00  0.00    -0.375 N
HETATM   44  C1  UNL     1     228.114 -64.216  -2.993  1.00  0.00     0.148 C
ATOM     45  H1  UNL     1     227.985 -66.078  -4.034  1.00  0.00     0.161 HD
ENDBRANCH   1  43
TORSDOF 9
ENDMDL