MODEL 1
REMARK VINA RESULT: -7.608789208      0.000      0.000
REMARK  14 active torsions:
REMARK  status: ('A' for Active; 'I' for Inactive)
REMARK    1  A    between atoms: C3_4  and  N2_5
REMARK    2  A    between atoms: C5_9  and  C6_10
REMARK    3  A    between atoms: C7_13  and  S1_14
REMARK    4  A    between atoms: S1_14  and  C8_15
REMARK    5  A    between atoms: C8_15  and  C9_16
REMARK       I    between atoms: C9_16  and  N4_18
REMARK    6  A    between atoms: N4_18  and  N5_20
REMARK    7  A    between atoms: C11_26  and  C12_27
REMARK    8  A    between atoms: C12_27  and  C13_28
REMARK    9  A    between atoms: C13_28  and  N7_30
REMARK   10  A    between atoms: C13_28  and  O4_34
REMARK   11  A    between atoms: N9_39  and  N10_41
REMARK   12  A    between atoms: N10_41  and  C16_43
REMARK   13  A    between atoms: C16_43  and  N11_45
REMARK   14  A    between atoms: N11_45  and  N12_47
ROOT
HETATM    1  C6  UNL     1     220.591 -67.819  -4.527  1.00  0.00     0.159 A
HETATM    2  N3  UNL     1     219.857 -66.913  -3.788  1.00  0.00    -0.331 N
ATOM      3  H3  UNL     1     218.887 -67.050  -3.506  1.00  0.00     0.168 HD
HETATM    4  C7  UNL     1     220.576 -65.844  -3.497  1.00  0.00     0.117 A
HETATM    5  C10 UNL     1     221.815 -66.058  -4.064  1.00  0.00     0.166 A
HETATM    6  N6  UNL     1     222.878 -65.249  -4.069  1.00  0.00    -0.328 N
ATOM      7  H6  UNL     1     222.831 -64.355  -3.579  1.00  0.00     0.168 HD
HETATM    8  C11 UNL     1     224.008 -65.589  -4.709  1.00  0.00     0.103 A
HETATM    9  N8  UNL     1     223.993 -66.775  -5.327  1.00  0.00    -0.178 N
ATOM     10  H8  UNL     1     224.831 -67.071  -5.826  1.00  0.00     0.185 HD
HETATM   11  C15 UNL     1     222.912 -67.606  -5.324  1.00  0.00     0.708 A
HETATM   12  N9  UNL     1     222.968 -68.681  -6.004  1.00  0.00    -0.129 N
ATOM     13  H9  UNL     1     222.165 -69.310  -6.009  1.00  0.00     0.205 HD
HETATM   14  N13 UNL     1     221.793 -67.245  -4.674  1.00  0.00    -0.111 N
ENDROOT
BRANCH  12  15
HETATM   15  N10 UNL     1     224.089 -69.013  -6.732  1.00  0.00    -0.261 N
ATOM     16  H10 UNL     1     225.006 -68.674  -6.441  1.00  0.00     0.190 HD
BRANCH  15  17
HETATM   17  C16 UNL     1     223.971 -69.827  -7.888  1.00  0.00     0.205 C
HETATM   18  S2  UNL     1     222.881 -71.031  -7.909  1.00  0.00    -0.038 SA
BRANCH  17  19
HETATM   19  N11 UNL     1     224.801 -69.577  -9.005  1.00  0.00    -0.282 N
ATOM     20  H11 UNL     1     224.708 -70.142  -9.848  1.00  0.00     0.189 HD
BRANCH  19  21
HETATM   21  N12 UNL     1     225.745 -68.557  -8.947  1.00  0.00    -0.343 N
ATOM     22 2H12 UNL     1     225.452 -67.625  -8.652  1.00  0.00     0.176 HD
ATOM     23 1H12 UNL     1     226.714 -68.750  -9.198  1.00  0.00     0.176 HD
ENDBRANCH  19  21
ENDBRANCH  17  19
ENDBRANCH  15  17
ENDBRANCH  12  15
BRANCH   8  24
HETATM   24  C12 UNL     1     225.168 -64.690  -4.713  1.00  0.00     0.144 C
BRANCH  24  25
HETATM   25  C13 UNL     1     225.836 -64.561  -3.366  1.00  0.00     0.225 C
HETATM   26  C14 UNL     1     227.214 -65.136  -3.328  1.00  0.00     0.078 C
BRANCH  25  27
HETATM   27  N7  UNL     1     225.920 -63.137  -3.020  1.00  0.00    -0.047 N
ATOM     28  H73 UNL     1     225.217 -62.576  -3.500  1.00  0.00     0.278 HD
ATOM     29  H72 UNL     1     225.621 -62.949  -2.063  1.00  0.00     0.278 HD
ATOM     30  H71 UNL     1     226.870 -62.813  -3.202  1.00  0.00     0.278 HD
ENDBRANCH  25  27
BRANCH  25  31
HETATM   31  O4  UNL     1     225.085 -65.154  -2.351  1.00  0.00    -0.365 OA
ATOM     32  H4  UNL     1     225.491 -65.046  -1.498  1.00  0.00     0.212 HD
ENDBRANCH  25  31
ENDBRANCH  24  25
ENDBRANCH   8  24
BRANCH   1  33
HETATM   33  C5  UNL     1     220.019 -69.056  -5.039  1.00  0.00     0.082 A
HETATM   34  N1  UNL     1     219.563 -70.133  -4.424  1.00  0.00    -0.356 N
HETATM   35  C1  UNL     1     219.506 -70.477  -2.984  1.00  0.00     0.156 C
HETATM   36  C2  UNL     1     218.998 -70.965  -5.357  1.00  0.00     0.127 A
HETATM   37  C3  UNL     1     219.092 -70.402  -6.600  1.00  0.00     0.120 A
HETATM   38  C4  UNL     1     219.729 -69.208  -6.412  1.00  0.00     0.071 A
BRANCH  37  39
HETATM   39  N2  UNL     1     218.616 -70.963  -7.835  1.00  0.00    -0.114 N
HETATM   40  O1  UNL     1     217.746 -71.851  -7.858  1.00  0.00    -0.532 OA
HETATM   41  O2  UNL     1     219.117 -70.527  -9.035  1.00  0.00    -0.532 OA
ENDBRANCH  37  39
ENDBRANCH   1  33
BRANCH   4  42
HETATM   42  S1  UNL     1     220.058 -64.418  -2.562  1.00  0.00    -0.099 SA
BRANCH  42  43
HETATM   43  C8  UNL     1     221.300 -64.070  -1.310  1.00  0.00     0.185 C
BRANCH  43  44
HETATM   44  C9  UNL     1     221.998 -62.808  -1.503  1.00  0.00     0.245 C
HETATM   45  O3  UNL     1     223.118 -62.867  -2.118  1.00  0.00    -0.271 OA
HETATM   46  N4  UNL     1     221.517 -61.575  -1.067  1.00  0.00    -0.276 N
ATOM     47  H4  UNL     1     220.622 -61.512  -0.582  1.00  0.00     0.189 HD
BRANCH  46  48
HETATM   48  N5  UNL     1     222.289 -60.409  -1.306  1.00  0.00    -0.343 N
ATOM     49  H52 UNL     1     223.286 -60.498  -1.498  1.00  0.00     0.176 HD
ATOM     50  H51 UNL     1     221.832 -59.497  -1.281  1.00  0.00     0.176 HD
ENDBRANCH  46  48
ENDBRANCH  43  44
ENDBRANCH  42  43
ENDBRANCH   4  42
TORSDOF 14
ENDMDL