MODEL 2
REMARK VINA RESULT: -8.553473180      2.238      3.236
REMARK  14 active torsions:
REMARK  status: ('A' for Active; 'I' for Inactive)
REMARK       I    between atoms: C2_2  and  N1_4
REMARK    1  A    between atoms: N1_4  and  C3_6
REMARK    2  A    between atoms: C4_7  and  S1_8
REMARK    3  A    between atoms: S1_8  and  C5_9
REMARK    4  A    between atoms: C6_12  and  C7_13
REMARK    5  A    between atoms: C7_13  and  O2_14
REMARK    6  A    between atoms: O2_14  and  C8_15
REMARK    7  A    between atoms: C8_15  and  C9_17
REMARK    8  A    between atoms: C11_19  and  O4_20
REMARK    9  A    between atoms: C13_23  and  O5_24
REMARK   10  A    between atoms: C14_26  and  O6_27
REMARK   11  A    between atoms: C17_34  and  C18_35
REMARK   12  A    between atoms: C18_35  and  O8_36
REMARK   13  A    between atoms: C18_35  and  C19_38
REMARK   14  A    between atoms: C20_41  and  O11_43
ROOT
HETATM    1  C3  UNL     1     225.258 -62.739  -2.255  1.00  0.00     0.085 C
HETATM    2  C4  UNL     1     224.018 -63.052  -2.773  1.00  0.00     0.100 C
HETATM    3  N3  UNL     1     222.867 -62.416  -2.272  1.00  0.00    -0.352 N
ATOM      4  H3  UNL     1     221.960 -62.658  -2.670  1.00  0.00     0.166 HD
HETATM    5  C15 UNL     1     222.919 -61.456  -1.239  1.00  0.00     0.018 C
HETATM    6  C16 UNL     1     221.658 -60.886  -0.714  1.00  0.00     0.069 C
HETATM    7  C17 UNL     1     224.122 -61.096  -0.711  1.00  0.00     0.044 C
HETATM    8  C20 UNL     1     225.264 -61.473  -1.548  1.00  0.00     0.131 C
HETATM    9  C21 UNL     1     226.590 -60.896  -1.297  1.00  0.00     0.058 C
ENDROOT
BRANCH   2  10
HETATM   10  S1  UNL     1     223.887 -64.460  -3.864  1.00  0.00    -0.057 SA
BRANCH  10  11
HETATM   11  C5  UNL     1     222.254 -65.230  -3.551  1.00  0.00     0.301 A
HETATM   12  N2  UNL     1     222.322 -66.610  -3.805  1.00  0.00    -0.337 N
HETATM   13  C6  UNL     1     221.536 -66.537  -4.795  1.00  0.00     0.144 A
ATOM     14  H2  UNL     1     222.818 -67.381  -3.358  1.00  0.00     0.164 HD
HETATM   15  O7  UNL     1     221.404 -65.189  -4.633  1.00  0.00    -0.302 OA
BRANCH  13  16
HETATM   16  C7  UNL     1     220.975 -67.561  -5.767  1.00  0.00     0.263 C
BRANCH  16  17
HETATM   17  O2  UNL     1     221.124 -68.860  -5.284  1.00  0.00    -0.309 OA
BRANCH  17  18
HETATM   18  C8  UNL     1     222.162 -69.713  -5.572  1.00  0.00     0.296 C
HETATM   19  O3  UNL     1     222.686 -70.347  -4.614  1.00  0.00    -0.259 OA
BRANCH  18  20
HETATM   20  C9  UNL     1     222.606 -69.851  -6.943  1.00  0.00     0.078 A
HETATM   21  C10 UNL     1     223.835 -69.365  -7.307  1.00  0.00     0.057 A
HETATM   22  C11 UNL     1     224.289 -69.479  -8.583  1.00  0.00     0.069 A
HETATM   23  C12 UNL     1     223.511 -70.091  -9.550  1.00  0.00     0.076 A
HETATM   24  C13 UNL     1     222.273 -70.591  -9.221  1.00  0.00     0.102 A
HETATM   25  C14 UNL     1     221.828 -70.462  -7.900  1.00  0.00     0.115 A
BRANCH  22  26
HETATM   26  O4  UNL     1     225.532 -68.979  -8.920  1.00  0.00    -0.361 OA
ATOM     27  H4  UNL     1     225.650 -68.044  -9.043  1.00  0.00     0.217 HD
ENDBRANCH  22  26
BRANCH  24  28
HETATM   28  O5  UNL     1     221.492 -71.205 -10.191  1.00  0.00    -0.358 OA
ATOM     29  H5  UNL     1     221.590 -72.135 -10.360  1.00  0.00     0.217 HD
ENDBRANCH  24  28
BRANCH  25  30
HETATM   30  O6  UNL     1     220.581 -70.967  -7.579  1.00  0.00    -0.357 OA
ATOM     31  H6  UNL     1     220.496 -71.754  -7.053  1.00  0.00     0.217 HD
ENDBRANCH  25  30
ENDBRANCH  18  20
ENDBRANCH  17  18
ENDBRANCH  16  17
ENDBRANCH  13  16
ENDBRANCH  10  11
ENDBRANCH   2  10
BRANCH   1  32
HETATM   32  N1  UNL     1     226.282 -63.608  -2.641  1.00  0.00    -0.326 N
HETATM   33  C2  UNL     1     227.276 -64.366  -2.061  1.00  0.00     0.218 C
HETATM   34  C1  UNL     1     228.211 -65.192  -3.012  1.00  0.00     0.117 C
HETATM   35  O1  UNL     1     227.636 -64.568  -0.901  1.00  0.00    -0.274 OA
ATOM     36  H1  UNL     1     226.298 -63.713  -3.655  1.00  0.00     0.168 HD
ENDBRANCH   1  32
BRANCH   8  37
HETATM   37  O11 UNL     1     224.889 -60.508  -2.745  1.00  0.00    -0.379 OA
ATOM     38  H11 UNL     1     224.475 -59.807  -2.255  1.00  0.00     0.211 HD
ENDBRANCH   8  37
BRANCH   7  39
HETATM   39  C18 UNL     1     224.141 -60.131   0.377  1.00  0.00     0.154 C
BRANCH  39  40
HETATM   40  O8  UNL     1     224.322 -60.649   1.596  1.00  0.00    -0.354 OA
ATOM     41  H8  UNL     1     224.773 -60.085   2.213  1.00  0.00     0.218 HD
ENDBRANCH  39  40
BRANCH  39  42
HETATM   42  C19 UNL     1     224.019 -58.693   0.462  1.00  0.00     0.234 C
HETATM   43  O9  UNL     1     223.471 -57.949  -0.518  1.00  0.00    -0.642 OA
HETATM   44  O10 UNL     1     223.553 -58.330   1.749  1.00  0.00    -0.642 OA
ENDBRANCH  39  42
ENDBRANCH   7  39
TORSDOF 14
ENDMDL