MODEL 1
REMARK VINA RESULT: -7.368279978      0.000      0.000
REMARK  16 active torsions:
REMARK  status: ('A' for Active; 'I' for Inactive)
REMARK    1  A    between atoms: C2_2  and  C3_3
REMARK    2  A    between atoms: C6_7  and  O2_8
REMARK    3  A    between atoms: O2_8  and  C7_9
REMARK    4  A    between atoms: C10_13  and  O4_14
REMARK    5  A    between atoms: O4_14  and  C11_15
REMARK    6  A    between atoms: C11_15  and  C13_17
REMARK    7  A    between atoms: C13_17  and  S1_18
REMARK    8  A    between atoms: S1_18  and  C14_19
REMARK    9  A    between atoms: C16_22  and  O6_23
REMARK   10  A    between atoms: C17_25  and  O7_26
REMARK   11  A    between atoms: C18_28  and  O8_29
REMARK   12  A    between atoms: C19_31  and  O9_32
REMARK   13  A    between atoms: C19_31  and  C20_34
REMARK   14  A    between atoms: C20_34  and  O10_35
REMARK   15  A    between atoms: C21_37  and  O11_38
REMARK   16  A    between atoms: C22_40  and  O12_41
ROOT
HETATM    1  C7  UNL     1     222.735 -64.075  -3.919  1.00  0.00     0.195 C
HETATM    2  C8  UNL     1     222.286 -63.707  -2.529  1.00  0.00     0.153 C
HETATM    3  C9  UNL     1     222.387 -64.817  -1.537  1.00  0.00     0.042 C
HETATM    4  O3  UNL     1     223.133 -62.689  -2.104  1.00  0.00    -0.350 OA
HETATM    5  C10 UNL     1     224.374 -62.954  -2.660  1.00  0.00     0.305 C
HETATM    6  C19 UNL     1     224.177 -63.694  -3.949  1.00  0.00     0.157 C
ENDROOT
BRANCH   5   7
HETATM    7  O4  UNL     1     225.084 -61.767  -2.801  1.00  0.00    -0.321 OA
BRANCH   7   8
HETATM    8  C11 UNL     1     226.204 -61.536  -1.973  1.00  0.00     0.050 C
HETATM    9  C12 UNL     1     226.808 -62.606  -1.496  1.00  0.00     0.047 C
BRANCH   8  10
HETATM   10  C13 UNL     1     226.664 -60.182  -1.661  1.00  0.00     0.140 C
BRANCH  10  11
HETATM   11  S1  UNL     1     225.669 -59.321  -0.472  1.00  0.00    -0.128 SA
BRANCH  11  12
HETATM   12  C14 UNL     1     224.265 -60.232   0.181  1.00  0.00     0.214 C
HETATM   13  O5  UNL     1     224.295 -60.348   1.523  1.00  0.00    -0.370 OA
HETATM   14  C15 UNL     1     223.090 -60.151   2.182  1.00  0.00     0.203 C
HETATM   15  C16 UNL     1     222.024 -60.934   1.446  1.00  0.00     0.173 C
HETATM   16  C17 UNL     1     221.760 -60.213   0.144  1.00  0.00     0.181 C
HETATM   17  C18 UNL     1     223.015 -59.543  -0.347  1.00  0.00     0.188 C
BRANCH  15  18
HETATM   18  O6  UNL     1     220.861 -60.979   2.239  1.00  0.00    -0.391 OA
ATOM     19  H6  UNL     1     220.968 -60.389   2.977  1.00  0.00     0.210 HD
ENDBRANCH  15  18
BRANCH  16  20
HETATM   20  O7  UNL     1     221.227 -61.065  -0.831  1.00  0.00    -0.390 OA
ATOM     21  H7  UNL     1     221.795 -61.141  -1.588  1.00  0.00     0.210 HD
ENDBRANCH  16  20
BRANCH  17  22
HETATM   22  O8  UNL     1     223.044 -59.661  -1.735  1.00  0.00    -0.389 OA
ATOM     23  H8  UNL     1     222.601 -58.897  -2.087  1.00  0.00     0.210 HD
ENDBRANCH  17  22
ENDBRANCH  11  12
ENDBRANCH  10  11
ENDBRANCH   8  10
ENDBRANCH   7   8
ENDBRANCH   5   7
BRANCH   6  24
HETATM   24  O9  UNL     1     224.455 -62.806  -5.008  1.00  0.00    -0.380 OA
ATOM     25  H9  UNL     1     223.684 -62.645  -5.540  1.00  0.00     0.211 HD
ENDBRANCH   6  24
BRANCH   6  26
HETATM   26  C20 UNL     1     225.109 -64.867  -4.135  1.00  0.00     0.210 C
BRANCH  26  27
HETATM   27  O10 UNL     1     226.338 -64.520  -4.652  1.00  0.00    -0.398 OA
ATOM     28  H10 UNL     1     226.801 -65.246  -5.054  1.00  0.00     0.209 HD
ENDBRANCH  26  27
ENDBRANCH   6  26
BRANCH   1  29
HETATM   29  O2  UNL     1     222.476 -65.400  -4.154  1.00  0.00    -0.347 OA
BRANCH  29  30
HETATM   30  C6  UNL     1     221.257 -65.640  -4.753  1.00  0.00     0.291 C
HETATM   31  O1  UNL     1     221.272 -65.524  -6.124  1.00  0.00    -0.357 OA
HETATM   32  C5  UNL     1     221.937 -66.463  -6.831  1.00  0.00     0.186 C
HETATM   33  C3  UNL     1     222.082 -67.826  -6.236  1.00  0.00     0.023 C
HETATM   34  C4  UNL     1     223.541 -68.072  -5.830  1.00  0.00     0.024 C
HETATM   35  C22 UNL     1     221.170 -68.108  -5.083  1.00  0.00     0.165 C
HETATM   36  C21 UNL     1     220.598 -66.924  -4.395  1.00  0.00     0.203 C
BRANCH  33  37
HETATM   37  C2  UNL     1     221.760 -68.815  -7.298  1.00  0.00    -0.023 C
HETATM   38  C1  UNL     1     222.674 -69.603  -7.832  1.00  0.00     0.008 C
ENDBRANCH  33  37
BRANCH  35  39
HETATM   39  O12 UNL     1     220.119 -68.979  -5.459  1.00  0.00    -0.392 OA
ATOM     40  H12 UNL     1     220.428 -69.662  -6.043  1.00  0.00     0.210 HD
ENDBRANCH  35  39
BRANCH  36  41
HETATM   41  O11 UNL     1     220.531 -67.190  -3.036  1.00  0.00    -0.388 OA
ATOM     42  H11 UNL     1     220.907 -68.021  -2.770  1.00  0.00     0.210 HD
ENDBRANCH  36  41
ENDBRANCH  29  30
ENDBRANCH   1  29
TORSDOF 16
ENDMDL