MODEL 3
REMARK VINA RESULT: -8.304140670      4.232      7.086
REMARK  13 active torsions:
REMARK  status: ('A' for Active; 'I' for Inactive)
REMARK    1  A    between atoms: C2_2  and  O1_4
REMARK    2  A    between atoms: C2_2  and  C4_6
REMARK    3  A    between atoms: C4_6  and  N1_7
REMARK    4  A    between atoms: C4_6  and  C17_43
REMARK    5  A    between atoms: N1_7  and  C5_9
REMARK    6  A    between atoms: C5_9  and  O2_10
REMARK    7  A    between atoms: C5_9  and  C6_12
REMARK    8  A    between atoms: N2_14  and  C8_15
REMARK    9  A    between atoms: C8_15  and  C9_16
REMARK   10  A    between atoms: N3_18  and  C11_19
REMARK   11  A    between atoms: C13_24  and  N6_25
REMARK   12  A    between atoms: C14_30  and  N8_31
REMARK   13  A    between atoms: C15_39  and  C16_40
ROOT
HETATM    1  C6  UNL     1     221.246 -66.305  -1.905  1.00  0.00     0.067 A
HETATM    2  C7  UNL     1     221.398 -67.680  -1.623  1.00  0.00     0.129 A
HETATM    3  N2  UNL     1     220.291 -68.287  -2.067  1.00  0.00    -0.296 N
HETATM    4  N11 UNL     1     219.480 -67.401  -2.590  1.00  0.00    -0.291 N
ATOM      5  H11 UNL     1     218.569 -67.614  -2.997  1.00  0.00     0.187 HD
HETATM    6  C15 UNL     1     220.033 -66.138  -2.512  1.00  0.00     0.141 A
ENDROOT
BRANCH   3   7
HETATM    7  C8  UNL     1     219.992 -69.709  -1.987  1.00  0.00     0.207 C
BRANCH   7   8
HETATM    8  C9  UNL     1     220.199 -70.376  -3.299  1.00  0.00     0.060 A
HETATM    9  C10 UNL     1     220.902 -69.908  -4.388  1.00  0.00     0.142 A
HETATM   10  N3  UNL     1     220.859 -70.815  -5.388  1.00  0.00    -0.242 N
HETATM   11  N9  UNL     1     220.136 -71.827  -4.912  1.00  0.00    -0.015 NA
HETATM   12  N10 UNL     1     219.738 -71.581  -3.675  1.00  0.00    -0.285 N
ATOM     13  H10 UNL     1     219.172 -72.206  -3.100  1.00  0.00     0.184 HD
BRANCH  10  14
HETATM   14  C11 UNL     1     221.453 -70.739  -6.686  1.00  0.00     0.139 A
HETATM   15  C12 UNL     1     222.847 -70.811  -6.819  1.00  0.00     0.164 A
HETATM   16  N4  UNL     1     223.707 -70.959  -5.709  1.00  0.00    -0.080 NA
HETATM   17  N5  UNL     1     223.365 -70.734  -8.046  1.00  0.00    -0.177 N
HETATM   18  C13 UNL     1     222.589 -70.593  -9.141  1.00  0.00     0.678 A
ATOM     19  H5  UNL     1     224.378 -70.785  -8.160  1.00  0.00     0.185 HD
HETATM   20  N7  UNL     1     221.250 -70.521  -9.032  1.00  0.00    -0.175 N
HETATM   21  C14 UNL     1     220.689 -70.593  -7.821  1.00  0.00     0.146 A
ATOM     22  H7  UNL     1     220.670 -70.414  -9.865  1.00  0.00     0.186 HD
BRANCH  18  23
HETATM   23  N6  UNL     1     223.158 -70.522 -10.309  1.00  0.00    -0.234 N
ATOM     24  H62 UNL     1     223.810 -69.766 -10.519  1.00  0.00     0.174 HD
ATOM     25  H61 UNL     1     222.942 -71.236 -11.006  1.00  0.00     0.174 HD
ENDBRANCH  18  23
BRANCH  21  26
HETATM   26  N8  UNL     1     219.411 -70.526  -7.719  1.00  0.00    -0.383 N
ATOM     27  H82 UNL     1     218.996 -69.785  -7.154  1.00  0.00     0.157 HD
ATOM     28  H81 UNL     1     218.832 -71.212  -8.202  1.00  0.00     0.157 HD
ENDBRANCH  21  26
ENDBRANCH  10  14
ENDBRANCH   7   8
ENDBRANCH   3   7
BRANCH   1  29
HETATM   29  C5  UNL     1     222.266 -65.343  -1.643  1.00  0.00     0.150 C
BRANCH  29  30
HETATM   30  N1  UNL     1     223.069 -64.595  -2.489  1.00  0.00    -0.357 N
ATOM     31  H1  UNL     1     223.015 -63.578  -2.441  1.00  0.00     0.162 HD
BRANCH  30  32
HETATM   32  C4  UNL     1     224.011 -65.215  -3.470  1.00  0.00     0.167 C
BRANCH  32  33
HETATM   33  C2  UNL     1     225.162 -64.307  -3.703  1.00  0.00     0.076 C
HETATM   34  C1  UNL     1     224.842 -62.932  -3.123  1.00  0.00     0.048 C
HETATM   35  C3  UNL     1     226.485 -64.757  -3.209  1.00  0.00     0.048 C
BRANCH  33  36
HETATM   36  O1  UNL     1     225.192 -64.112  -5.121  1.00  0.00    -0.388 OA
ATOM     37  H1  UNL     1     224.486 -64.652  -5.458  1.00  0.00     0.210 HD
ENDBRANCH  33  36
ENDBRANCH  32  33
BRANCH  32  38
HETATM   38  C17 UNL     1     223.238 -65.616  -4.651  1.00  0.00     0.040 A
HETATM   39  C18 UNL     1     223.285 -66.831  -5.256  1.00  0.00     0.044 A
HETATM   40  C19 UNL     1     222.506 -67.130  -6.397  1.00  0.00     0.095 A
HETATM   41  N12 UNL     1     221.691 -66.191  -6.905  1.00  0.00    -0.319 N
HETATM   42  C20 UNL     1     221.645 -65.001  -6.313  1.00  0.00     0.324 A
ATOM     43  H12 UNL     1     221.120 -66.385  -7.727  1.00  0.00     0.170 HD
HETATM   44  O5  UNL     1     220.857 -64.147  -6.833  1.00  0.00    -0.247 OA
HETATM   45  N13 UNL     1     222.381 -64.713  -5.231  1.00  0.00    -0.310 N
ATOM     46  H13 UNL     1     222.301 -63.783  -4.820  1.00  0.00     0.170 HD
ENDBRANCH  32  38
ENDBRANCH  30  32
ENDBRANCH  29  30
BRANCH  29  47
HETATM   47  O2  UNL     1     222.497 -65.129  -0.371  1.00  0.00    -0.346 OA
ATOM     48  H2  UNL     1     222.156 -65.808   0.199  1.00  0.00     0.219 HD
ENDBRANCH  29  47
ENDBRANCH   1  29
BRANCH   6  49
HETATM   49  C16 UNL     1     219.279 -65.004  -2.954  1.00  0.00     0.229 C
HETATM   50  O3  UNL     1     218.039 -64.984  -2.949  1.00  0.00    -0.643 OA
HETATM   51  O4  UNL     1     219.916 -63.867  -3.412  1.00  0.00    -0.643 OA
ENDBRANCH   6  49
TORSDOF 13
ENDMDL