MODEL 4
REMARK VINA RESULT: -5.647600426      0.993      2.346
REMARK  13 active torsions:
REMARK  status: ('A' for Active; 'I' for Inactive)
REMARK    1  A    between atoms: C2_2  and  C3_3
REMARK    2  A    between atoms: C5_6  and  C6_7
REMARK    3  A    between atoms: C6_7  and  O2_8
REMARK    4  A    between atoms: C7_10  and  O3_11
REMARK    5  A    between atoms: C8_13  and  O4_14
REMARK    6  A    between atoms: O4_14  and  C9_15
REMARK    7  A    between atoms: C10_16  and  N1_17
REMARK    8  A    between atoms: C12_22  and  N2_23
REMARK    9  A    between atoms: C13_27  and  O5_28
REMARK   10  A    between atoms: O5_28  and  C14_29
REMARK   11  A    between atoms: C19_34  and  N3_35
REMARK   12  A    between atoms: C20_39  and  N4_40
REMARK   13  A    between atoms: N4_40  and  C21_42
ROOT
HETATM    1  C9  UNL     1      27.884   5.876  10.560  1.00  0.00     0.180 C
HETATM    2  C10 UNL     1      27.368   4.900   9.553  1.00  0.00     0.216 C
HETATM    3  C11 UNL     1      28.433   4.216   8.751  1.00  0.00     0.071 C
HETATM    4  C12 UNL     1      29.829   4.571   9.222  1.00  0.00     0.216 C
HETATM    5  C13 UNL     1      29.951   4.412  10.711  1.00  0.00     0.177 C
HETATM    6  C20 UNL     1      29.081   5.472  11.341  1.00  0.00     0.139 C
ENDROOT
BRANCH   1   7
HETATM    7  O4  UNL     1      26.865   6.180  11.455  1.00  0.00    -0.349 OA
BRANCH   7   8
HETATM    8  C8  UNL     1      25.936   7.080  11.029  1.00  0.00     0.295 C
HETATM    9  C7  UNL     1      25.654   8.024  12.199  1.00  0.00     0.204 C
HETATM   10  C5  UNL     1      26.040   9.442  11.811  1.00  0.00     0.182 C
HETATM   11  O1  UNL     1      25.309   9.737  10.684  1.00  0.00    -0.342 OA
HETATM   12  C3  UNL     1      25.696   8.948   9.643  1.00  0.00     0.182 C
HETATM   13  C4  UNL     1      26.620   9.715   8.672  1.00  0.00     0.084 C
HETATM   14  O6  UNL     1      26.301   7.772   9.898  1.00  0.00    -0.319 OA
BRANCH   9  15
HETATM   15  O3  UNL     1      24.292   8.054  12.502  1.00  0.00    -0.388 OA
ATOM     16  H3  UNL     1      23.913   7.278  12.107  1.00  0.00     0.210 HD
ENDBRANCH   9  15
BRANCH  10  17
HETATM   17  C6  UNL     1      25.624  10.422  12.890  1.00  0.00     0.199 C
BRANCH  17  18
HETATM   18  O2  UNL     1      25.561   9.835  14.145  1.00  0.00    -0.398 OA
ATOM     19  H2  UNL     1      25.824  10.429  14.838  1.00  0.00     0.209 HD
ENDBRANCH  17  18
ENDBRANCH  10  17
BRANCH  12  20
HETATM   20  C2  UNL     1      24.456   8.685   8.826  1.00  0.00     0.030 C
HETATM   21  C1  UNL     1      23.268   9.123   9.220  1.00  0.00     0.012 C
ENDBRANCH  12  20
ENDBRANCH   7   8
ENDBRANCH   1   7
BRANCH   2  22
HETATM   22  N1  UNL     1      26.614   3.862  10.234  1.00  0.00    -0.072 N
ATOM     23  H13 UNL     1      26.668   2.965   9.753  1.00  0.00     0.274 HD
ATOM     24  H12 UNL     1      27.049   3.580  11.112  1.00  0.00     0.274 HD
ATOM     25  H11 UNL     1      25.652   4.174  10.362  1.00  0.00     0.274 HD
ENDBRANCH   2  22
BRANCH   6  26
HETATM   26  N4  UNL     1      29.880   6.503  11.859  1.00  0.00    -0.413 N
ATOM     27  H4  UNL     1      30.810   6.650  11.469  1.00  0.00     0.153 HD
BRANCH  26  28
HETATM   28  C21 UNL     1      29.441   7.333  12.893  1.00  0.00     0.110 C
HETATM   29  C22 UNL     1      30.693   7.704  13.717  1.00  0.00     0.026 C
ENDBRANCH  26  28
ENDBRANCH   6  26
BRANCH   5  30
HETATM   30  O5  UNL     1      31.259   4.687  11.083  1.00  0.00    -0.374 OA
BRANCH  30  31
HETATM   31  C14 UNL     1      31.526   4.530  12.409  1.00  0.00     0.152 C
HETATM   32  C15 UNL     1      32.944   4.911  12.788  1.00  0.00     0.034 C
HETATM   33  C16 UNL     1      32.922   5.062  14.315  1.00  0.00     0.003 C
HETATM   34  C17 UNL     1      32.024   4.030  14.943  1.00  0.00     0.002 C
HETATM   35  C18 UNL     1      32.086   2.781  14.100  1.00  0.00     0.035 C
HETATM   36  C19 UNL     1      31.343   3.085  12.799  1.00  0.00     0.212 C
BRANCH  36  37
HETATM   37  N3  UNL     1      31.772   2.179  11.747  1.00  0.00    -0.073 N
ATOM     38  H33 UNL     1      31.278   2.366  10.874  1.00  0.00     0.274 HD
ATOM     39  H32 UNL     1      32.722   2.389  11.443  1.00  0.00     0.274 HD
ATOM     40  H31 UNL     1      31.679   1.202  12.022  1.00  0.00     0.274 HD
ENDBRANCH  36  37
ENDBRANCH  30  31
ENDBRANCH   5  30
BRANCH   4  41
HETATM   41  N2  UNL     1      30.735   3.740   8.462  1.00  0.00    -0.072 N
ATOM     42  H23 UNL     1      30.270   3.188   7.740  1.00  0.00     0.274 HD
ATOM     43  H22 UNL     1      31.346   4.270   7.840  1.00  0.00     0.274 HD
ATOM     44  H21 UNL     1      31.241   3.174   9.142  1.00  0.00     0.274 HD
ENDBRANCH   4  41
TORSDOF 13
ENDMDL