MODEL 2
REMARK VINA RESULT: -4.691511677      1.535      2.221
REMARK  9 active torsions:
REMARK  status: ('A' for Active; 'I' for Inactive)
REMARK    1  A    between atoms: O1_2  and  C2_3
REMARK    2  A    between atoms: C11_14  and  N1_15
REMARK       I    between atoms: N1_15  and  C12_17
REMARK    3  A    between atoms: C12_17  and  C13_19
REMARK    4  A    between atoms: C13_19  and  N2_21
REMARK       I    between atoms: N2_21  and  C15_23
REMARK    5  A    between atoms: C15_23  and  C16_25
REMARK    6  A    between atoms: C16_25  and  N3_27
REMARK    7  A    between atoms: C18_32  and  N4_33
REMARK    8  A    between atoms: N4_33  and  O7_35
REMARK    9  A    between atoms: C19_37  and  O8_38
ROOT
HETATM    1  C2  UNL     1      31.084   6.167  14.273  1.00  0.00     0.290 C
HETATM    2  O2  UNL     1      30.054   5.258  14.149  1.00  0.00    -0.351 OA
HETATM    3  C3  UNL     1      30.097   4.511  12.987  1.00  0.00     0.159 C
HETATM    4  C4  UNL     1      29.064   3.402  13.136  1.00  0.00     0.043 C
HETATM    5  C5  UNL     1      29.854   5.345  11.752  1.00  0.00     0.135 C
HETATM    6  C6  UNL     1      30.547   4.609  10.595  1.00  0.00     0.211 C
HETATM    7  O3  UNL     1      29.762   3.492  10.336  1.00  0.00    -0.378 OA
HETATM    8  C7  UNL     1      28.851   3.657   9.339  1.00  0.00     0.058 C
HETATM    9  C8  UNL     1      29.471   3.085   8.054  1.00  0.00     0.045 C
HETATM   10  C9  UNL     1      27.585   2.819   9.553  1.00  0.00     0.045 C
HETATM   11  C10 UNL     1      28.440   5.052   9.048  1.00  0.00     0.091 C
HETATM   12  C11 UNL     1      28.182   5.902  10.250  1.00  0.00     0.227 C
HETATM   13  O6  UNL     1      28.506   5.329  11.450  1.00  0.00    -0.349 OA
HETATM   14  C18 UNL     1      30.424   6.701  11.968  1.00  0.00     0.178 C
HETATM   15  C19 UNL     1      31.594   6.704  12.960  1.00  0.00     0.203 C
ENDROOT
BRANCH  12  16
HETATM   16  N1  UNL     1      26.773   6.244  10.278  1.00  0.00    -0.333 N
HETATM   17  C12 UNL     1      26.314   7.579  10.035  1.00  0.00     0.242 C
HETATM   18  O4  UNL     1      27.133   8.499   9.789  1.00  0.00    -0.271 OA
ATOM     19  H1  UNL     1      26.089   5.514  10.477  1.00  0.00     0.165 HD
BRANCH  17  20
HETATM   20  C13 UNL     1      24.875   7.919  10.065  1.00  0.00     0.172 C
HETATM   21  C14 UNL     1      24.533   9.027   9.093  1.00  0.00     0.042 C
BRANCH  20  22
HETATM   22  N2  UNL     1      24.514   8.368  11.380  1.00  0.00    -0.346 N
HETATM   23  C15 UNL     1      23.271   8.055  11.999  1.00  0.00     0.248 C
HETATM   24  O5  UNL     1      22.461   7.341  11.325  1.00  0.00    -0.271 OA
ATOM     25  H2  UNL     1      25.183   8.939  11.896  1.00  0.00     0.163 HD
BRANCH  23  26
HETATM   26  C16 UNL     1      22.934   8.530  13.344  1.00  0.00     0.270 C
HETATM   27  C17 UNL     1      24.123   9.017  14.130  1.00  0.00     0.050 C
BRANCH  26  28
HETATM   28  N3  UNL     1      22.351   7.419  14.099  1.00  0.00    -0.067 N
ATOM     29  H33 UNL     1      21.476   7.087  13.693  1.00  0.00     0.275 HD
ATOM     30  H32 UNL     1      22.887   6.557  14.002  1.00  0.00     0.275 HD
ATOM     31  H31 UNL     1      22.246   7.707  15.072  1.00  0.00     0.275 HD
ENDBRANCH  26  28
ENDBRANCH  23  26
ENDBRANCH  20  22
ENDBRANCH  17  20
ENDBRANCH  12  16
BRANCH  14  32
HETATM   32  N4  UNL     1      29.479   7.624  12.509  1.00  0.00    -0.294 N
ATOM     33  H4  UNL     1      29.115   7.536  13.458  1.00  0.00     0.188 HD
BRANCH  32  34
HETATM   34  O7  UNL     1      29.108   8.600  11.702  1.00  0.00    -0.294 OA
ATOM     35  H7  UNL     1      29.798   8.982  11.173  1.00  0.00     0.244 HD
ENDBRANCH  32  34
ENDBRANCH  14  32
BRANCH  15  36
HETATM   36  O8  UNL     1      32.692   6.055  12.483  1.00  0.00    -0.384 OA
HETATM   37  C20 UNL     1      33.071   5.064  13.384  1.00  0.00     0.202 C
ENDBRANCH  15  36
BRANCH   1  38
HETATM   38  O1  UNL     1      30.596   7.243  15.011  1.00  0.00    -0.363 OA
HETATM   39  C1  UNL     1      30.113   6.842  16.256  1.00  0.00     0.204 C
ENDBRANCH   1  38
TORSDOF 9
ENDMDL