MODEL 4
REMARK VINA RESULT: -1.288745322      1.479      1.998
REMARK  14 active torsions:
REMARK  status: ('A' for Active; 'I' for Inactive)
REMARK    1  A    between atoms: C2_2  and  C3_3
REMARK    2  A    between atoms: C4_4  and  O1_5
REMARK    3  A    between atoms: C5_7  and  O2_8
REMARK    4  A    between atoms: C6_10  and  O3_11
REMARK    5  A    between atoms: O3_11  and  C7_12
REMARK    6  A    between atoms: C8_14  and  C9_15
REMARK    7  A    between atoms: C9_15  and  O5_16
REMARK    8  A    between atoms: C10_18  and  O6_19
REMARK    9  A    between atoms: C11_21  and  O7_22
REMARK   10  A    between atoms: C12_24  and  N1_25
REMARK   11  A    between atoms: C13_29  and  N2_30
REMARK   12  A    between atoms: N2_30  and  N3_32
REMARK   13  A    between atoms: N3_32  and  N4_33
REMARK   14  A    between atoms: C17_39  and  N5_40
ROOT
HETATM    1  C3  UNL     1      28.084   8.062  11.766  1.00  0.00     0.045 C
HETATM    2  C4  UNL     1      29.595   8.088  11.878  1.00  0.00     0.157 C
HETATM    3  C5  UNL     1      30.185   6.941  12.605  1.00  0.00     0.178 C
HETATM    4  C6  UNL     1      30.065   5.609  11.906  1.00  0.00     0.181 C
HETATM    5  C13 UNL     1      28.753   4.941  12.060  1.00  0.00     0.150 C
HETATM    6  C14 UNL     1      27.542   5.591  11.536  1.00  0.00     0.020 C
HETATM    7  C15 UNL     1      27.005   4.769  10.355  1.00  0.00     0.009 C
HETATM    8  C16 UNL     1      26.309   5.746   9.429  1.00  0.00     0.036 C
HETATM    9  C17 UNL     1      26.449   7.076  10.099  1.00  0.00     0.227 C
HETATM   10  C20 UNL     1      27.686   6.928  10.914  1.00  0.00     0.035 C
ENDROOT
BRANCH   4  11
HETATM   11  O3  UNL     1      30.581   5.618  10.614  1.00  0.00    -0.349 OA
BRANCH  11  12
HETATM   12  C7  UNL     1      30.307   4.497   9.873  1.00  0.00     0.294 C
HETATM   13  O4  UNL     1      29.556   4.830   8.730  1.00  0.00    -0.349 OA
HETATM   14  C8  UNL     1      29.035   3.688   8.159  1.00  0.00     0.179 C
HETATM   15  C10 UNL     1      30.055   2.621   7.939  1.00  0.00     0.180 C
HETATM   16  C11 UNL     1      31.430   3.221   8.061  1.00  0.00     0.184 C
HETATM   17  C12 UNL     1      31.569   3.775   9.464  1.00  0.00     0.269 C
BRANCH  14  18
HETATM   18  C9  UNL     1      28.330   3.965   6.859  1.00  0.00     0.198 C
BRANCH  18  19
HETATM   19  O5  UNL     1      28.998   4.843   6.029  1.00  0.00    -0.398 OA
ATOM     20  H5  UNL     1      29.511   4.422   5.349  1.00  0.00     0.209 HD
ENDBRANCH  18  19
ENDBRANCH  14  18
BRANCH  15  21
HETATM   21  O6  UNL     1      29.897   1.964   6.719  1.00  0.00    -0.390 OA
ATOM     22  H6  UNL     1      29.184   2.317   6.199  1.00  0.00     0.210 HD
ENDBRANCH  15  21
BRANCH  16  23
HETATM   23  O7  UNL     1      31.727   4.158   7.086  1.00  0.00    -0.391 OA
ATOM     24  H7  UNL     1      32.306   3.838   6.404  1.00  0.00     0.210 HD
ENDBRANCH  16  23
BRANCH  17  25
HETATM   25  N1  UNL     1      31.862   2.637  10.326  1.00  0.00    -0.068 N
ATOM     26  H13 UNL     1      31.573   2.820  11.288  1.00  0.00     0.275 HD
ATOM     27  H12 UNL     1      31.248   1.850  10.118  1.00  0.00     0.275 HD
ATOM     28  H11 UNL     1      32.843   2.360  10.283  1.00  0.00     0.275 HD
ENDBRANCH  17  25
ENDBRANCH  11  12
ENDBRANCH   4  11
BRANCH   3  29
HETATM   29  O2  UNL     1      29.790   6.772  13.908  1.00  0.00    -0.390 OA
ATOM     30  H2  UNL     1      30.453   6.911  14.574  1.00  0.00     0.210 HD
ENDBRANCH   3  29
BRANCH   5  31
HETATM   31  N2  UNL     1      28.614   4.616  13.492  1.00  0.00    -0.245 N
ATOM     32  H2  UNL     1      27.765   4.891  13.985  1.00  0.00     0.197 HD
BRANCH  31  33
HETATM   33  N3  UNL     1      29.497   4.021  14.103  1.00  0.00    -0.248 NA
BRANCH  33  34
HETATM   34  N4  UNL     1      30.302   3.627  14.934  1.00  0.00    -0.261 N
ATOM     35  H42 UNL     1      30.984   3.368  14.221  1.00  0.00     0.193 HD
ATOM     36  H41 UNL     1      30.791   3.369  15.791  1.00  0.00     0.193 HD
ENDBRANCH  33  34
ENDBRANCH  31  33
ENDBRANCH   5  31
BRANCH   2  37
HETATM   37  O1  UNL     1      30.043   9.275  12.442  1.00  0.00    -0.392 OA
ATOM     38  H1  UNL     1      29.318   9.827  12.711  1.00  0.00     0.210 HD
ENDBRANCH   2  37
BRANCH   1  39
HETATM   39  C2  UNL     1      27.416   8.219  13.057  1.00  0.00    -0.029 C
HETATM   40  C1  UNL     1      26.426   9.088  13.262  1.00  0.00     0.007 C
ENDBRANCH   1  39
BRANCH   9  41
HETATM   41  N5  UNL     1      25.272   7.588  10.687  1.00  0.00     0.085 N
HETATM   42  C18 UNL     1      24.971   8.884   9.990  1.00  0.00     0.309 C
HETATM   43  C19 UNL     1      24.060   6.837  10.444  1.00  0.00     0.309 C
ENDBRANCH   9  41
TORSDOF 14
ENDMDL