MODEL 2
REMARK VINA RESULT: -8.372749992      0.628      1.604
REMARK  11 active torsions:
REMARK  status: ('A' for Active; 'I' for Inactive)
REMARK       I    between atoms: C2_2  and  N1_4
REMARK    1  A    between atoms: N1_4  and  C3_6
REMARK    2  A    between atoms: C4_8  and  C5_9
REMARK    3  A    between atoms: C5_9  and  O3_10
REMARK    4  A    between atoms: O3_10  and  S1_11
REMARK    5  A    between atoms: S1_11  and  N2_14
REMARK    6  A    between atoms: N2_14  and  N3_16
REMARK    7  A    between atoms: C6_19  and  C7_20
REMARK    8  A    between atoms: C7_20  and  N4_21
REMARK    9  A    between atoms: N4_21  and  C8_23
REMARK   10  A    between atoms: C17_32  and  O6_33
REMARK   11  A    between atoms: C18_35  and  O7_36
ROOT
HETATM    1  C3  UNL     1      27.894   8.102  12.173  1.00  0.00     0.261 C
HETATM    2  O2  UNL     1      29.220   8.352  12.063  1.00  0.00    -0.325 OA
HETATM    3  C4  UNL     1      30.069   7.259  12.142  1.00  0.00     0.084 C
HETATM    4  C6  UNL     1      29.614   6.141  11.291  1.00  0.00     0.020 C
HETATM    5  C17 UNL     1      28.173   5.763  11.496  1.00  0.00     0.188 C
HETATM    6  C18 UNL     1      27.374   7.026  11.255  1.00  0.00     0.200 C
ENDROOT
BRANCH   4   7
HETATM    7  C7  UNL     1      30.530   4.984  11.117  1.00  0.00     0.095 C
BRANCH   7   8
HETATM    8  N4  UNL     1      30.059   3.777  10.648  1.00  0.00    -0.394 N
ATOM      9  H4  UNL     1      29.762   3.049  11.298  1.00  0.00     0.159 HD
BRANCH   8  10
HETATM   10  C8  UNL     1      29.992   3.562   9.235  1.00  0.00     0.081 C
HETATM   11  C9  UNL     1      30.676   2.313   8.785  1.00  0.00     0.025 C
HETATM   12  C10 UNL     1      31.899   2.486   7.983  1.00  0.00     0.002 C
HETATM   13  C11 UNL     1      31.824   3.405   6.813  1.00  0.00     0.000 C
HETATM   14  C12 UNL     1      31.099   2.879   5.632  1.00  0.00     0.000 C
HETATM   15  C13 UNL     1      29.643   2.783   5.670  1.00  0.00     0.000 C
HETATM   16  C14 UNL     1      28.897   3.817   6.453  1.00  0.00     0.000 C
HETATM   17  C15 UNL     1      28.156   3.115   7.560  1.00  0.00     0.002 C
HETATM   18  C16 UNL     1      28.512   3.570   8.928  1.00  0.00     0.025 C
ENDBRANCH   8  10
ENDBRANCH   7   8
ENDBRANCH   4   7
BRANCH   3  19
HETATM   19  C5  UNL     1      30.548   6.980  13.519  1.00  0.00     0.257 C
BRANCH  19  20
HETATM   20  O3  UNL     1      31.340   5.842  13.655  1.00  0.00    -0.252 OA
BRANCH  20  21
HETATM   21  S1  UNL     1      30.726   4.898  14.883  1.00  0.00     0.375 S
HETATM   22  O4  UNL     1      30.047   5.737  15.930  1.00  0.00    -0.174 OA
HETATM   23  O5  UNL     1      31.856   4.149  15.550  1.00  0.00    -0.174 OA
BRANCH  21  24
HETATM   24  N2  UNL     1      29.603   3.733  14.233  1.00  0.00    -0.211 N
ATOM     25  H2  UNL     1      29.442   3.561  13.241  1.00  0.00     0.201 HD
BRANCH  24  26
HETATM   26  N3  UNL     1      28.949   3.062  15.296  1.00  0.00    -0.334 N
ATOM     27  H32 UNL     1      28.516   2.142  15.219  1.00  0.00     0.177 HD
ATOM     28  H31 UNL     1      28.983   3.641  16.136  1.00  0.00     0.177 HD
ENDBRANCH  24  26
ENDBRANCH  21  24
ENDBRANCH  20  21
ENDBRANCH  19  20
ENDBRANCH   3  19
BRANCH   5  29
HETATM   29  O6  UNL     1      27.834   5.293  12.732  1.00  0.00    -0.388 OA
ATOM     30  H6  UNL     1      26.963   4.927  12.824  1.00  0.00     0.210 HD
ENDBRANCH   5  29
BRANCH   6  31
HETATM   31  O7  UNL     1      27.389   7.403   9.917  1.00  0.00    -0.388 OA
ATOM     32  H7  UNL     1      28.062   8.044   9.721  1.00  0.00     0.210 HD
ENDBRANCH   6  31
BRANCH   1  33
HETATM   33  N1  UNL     1      27.189   9.329  11.778  1.00  0.00    -0.332 N
HETATM   34  C2  UNL     1      26.265   9.973  12.649  1.00  0.00     0.215 C
HETATM   35  C1  UNL     1      25.570  11.209  12.223  1.00  0.00     0.117 C
HETATM   36  O1  UNL     1      26.023   9.496  13.811  1.00  0.00    -0.274 OA
ATOM     37  H1  UNL     1      27.365   9.730  10.856  1.00  0.00     0.165 HD
ENDBRANCH   1  33
TORSDOF 11
ENDMDL