MODEL 4
REMARK VINA RESULT: -8.584353928      1.585      2.032
REMARK  9 active torsions:
REMARK  status: ('A' for Active; 'I' for Inactive)
REMARK    1  A    between atoms: S1_2  and  C2_3
REMARK    2  A    between atoms: C2_3  and  C3_4
REMARK    3  A    between atoms: C4_6  and  O2_7
REMARK    4  A    between atoms: O2_7  and  C5_8
REMARK    5  A    between atoms: C6_10  and  O4_11
REMARK    6  A    between atoms: O4_11  and  C7_12
REMARK    7  A    between atoms: C10_16  and  N1_17
REMARK       I    between atoms: N1_17  and  C11_19
REMARK    8  A    between atoms: C12_24  and  N4_25
REMARK       I    between atoms: N4_25  and  C13_27
REMARK    9  A    between atoms: C16_32  and  O8_34
ROOT
HETATM    1  C5  UNL     1      28.471   6.173  11.187  1.00  0.00     0.293 C
HETATM    2  O3  UNL     1      28.711   5.462  10.006  1.00  0.00    -0.329 OA
HETATM    3  C6  UNL     1      28.498   4.081  10.196  1.00  0.00     0.274 C
HETATM    4  C9  UNL     1      29.423   3.496  11.209  1.00  0.00     0.088 C
HETATM    5  C10 UNL     1      29.241   4.300  12.505  1.00  0.00     0.116 C
HETATM    6  C12 UNL     1      29.514   5.743  12.160  1.00  0.00     0.162 C
ENDROOT
BRANCH   1   7
HETATM    7  O2  UNL     1      28.553   7.522  10.854  1.00  0.00    -0.306 OA
BRANCH   7   8
HETATM    8  C4  UNL     1      27.574   8.272  11.491  1.00  0.00     0.415 C
HETATM    9  O1  UNL     1      26.616   7.445  12.079  1.00  0.00    -0.330 OA
HETATM   10  C3  UNL     1      25.380   8.186  12.150  1.00  0.00     0.172 C
HETATM   11  C16 UNL     1      24.791   8.136  10.797  1.00  0.00     0.102 C
HETATM   12  C15 UNL     1      25.972   8.560   9.858  1.00  0.00     0.213 C
HETATM   13  C17 UNL     1      24.387   6.772  10.336  1.00  0.00     0.051 C
HETATM   14  O7  UNL     1      26.954   9.187  10.612  1.00  0.00    -0.336 OA
BRANCH  10  15
HETATM   15  C2  UNL     1      24.633   7.786  13.344  1.00  0.00     0.108 C
BRANCH  15  16
HETATM   16  S1  UNL     1      22.932   8.240  13.389  1.00  0.00    -0.171 SA
HETATM   17  C1  UNL     1      22.062   8.016  14.910  1.00  0.00     0.089 C
ENDBRANCH  15  16
ENDBRANCH  10  15
BRANCH  11  18
HETATM   18  O8  UNL     1      23.769   9.032  10.567  1.00  0.00    -0.385 OA
ATOM     19  H8  UNL     1      23.844   9.535   9.764  1.00  0.00     0.210 HD
ENDBRANCH  11  18
ENDBRANCH   7   8
ENDBRANCH   1   7
BRANCH   6  20
HETATM   20  N4  UNL     1      29.661   6.595  13.304  1.00  0.00    -0.350 N
HETATM   21  C13 UNL     1      30.817   7.292  13.664  1.00  0.00     0.214 C
HETATM   22  C14 UNL     1      30.842   8.137  14.867  1.00  0.00     0.117 C
HETATM   23  O6  UNL     1      31.838   7.194  12.955  1.00  0.00    -0.274 OA
ATOM     24  H4  UNL     1      28.848   6.703  13.910  1.00  0.00     0.163 HD
ENDBRANCH   6  20
BRANCH   3  25
HETATM   25  O4  UNL     1      28.509   3.499   8.948  1.00  0.00    -0.290 OA
BRANCH  25  26
HETATM   26  C7  UNL     1      29.473   3.655   7.974  1.00  0.00     0.257 C
HETATM   27  C8  UNL     1      30.771   2.964   7.961  1.00  0.00     0.126 C
HETATM   28  O5  UNL     1      29.206   4.444   7.045  1.00  0.00    -0.266 OA
ENDBRANCH  25  26
ENDBRANCH   3  25
BRANCH   5  29
HETATM   29  N1  UNL     1      30.134   3.810  13.532  1.00  0.00    -0.358 N
HETATM   30  C11 UNL     1      29.662   3.834  14.879  1.00  0.00     0.182 C
HETATM   31  N2  UNL     1      29.050   2.829  15.368  1.00  0.00    -0.374 N
HETATM   32  N3  UNL     1      29.850   4.965  15.715  1.00  0.00    -0.064 NA
ATOM     33  H22 UNL     1      28.914   2.016  14.767  1.00  0.00     0.158 HD
ATOM     34  H21 UNL     1      28.713   2.846  16.330  1.00  0.00     0.158 HD
ATOM     35  H1  UNL     1      31.064   3.460  13.302  1.00  0.00     0.162 HD
ENDBRANCH   5  29
TORSDOF 9
ENDMDL