MODEL 5
REMARK VINA RESULT: -8.132589010      3.215      7.984
REMARK  12 active torsions:
REMARK  status: ('A' for Active; 'I' for Inactive)
REMARK       I    between atoms: C1_2  and  N1_3
REMARK    1  A    between atoms: C1_2  and  C8_11
REMARK    2  A    between atoms: N1_3  and  C2_5
REMARK    3  A    between atoms: C10_13  and  O2_14
REMARK    4  A    between atoms: C11_16  and  C12_17
REMARK    5  A    between atoms: C12_17  and  S1_18
REMARK    6  A    between atoms: S1_18  and  C13_19
REMARK    7  A    between atoms: C13_19  and  C14_20
REMARK    8  A    between atoms: C15_22  and  C16_23
REMARK    9  A    between atoms: C16_23  and  O4_24
REMARK   10  A    between atoms: C17_26  and  O5_27
REMARK   11  A    between atoms: C18_29  and  O6_30
REMARK   12  A    between atoms: C19_32  and  O7_33
ROOT
HETATM    1  C12 UNL     1      30.981   2.937   9.175  1.00  0.00     0.091 C
ENDROOT
BRANCH   1   2
HETATM    2  C11 UNL     1      29.967   4.008   9.286  1.00  0.00     0.086 C
HETATM    3  C10 UNL     1      28.931   4.121   8.217  1.00  0.00     0.134 C
HETATM    4  C9  UNL     1      27.956   5.190   8.743  1.00  0.00     0.057 C
HETATM    5  C8  UNL     1      27.405   4.684  10.032  1.00  0.00     0.142 C
HETATM    6  S2  UNL     1      28.840   3.767  10.732  1.00  0.00    -0.146 SA
BRANCH   3   7
HETATM    7  O2  UNL     1      28.208   2.960   8.030  1.00  0.00    -0.394 OA
ATOM      8  H2  UNL     1      27.633   3.100   7.287  1.00  0.00     0.210 HD
ENDBRANCH   3   7
BRANCH   5   9
HETATM    9  C1  UNL     1      27.171   5.825  10.951  1.00  0.00     0.232 C
HETATM   10  O1  UNL     1      27.832   5.873  12.018  1.00  0.00    -0.272 OA
HETATM   11  N1  UNL     1      26.247   6.855  10.683  1.00  0.00    -0.355 N
ATOM     12  H1  UNL     1      25.701   6.837   9.822  1.00  0.00     0.162 HD
BRANCH  11  13
HETATM   13  C2  UNL     1      26.075   7.928  11.619  1.00  0.00     0.084 C
HETATM   14  C3  UNL     1      24.810   7.751  12.453  1.00  0.00     0.025 C
HETATM   15  C4  UNL     1      24.400   9.079  13.048  1.00  0.00     0.002 C
HETATM   16  C5  UNL     1      25.650   9.906  13.261  1.00  0.00     0.000 C
HETATM   17  C6  UNL     1      26.122  10.366  11.895  1.00  0.00     0.002 C
HETATM   18  C7  UNL     1      25.935   9.264  10.904  1.00  0.00     0.025 C
ENDBRANCH  11  13
ENDBRANCH   5   9
ENDBRANCH   1   2
BRANCH   1  19
HETATM   19  S1  UNL     1      32.038   2.835  10.564  1.00  0.00    -0.165 SA
BRANCH  19  20
HETATM   20  C13 UNL     1      32.808   4.206  11.303  1.00  0.00     0.108 C
BRANCH  20  21
HETATM   21  C14 UNL     1      32.477   4.448  12.750  1.00  0.00     0.162 C
HETATM   22  O3  UNL     1      31.643   5.570  12.793  1.00  0.00    -0.372 OA
HETATM   23  C15 UNL     1      31.347   5.928  14.097  1.00  0.00     0.176 C
HETATM   24  C17 UNL     1      30.479   4.821  14.679  1.00  0.00     0.180 C
HETATM   25  C18 UNL     1      31.318   3.576  14.783  1.00  0.00     0.180 C
HETATM   26  C19 UNL     1      32.028   3.264  13.472  1.00  0.00     0.179 C
BRANCH  23  27
HETATM   27  C16 UNL     1      30.536   7.213  14.073  1.00  0.00     0.198 C
BRANCH  27  28
HETATM   28  O4  UNL     1      30.056   7.437  12.798  1.00  0.00    -0.398 OA
ATOM     29  H4  UNL     1      29.121   7.272  12.774  1.00  0.00     0.209 HD
ENDBRANCH  27  28
ENDBRANCH  23  27
BRANCH  24  30
HETATM   30  O5  UNL     1      29.441   4.611  13.771  1.00  0.00    -0.390 OA
ATOM     31  H5  UNL     1      29.800   4.780  12.907  1.00  0.00     0.210 HD
ENDBRANCH  24  30
BRANCH  25  32
HETATM   32  O6  UNL     1      32.207   3.660  15.844  1.00  0.00    -0.390 OA
ATOM     33  H6  UNL     1      31.941   3.093  16.559  1.00  0.00     0.210 HD
ENDBRANCH  25  32
BRANCH  26  34
HETATM   34  O7  UNL     1      33.190   2.549  13.880  1.00  0.00    -0.390 OA
ATOM     35  H7  UNL     1      33.720   3.142  14.398  1.00  0.00     0.210 HD
ENDBRANCH  26  34
ENDBRANCH  20  21
ENDBRANCH  19  20
ENDBRANCH   1  19
TORSDOF 12
ENDMDL