MODEL 4
REMARK VINA RESULT: -7.144363260      1.225      1.619
REMARK  10 active torsions:
REMARK  status: ('A' for Active; 'I' for Inactive)
REMARK    1  A    between atoms: S1_2  and  C2_3
REMARK    2  A    between atoms: C2_3  and  C3_4
REMARK       I    between atoms: C3_4  and  N1_6
REMARK    3  A    between atoms: N1_6  and  C4_8
REMARK    4  A    between atoms: C7_14  and  O2_15
REMARK    5  A    between atoms: O2_15  and  C8_16
REMARK    6  A    between atoms: C10_18  and  O3_19
REMARK    7  A    between atoms: C12_23  and  O5_24
REMARK    8  A    between atoms: C13_26  and  O6_27
REMARK    9  A    between atoms: O6_27  and  C14_28
REMARK   10  A    between atoms: C20_35  and  O8_36
ROOT
HETATM    1  C4  UNL     1      30.199   5.574  11.822  1.00  0.00     0.146 C
HETATM    2  C5  UNL     1      29.380   6.651  12.473  1.00  0.00     0.210 C
HETATM    3  C6  UNL     1      30.316   7.766  12.890  1.00  0.00     0.042 C
HETATM    4  N2  UNL     1      28.369   7.203  11.639  1.00  0.00    -0.040 N
ATOM      5  H21 UNL     1      28.712   7.348  10.689  1.00  0.00     0.280 HD
ATOM      6  H22 UNL     1      28.173   8.172  11.888  1.00  0.00     0.280 HD
HETATM    7  C7  UNL     1      27.181   6.416  11.646  1.00  0.00     0.355 C
HETATM    8  C12 UNL     1      27.171   5.320  10.584  1.00  0.00     0.206 C
HETATM    9  C13 UNL     1      28.561   4.951  10.122  1.00  0.00     0.185 C
HETATM   10  C20 UNL     1      29.354   4.443  11.283  1.00  0.00     0.174 C
ENDROOT
BRANCH   7  11
HETATM   11  O2  UNL     1      26.030   7.155  11.536  1.00  0.00    -0.326 OA
BRANCH  11  12
HETATM   12  C8  UNL     1      25.865   7.589  10.245  1.00  0.00     0.265 C
HETATM   13  C9  UNL     1      26.174   9.055  10.066  1.00  0.00     0.094 C
HETATM   14  C10 UNL     1      24.937   9.566   9.364  1.00  0.00     0.146 C
HETATM   15  C11 UNL     1      23.892   8.579   9.857  1.00  0.00     0.202 C
HETATM   16  O4  UNL     1      24.554   7.380   9.850  1.00  0.00    -0.359 OA
BRANCH  14  17
HETATM   17  O3  UNL     1      25.040   9.512   7.985  1.00  0.00    -0.393 OA
ATOM     18  H3  UNL     1      24.821  10.335   7.565  1.00  0.00     0.210 HD
ENDBRANCH  14  17
ENDBRANCH  11  12
ENDBRANCH   7  11
BRANCH   8  19
HETATM   19  O5  UNL     1      26.425   5.836   9.526  1.00  0.00    -0.388 OA
ATOM     20  H5  UNL     1      26.688   6.745   9.450  1.00  0.00     0.210 HD
ENDBRANCH   8  19
BRANCH   9  21
HETATM   21  O6  UNL     1      28.495   4.108   9.045  1.00  0.00    -0.373 OA
BRANCH  21  22
HETATM   22  C14 UNL     1      29.294   4.384   7.974  1.00  0.00     0.145 C
HETATM   23  C15 UNL     1      30.588   3.594   8.229  1.00  0.00     0.034 C
HETATM   24  C16 UNL     1      31.494   3.554   7.047  1.00  0.00     0.005 C
HETATM   25  C17 UNL     1      31.199   2.260   6.308  1.00  0.00     0.026 C
HETATM   26  C18 UNL     1      29.961   2.455   5.487  1.00  0.00     0.167 C
HETATM   27  O7  UNL     1      29.502   3.746   5.643  1.00  0.00    -0.389 OA
HETATM   28  C19 UNL     1      28.620   3.900   6.711  1.00  0.00     0.199 C
ENDBRANCH  21  22
ENDBRANCH   9  21
BRANCH   1  29
HETATM   29  N1  UNL     1      31.119   5.045  12.823  1.00  0.00    -0.351 N
HETATM   30  C3  UNL     1      32.136   4.110  12.496  1.00  0.00     0.227 C
HETATM   31  O1  UNL     1      32.289   3.695  11.324  1.00  0.00    -0.273 OA
ATOM     32  H1  UNL     1      31.027   5.356  13.790  1.00  0.00     0.163 HD
BRANCH  30  33
HETATM   33  C2  UNL     1      33.042   3.605  13.551  1.00  0.00     0.176 C
BRANCH  33  34
HETATM   34  S1  UNL     1      32.166   2.933  14.962  1.00  0.00    -0.164 SA
HETATM   35  C1  UNL     1      30.774   4.061  15.362  1.00  0.00     0.090 C
ENDBRANCH  33  34
ENDBRANCH  30  33
ENDBRANCH   1  29
BRANCH  10  36
HETATM   36  O8  UNL     1      28.630   3.899  12.304  1.00  0.00    -0.391 OA
ATOM     37  H8  UNL     1      28.049   4.560  12.661  1.00  0.00     0.210 HD
ENDBRANCH  10  36
TORSDOF 10
ENDMDL