MODEL 4
REMARK VINA RESULT: -8.200025155      1.750      6.770
REMARK  13 active torsions:
REMARK  status: ('A' for Active; 'I' for Inactive)
REMARK    1  A    between atoms: C6_7  and  O2_8
REMARK    2  A    between atoms: O2_8  and  C7_9
REMARK    3  A    between atoms: C7_9  and  C8_10
REMARK    4  A    between atoms: C8_10  and  C9_11
REMARK    5  A    between atoms: C9_11  and  O3_12
REMARK    6  A    between atoms: C15_19  and  O4_20
REMARK    7  A    between atoms: O4_20  and  C16_21
REMARK    8  A    between atoms: C17_23  and  C18_24
REMARK    9  A    between atoms: C18_24  and  O6_25
REMARK   10  A    between atoms: C19_27  and  O7_28
REMARK   11  A    between atoms: C20_30  and  O8_31
REMARK   12  A    between atoms: C21_33  and  O9_34
REMARK   13  A    between atoms: C22_36  and  O10_37
ROOT
HETATM    1  C1  UNL     1      31.545   3.200   8.590  1.00  0.00     0.013 C
HETATM    2  C2  UNL     1      30.357   3.399   8.650  1.00  0.00    -0.103 C
HETATM    3  C3  UNL     1      28.900   3.665   8.708  1.00  0.00     0.069 C
HETATM    4  C4  UNL     1      28.229   2.605   7.877  1.00  0.00     0.034 C
HETATM    5  C5  UNL     1      28.577   5.060   8.282  1.00  0.00     0.196 C
HETATM    6  O1  UNL     1      27.744   5.636   9.229  1.00  0.00    -0.357 OA
HETATM    7  C6  UNL     1      28.498   5.961  10.378  1.00  0.00     0.291 C
HETATM    8  C15 UNL     1      29.011   4.707  10.956  1.00  0.00     0.210 C
HETATM    9  C22 UNL     1      28.513   3.529  10.167  1.00  0.00     0.174 C
ENDROOT
BRANCH   9  10
HETATM   10  O10 UNL     1      27.139   3.392  10.342  1.00  0.00    -0.391 OA
ATOM     11  H10 UNL     1      26.660   4.163  10.064  1.00  0.00     0.210 HD
ENDBRANCH   9  10
BRANCH   8  12
HETATM   12  O4  UNL     1      30.363   4.584  11.113  1.00  0.00    -0.346 OA
BRANCH  12  13
HETATM   13  C16 UNL     1      30.834   4.861  12.390  1.00  0.00     0.292 C
HETATM   14  O5  UNL     1      30.024   4.172  13.260  1.00  0.00    -0.348 OA
HETATM   15  C17 UNL     1      30.376   4.196  14.593  1.00  0.00     0.179 C
HETATM   16  C19 UNL     1      31.725   3.549  14.827  1.00  0.00     0.180 C
HETATM   17  C20 UNL     1      32.396   3.298  13.478  1.00  0.00     0.183 C
HETATM   18  C21 UNL     1      32.259   4.485  12.587  1.00  0.00     0.204 C
BRANCH  15  19
HETATM   19  C18 UNL     1      30.398   5.617  15.090  1.00  0.00     0.198 C
BRANCH  19  20
HETATM   20  O6  UNL     1      29.765   5.741  16.331  1.00  0.00    -0.398 OA
ATOM     21  H6  UNL     1      29.919   6.594  16.721  1.00  0.00     0.209 HD
ENDBRANCH  19  20
ENDBRANCH  15  19
BRANCH  16  22
HETATM   22  O7  UNL     1      32.523   4.459  15.501  1.00  0.00    -0.390 OA
ATOM     23  H7  UNL     1      32.449   5.297  15.060  1.00  0.00     0.210 HD
ENDBRANCH  16  22
BRANCH  17  24
HETATM   24  O8  UNL     1      31.821   2.197  12.851  1.00  0.00    -0.390 OA
ATOM     25  H8  UNL     1      32.493   1.576  12.594  1.00  0.00     0.210 HD
ENDBRANCH  17  24
BRANCH  18  26
HETATM   26  O9  UNL     1      32.946   4.286  11.388  1.00  0.00    -0.388 OA
ATOM     27  H9  UNL     1      33.885   4.405  11.471  1.00  0.00     0.210 HD
ENDBRANCH  18  26
ENDBRANCH  12  13
ENDBRANCH   8  12
BRANCH   7  28
HETATM   28  O2  UNL     1      27.584   6.640  11.210  1.00  0.00    -0.358 OA
BRANCH  28  29
HETATM   29  C7  UNL     1      26.471   6.915  10.455  1.00  0.00     0.182 C
BRANCH  29  30
HETATM   30  C8  UNL     1      25.956   8.315  10.621  1.00  0.00     0.003 C
HETATM   31  C10 UNL     1      24.684   8.220  11.460  1.00  0.00     0.014 C
HETATM   32  C11 UNL     1      25.119   8.234  12.908  1.00  0.00     0.001 C
HETATM   33  C12 UNL     1      25.473   9.682  13.244  1.00  0.00     0.000 C
HETATM   34  C13 UNL     1      26.343  10.247  12.162  1.00  0.00     0.001 C
HETATM   35  C14 UNL     1      27.003   9.139  11.351  1.00  0.00     0.014 C
BRANCH  30  36
HETATM   36  C9  UNL     1      25.583   8.954   9.313  1.00  0.00     0.175 C
BRANCH  36  37
HETATM   37  O3  UNL     1      26.723   9.495   8.735  1.00  0.00    -0.400 OA
ATOM     38  H3  UNL     1      26.840  10.381   9.055  1.00  0.00     0.209 HD
ENDBRANCH  36  37
ENDBRANCH  30  36
ENDBRANCH  29  30
ENDBRANCH  28  29
ENDBRANCH   7  28
TORSDOF 13
ENDMDL