MODEL 2
REMARK VINA RESULT: -7.963985794      2.270      5.078
REMARK  11 active torsions:
REMARK  status: ('A' for Active; 'I' for Inactive)
REMARK    1  A    between atoms: O1_2  and  C2_3
REMARK    2  A    between atoms: C2_3  and  C3_4
REMARK    3  A    between atoms: C5_6  and  N1_7
REMARK       I    between atoms: N1_7  and  C6_9
REMARK    4  A    between atoms: C8_12  and  O3_13
REMARK    5  A    between atoms: C9_15  and  O4_16
REMARK    6  A    between atoms: O4_16  and  C10_17
REMARK    7  A    between atoms: C13_21  and  O6_22
REMARK    8  A    between atoms: C14_24  and  O7_25
REMARK    9  A    between atoms: C15_27  and  N2_28
REMARK   10  A    between atoms: N2_28  and  C16_30
REMARK   11  A    between atoms: C21_35  and  O8_36
ROOT
HETATM    1  C10 UNL     1      28.881   4.352   9.965  1.00  0.00     0.288 C
HETATM    2  O5  UNL     1      28.268   3.845   8.763  1.00  0.00    -0.351 OA
HETATM    3  C11 UNL     1      29.124   3.193   7.943  1.00  0.00     0.152 C
HETATM    4  C12 UNL     1      28.486   3.033   6.599  1.00  0.00     0.042 C
HETATM    5  C13 UNL     1      30.412   3.982   7.886  1.00  0.00     0.177 C
HETATM    6  C14 UNL     1      31.143   3.662   9.163  1.00  0.00     0.176 C
HETATM    7  C15 UNL     1      30.098   3.642  10.289  1.00  0.00     0.164 C
ENDROOT
BRANCH   1   8
HETATM    8  O4  UNL     1      27.836   4.262  10.865  1.00  0.00    -0.327 OA
BRANCH   8   9
HETATM    9  C9  UNL     1      27.431   5.524  11.306  1.00  0.00     0.294 C
HETATM   10  C8  UNL     1      26.409   6.226  10.506  1.00  0.00     0.196 C
HETATM   11  C5  UNL     1      26.627   7.752  10.524  1.00  0.00     0.120 C
HETATM   12  C4  UNL     1      27.157   8.132  11.879  1.00  0.00     0.062 C
HETATM   13  C3  UNL     1      28.415   7.357  12.146  1.00  0.00     0.150 C
HETATM   14  O9  UNL     1      28.601   6.358  11.204  1.00  0.00    -0.351 OA
BRANCH  10  15
HETATM   15  O3  UNL     1      26.422   5.889   9.154  1.00  0.00    -0.389 OA
ATOM     16  H3  UNL     1      27.245   5.432   9.031  1.00  0.00     0.210 HD
ENDBRANCH  10  15
BRANCH  11  17
HETATM   17  N1  UNL     1      25.326   8.339  10.256  1.00  0.00    -0.354 N
HETATM   18  C6  UNL     1      25.046   9.161   9.140  1.00  0.00     0.214 C
HETATM   19  C7  UNL     1      23.673   9.698   8.984  1.00  0.00     0.117 C
HETATM   20  O2  UNL     1      25.902   9.459   8.275  1.00  0.00    -0.274 OA
ATOM     21  H1  UNL     1      24.569   8.147  10.912  1.00  0.00     0.162 HD
ENDBRANCH  11  17
BRANCH  13  22
HETATM   22  C2  UNL     1      29.625   8.249  12.284  1.00  0.00     0.199 C
BRANCH  22  23
HETATM   23  O1  UNL     1      30.731   7.600  12.773  1.00  0.00    -0.393 OA
HETATM   24  C1  UNL     1      30.783   7.814  14.150  1.00  0.00     0.201 C
ENDBRANCH  22  23
ENDBRANCH  13  22
ENDBRANCH   8   9
ENDBRANCH   1   8
BRANCH   7  25
HETATM   25  N2  UNL     1      30.791   4.074  11.441  1.00  0.00    -0.404 N
ATOM     26  H2  UNL     1      31.100   5.045  11.495  1.00  0.00     0.154 HD
BRANCH  25  27
HETATM   27  C16 UNL     1      31.070   3.219  12.508  1.00  0.00     0.105 C
HETATM   28  C17 UNL     1      32.480   3.364  13.062  1.00  0.00     0.027 C
HETATM   29  C18 UNL     1      32.717   4.680  13.738  1.00  0.00     0.002 C
HETATM   30  C19 UNL     1      31.940   4.674  15.055  1.00  0.00     0.003 C
HETATM   31  C20 UNL     1      30.874   3.599  14.996  1.00  0.00     0.034 C
HETATM   32  C21 UNL     1      30.145   3.609  13.672  1.00  0.00     0.140 C
BRANCH  32  33
HETATM   33  O8  UNL     1      29.567   4.844  13.504  1.00  0.00    -0.394 OA
ATOM     34  H8  UNL     1      30.039   5.536  13.951  1.00  0.00     0.210 HD
ENDBRANCH  32  33
ENDBRANCH  25  27
ENDBRANCH   7  25
BRANCH   6  35
HETATM   35  O7  UNL     1      31.705   2.404   9.046  1.00  0.00    -0.391 OA
ATOM     36  H7  UNL     1      31.920   2.087   9.915  1.00  0.00     0.210 HD
ENDBRANCH   6  35
BRANCH   5  37
HETATM   37  O6  UNL     1      31.161   3.705   6.753  1.00  0.00    -0.390 OA
ATOM     38  H6  UNL     1      32.093   3.824   6.891  1.00  0.00     0.210 HD
ENDBRANCH   5  37
TORSDOF 11
ENDMDL