MODEL 1
REMARK VINA RESULT: -9.330488212      0.000      0.000
REMARK  12 active torsions:
REMARK  status: ('A' for Active; 'I' for Inactive)
REMARK    1  A    between atoms: O1_2  and  C2_3
REMARK    2  A    between atoms: C2_3  and  C3_5
REMARK    3  A    between atoms: C3_5  and  C4_6
REMARK    4  A    between atoms: C3_5  and  N1_13
REMARK    5  A    between atoms: C4_6  and  C5_7
REMARK       I    between atoms: N1_13  and  C11_15
REMARK    6  A    between atoms: C11_15  and  C12_17
REMARK    7  A    between atoms: C12_17  and  C13_21
REMARK    8  A    between atoms: C13_21  and  C14_22
REMARK    9  A    between atoms: C14_22  and  C15_24
REMARK   10  A    between atoms: C16_25  and  N3_26
REMARK   11  A    between atoms: C17_30  and  O5_31
REMARK   12  A    between atoms: C18_33  and  N4_34
ROOT
HETATM    1  C13 UNL     1      29.496   7.860  12.071  1.00  0.00     0.142 C
ENDROOT
BRANCH   1   2
HETATM    2  C12 UNL     1      30.237   7.051  13.066  1.00  0.00     0.078 C
HETATM    3  N2  UNL     1      30.949   7.570  13.988  1.00  0.00    -0.398 N
ATOM      4  H22 UNL     1      31.459   7.013  14.673  1.00  0.00     0.156 HD
ATOM      5  H21 UNL     1      31.028   8.586  14.030  1.00  0.00     0.156 HD
BRANCH   2   6
HETATM    6  C11 UNL     1      30.123   5.582  13.005  1.00  0.00     0.264 C
HETATM    7  N1  UNL     1      30.327   4.888  11.795  1.00  0.00    -0.342 N
ATOM      8  H1  UNL     1      30.551   5.462  10.981  1.00  0.00     0.163 HD
HETATM    9  O3  UNL     1      29.834   4.986  14.083  1.00  0.00    -0.266 OA
BRANCH   7  10
HETATM   10  C3  UNL     1      30.256   3.472  11.569  1.00  0.00     0.185 C
BRANCH  10  11
HETATM   11  C2  UNL     1      31.588   2.837  11.724  1.00  0.00     0.281 C
HETATM   12  O2  UNL     1      31.855   1.827  11.071  1.00  0.00    -0.263 OA
BRANCH  11  13
HETATM   13  O1  UNL     1      32.526   3.370  12.590  1.00  0.00    -0.325 OA
HETATM   14  C1  UNL     1      32.446   2.943  13.960  1.00  0.00     0.213 C
ENDBRANCH  11  13
ENDBRANCH  10  11
BRANCH  10  15
HETATM   15  C4  UNL     1      29.639   3.097  10.237  1.00  0.00     0.040 C
BRANCH  15  16
HETATM   16  C5  UNL     1      29.795   4.107   9.156  1.00  0.00    -0.012 C
HETATM   17  C6  UNL     1      28.597   4.389   8.328  1.00  0.00     0.005 C
HETATM   18  C7  UNL     1      28.421   3.520   7.110  1.00  0.00     0.000 C
HETATM   19  C8  UNL     1      29.724   3.149   6.442  1.00  0.00     0.000 C
HETATM   20  C9  UNL     1      30.735   2.635   7.444  1.00  0.00     0.000 C
HETATM   21  C10 UNL     1      31.045   3.752   8.383  1.00  0.00     0.005 C
ENDBRANCH  15  16
ENDBRANCH  10  15
ENDBRANCH   7  10
ENDBRANCH   2   6
ENDBRANCH   1   2
BRANCH   1  22
HETATM   22  C14 UNL     1      28.086   7.500  11.930  1.00  0.00     0.153 C
HETATM   23  O4  UNL     1      27.697   6.347  12.151  1.00  0.00    -0.296 OA
BRANCH  22  24
HETATM   24  C15 UNL     1      27.038   8.480  11.512  1.00  0.00     0.211 C
HETATM   25  C16 UNL     1      26.210   9.003  12.636  1.00  0.00     0.239 C
HETATM   26  C17 UNL     1      24.898   8.352  12.860  1.00  0.00     0.181 C
HETATM   27  C18 UNL     1      23.991   8.454  11.662  1.00  0.00     0.228 C
HETATM   28  C19 UNL     1      24.451   7.357  10.694  1.00  0.00     0.176 C
HETATM   29  S1  UNL     1      26.072   7.866  10.159  1.00  0.00     0.159 S
HETATM   30  O6  UNL     1      25.851   8.935   9.111  1.00  0.00    -0.227 OA
HETATM   31  O7  UNL     1      26.706   6.702   9.458  1.00  0.00    -0.227 OA
BRANCH  25  32
HETATM   32  N3  UNL     1      26.003  10.456  12.505  1.00  0.00    -0.071 N
ATOM     33  H33 UNL     1      25.870  10.901  13.413  1.00  0.00     0.274 HD
ATOM     34  H32 UNL     1      26.859  10.933  12.223  1.00  0.00     0.274 HD
ATOM     35  H31 UNL     1      25.231  10.657  11.869  1.00  0.00     0.274 HD
ENDBRANCH  25  32
BRANCH  26  36
HETATM   36  O5  UNL     1      24.273   9.040  13.921  1.00  0.00    -0.391 OA
ATOM     37  H5  UNL     1      23.551   9.531  13.545  1.00  0.00     0.210 HD
ENDBRANCH  26  36
BRANCH  27  38
HETATM   38  N4  UNL     1      22.605   8.364  11.983  1.00  0.00    -0.072 N
ATOM     39  H43 UNL     1      22.368   7.422  12.295  1.00  0.00     0.274 HD
ATOM     40  H42 UNL     1      22.399   8.883  12.836  1.00  0.00     0.274 HD
ATOM     41  H41 UNL     1      21.988   8.659  11.226  1.00  0.00     0.274 HD
ENDBRANCH  27  38
ENDBRANCH  22  24
ENDBRANCH   1  22
TORSDOF 12
ENDMDL