MODEL 3
REMARK VINA RESULT: -5.682360176      2.088      3.947
REMARK  5 active torsions:
REMARK  status: ('A' for Active; 'I' for Inactive)
REMARK    1  A    between atoms: C3_9  and  C4_10
REMARK    2  A    between atoms: C4_10  and  N4_11
REMARK    3  A    between atoms: C4_10  and  C5_15
REMARK    4  A    between atoms: C5_15  and  N5_16
REMARK    5  A    between atoms: C5_15  and  O1_20
ROOT
HETATM    1  C4  UNL     1     -25.516  15.132  58.170  1.00  0.00     0.291 C
ENDROOT
BRANCH   1   2
HETATM    2  C3  UNL     1     -26.878  15.079  57.557  1.00  0.00     0.085 A
HETATM    3  C2  UNL     1     -28.059  15.156  58.299  1.00  0.00     0.049 A
HETATM    4  C1  UNL     1     -28.198  15.156  59.726  1.00  0.00     0.072 C
HETATM    5  N1  UNL     1     -29.038  15.134  57.351  1.00  0.00    -0.289 N
HETATM    6  N2  UNL     1     -28.492  15.055  56.207  1.00  0.00    -0.242 N
ATOM      7  H1  UNL     1     -30.041  15.174  57.529  1.00  0.00     0.188 HD
HETATM    8  N3  UNL     1     -27.199  15.022  56.287  1.00  0.00    -0.286 N
ATOM      9  H2  UNL     1     -29.010  15.021  55.330  1.00  0.00     0.208 HD
ATOM     10  H3  UNL     1     -26.549  14.964  55.504  1.00  0.00     0.188 HD
ENDBRANCH   1   2
BRANCH   1  11
HETATM   11  N4  UNL     1     -24.566  15.565  57.167  1.00  0.00    -0.065 N
ATOM     12  H43 UNL     1     -24.480  16.581  57.125  1.00  0.00     0.275 HD
ATOM     13  H42 UNL     1     -23.603  15.351  57.426  1.00  0.00     0.275 HD
ATOM     14  H41 UNL     1     -24.827  15.159  56.268  1.00  0.00     0.275 HD
ENDBRANCH   1  11
BRANCH   1  15
HETATM   15  C5  UNL     1     -25.089  13.684  58.469  1.00  0.00     0.353 C
BRANCH  15  16
HETATM   16  N5  UNL     1     -23.696  13.568  57.944  1.00  0.00    -0.051 N
ATOM     17  H53 UNL     1     -22.990  13.460  58.673  1.00  0.00     0.277 HD
ATOM     18  H52 UNL     1     -23.510  12.687  57.467  1.00  0.00     0.277 HD
ATOM     19  H51 UNL     1     -23.559  14.390  57.357  1.00  0.00     0.277 HD
ENDBRANCH  15  16
BRANCH  15  20
HETATM   20  O1  UNL     1     -25.062  13.415  59.801  1.00  0.00    -0.368 OA
ATOM     21  H1  UNL     1     -24.197  13.529  60.176  1.00  0.00     0.212 HD
ENDBRANCH  15  20
ENDBRANCH   1  15
TORSDOF 5
ENDMDL