MODEL 3
REMARK VINA RESULT: -5.856864020      1.040      3.843
REMARK  4 active torsions:
REMARK  status: ('A' for Active; 'I' for Inactive)
REMARK    1  A    between atoms: N1_1  and  C1_5
REMARK    2  A    between atoms: C1_5  and  C2_6
REMARK    3  A    between atoms: C4_8  and  C5_9
REMARK    4  A    between atoms: C5_9  and  N2_10
ROOT
HETATM    1  C2  UNL     1     -25.960  14.339  58.965  1.00  0.00     0.126 C
HETATM    2  C3  UNL     1     -26.622  14.924  60.169  1.00  0.00     0.055 C
HETATM    3  C4  UNL     1     -28.056  14.558  60.333  1.00  0.00     0.111 C
HETATM    4  N3  UNL     1     -28.857  14.749  59.164  1.00  0.00    -0.357 N
ATOM      5  H3  UNL     1     -29.792  14.351  59.250  1.00  0.00     0.162 HD
HETATM    6  C6  UNL     1     -28.630  15.375  57.906  1.00  0.00     0.203 C
HETATM    7  N4  UNL     1     -29.792  15.802  57.212  1.00  0.00    -0.062 NA
HETATM    8  N5  UNL     1     -27.469  15.578  57.364  1.00  0.00    -0.278 N
ATOM      9  H5  UNL     1     -27.487  16.042  56.455  1.00  0.00     0.189 HD
HETATM   10  N6  UNL     1     -26.184  15.249  57.851  1.00  0.00    -0.328 N
ATOM     11  H6  UNL     1     -25.372  15.670  57.399  1.00  0.00     0.180 HD
ENDROOT
BRANCH   1  12
HETATM   12  C1  UNL     1     -24.493  14.074  59.158  1.00  0.00     0.256 C
BRANCH  12  13
HETATM   13  N1  UNL     1     -23.810  13.717  57.949  1.00  0.00    -0.077 N
ATOM     14  H13 UNL     1     -23.267  12.863  58.081  1.00  0.00     0.274 HD
ATOM     15  H12 UNL     1     -24.472  13.391  57.245  1.00  0.00     0.274 HD
ATOM     16  H11 UNL     1     -23.225  14.463  57.575  1.00  0.00     0.274 HD
ENDBRANCH  12  13
ENDBRANCH   1  12
BRANCH   3  17
HETATM   17  C5  UNL     1     -28.606  15.300  61.528  1.00  0.00     0.254 C
BRANCH  17  18
HETATM   18  N2  UNL     1     -29.910  14.855  61.924  1.00  0.00    -0.077 N
ATOM     19  H23 UNL     1     -29.889  14.467  62.867  1.00  0.00     0.274 HD
ATOM     20  H22 UNL     1     -30.531  15.648  62.081  1.00  0.00     0.274 HD
ATOM     21  H21 UNL     1     -30.327  14.192  61.270  1.00  0.00     0.274 HD
ENDBRANCH  17  18
ENDBRANCH   3  17
TORSDOF 4
ENDMDL