MODEL 4
REMARK VINA RESULT: -5.780964897      1.757      2.358
REMARK  4 active torsions:
REMARK  status: ('A' for Active; 'I' for Inactive)
REMARK    1  A    between atoms: N1_1  and  C1_5
REMARK    2  A    between atoms: C1_5  and  C2_6
REMARK    3  A    between atoms: C2_6  and  C3_7
REMARK    4  A    between atoms: C3_7  and  C4_8
ROOT
HETATM    1  C4  UNL     1     -27.590  15.577  58.927  1.00  0.00     0.124 C
HETATM    2  C5  UNL     1     -28.999  15.504  58.484  1.00  0.00     0.103 C
HETATM    3  N2  UNL     1     -29.297  15.097  57.181  1.00  0.00    -0.297 N
ATOM      4  H2  UNL     1     -30.006  14.384  57.012  1.00  0.00     0.183 HD
HETATM    5  N3  UNL     1     -28.622  15.669  56.129  1.00  0.00    -0.021 NA
HETATM    6  N4  UNL     1     -27.371  15.080  55.962  1.00  0.00    -0.258 N
ATOM      7  H4  UNL     1     -27.012  15.046  55.009  1.00  0.00     0.187 HD
HETATM    8  C6  UNL     1     -26.543  14.522  56.963  1.00  0.00     0.202 C
HETATM    9  N5  UNL     1     -25.502  13.645  56.593  1.00  0.00    -0.062 NA
HETATM   10  N6  UNL     1     -26.653  14.748  58.240  1.00  0.00    -0.354 N
ATOM     11  H6  UNL     1     -25.975  14.268  58.831  1.00  0.00     0.163 HD
ENDROOT
BRANCH   1  12
HETATM   12  C3  UNL     1     -27.534  15.158  60.402  1.00  0.00     0.032 C
BRANCH  12  13
HETATM   13  C2  UNL     1     -26.143  14.711  60.778  1.00  0.00     0.029 C
BRANCH  13  14
HETATM   14  C1  UNL     1     -26.065  14.322  62.241  1.00  0.00     0.230 C
BRANCH  14  15
HETATM   15  N1  UNL     1     -25.429  13.033  62.426  1.00  0.00    -0.079 N
ATOM     16  H13 UNL     1     -24.521  12.998  61.962  1.00  0.00     0.274 HD
ATOM     17  H12 UNL     1     -25.120  12.908  63.390  1.00  0.00     0.274 HD
ATOM     18  H11 UNL     1     -26.029  12.265  62.126  1.00  0.00     0.274 HD
ENDBRANCH  14  15
ENDBRANCH  13  14
ENDBRANCH  12  13
ENDBRANCH   1  12
TORSDOF 4
ENDMDL