MODEL 2
REMARK VINA RESULT: -5.654341548      1.375      2.307
REMARK  5 active torsions:
REMARK  status: ('A' for Active; 'I' for Inactive)
REMARK    1  A    between atoms: N1_1  and  C1_5
REMARK    2  A    between atoms: C1_5  and  C2_6
REMARK    3  A    between atoms: C2_6  and  C3_7
REMARK    4  A    between atoms: C3_7  and  N2_8
REMARK    5  A    between atoms: C3_7  and  C4_12
ROOT
HETATM    1  C3  UNL     1     -26.628  14.870  60.358  1.00  0.00     0.253 C
ENDROOT
BRANCH   1   2
HETATM    2  C2  UNL     1     -25.320  14.276  59.928  1.00  0.00     0.068 C
BRANCH   2   3
HETATM    3  C1  UNL     1     -24.203  14.485  60.895  1.00  0.00     0.232 C
BRANCH   3   4
HETATM    4  N1  UNL     1     -23.683  13.164  61.248  1.00  0.00    -0.079 N
ATOM      5  H13 UNL     1     -23.551  13.041  62.252  1.00  0.00     0.274 HD
ATOM      6  H12 UNL     1     -24.364  12.416  61.112  1.00  0.00     0.274 HD
ATOM      7  H11 UNL     1     -22.825  13.024  60.713  1.00  0.00     0.274 HD
ENDBRANCH   3   4
ENDBRANCH   2   3
ENDBRANCH   1   2
BRANCH   1   8
HETATM    8  N2  UNL     1     -27.310  14.155  61.371  1.00  0.00    -0.068 N
ATOM      9  H23 UNL     1     -27.970  14.769  61.851  1.00  0.00     0.275 HD
ATOM     10  H22 UNL     1     -27.958  13.488  60.954  1.00  0.00     0.275 HD
ATOM     11  H21 UNL     1     -26.712  13.686  62.050  1.00  0.00     0.275 HD
ENDBRANCH   1   8
BRANCH   1  12
HETATM   12  C4  UNL     1     -27.522  15.013  59.180  1.00  0.00     0.129 A
HETATM   13  N3  UNL     1     -28.845  15.229  59.168  1.00  0.00    -0.285 N
HETATM   14  N4  UNL     1     -29.275  15.296  57.924  1.00  0.00    -0.272 N
ATOM     15  H3  UNL     1     -29.431  15.326  59.997  1.00  0.00     0.188 HD
HETATM   16  C5  UNL     1     -28.217  15.122  57.113  1.00  0.00     0.208 A
ATOM     17  H4  UNL     1     -30.239  15.453  57.629  1.00  0.00     0.189 HD
HETATM   18  N5  UNL     1     -28.173  15.113  55.691  1.00  0.00    -0.062 NA
HETATM   19  N6  UNL     1     -27.128  14.947  57.885  1.00  0.00    -0.316 N
ATOM     20  H6  UNL     1     -26.176  14.791  57.554  1.00  0.00     0.170 HD
ENDBRANCH   1  12
TORSDOF 5
ENDMDL