MODEL 5
REMARK VINA RESULT: -5.246176173      1.482      2.081
REMARK  6 active torsions:
REMARK  status: ('A' for Active; 'I' for Inactive)
REMARK    1  A    between atoms: N1_1  and  C1_4
REMARK    2  A    between atoms: C2_7  and  C3_8
REMARK    3  A    between atoms: N3_9  and  C4_11
REMARK    4  A    between atoms: C4_11  and  C5_12
REMARK    5  A    between atoms: C5_12  and  N4_13
REMARK    6  A    between atoms: C5_12  and  N5_17
ROOT
HETATM    1  C3  UNL     1     -27.347  15.065  60.583  1.00  0.00     0.142 C
HETATM    2  N3  UNL     1     -27.839  15.237  59.424  1.00  0.00    -0.392 N
ATOM      3  H3  UNL     1     -28.789  15.607  59.386  1.00  0.00     0.159 HD
ENDROOT
BRANCH   2   4
HETATM    4  C4  UNL     1     -27.208  14.968  58.156  1.00  0.00     0.181 C
BRANCH   4   5
HETATM    5  C5  UNL     1     -28.089  15.566  57.066  1.00  0.00     0.395 C
BRANCH   5   6
HETATM    6  N4  UNL     1     -29.474  15.377  57.487  1.00  0.00    -0.049 N
ATOM      7  H43 UNL     1     -30.046  16.215  57.373  1.00  0.00     0.276 HD
ATOM      8  H42 UNL     1     -30.005  14.772  56.860  1.00  0.00     0.276 HD
ATOM      9  H41 UNL     1     -29.449  15.035  58.447  1.00  0.00     0.276 HD
ENDBRANCH   5   6
BRANCH   5  10
HETATM   10  N5  UNL     1     -27.907  14.922  55.807  1.00  0.00    -0.049 N
ATOM     11  H53 UNL     1     -28.667  14.270  55.613  1.00  0.00     0.276 HD
ATOM     12  H52 UNL     1     -28.051  15.574  55.036  1.00  0.00     0.276 HD
ATOM     13  H51 UNL     1     -27.000  14.461  55.734  1.00  0.00     0.276 HD
ENDBRANCH   5  10
ENDBRANCH   4   5
ENDBRANCH   2   4
BRANCH   1  14
HETATM   14  C2  UNL     1     -26.003  14.543  60.733  1.00  0.00     0.200 A
HETATM   15  N2  UNL     1     -25.502  13.576  61.500  1.00  0.00    -0.166 N
HETATM   16  C1  UNL     1     -24.178  13.445  61.297  1.00  0.00     0.698 A
ATOM     17  H2  UNL     1     -26.048  13.012  62.153  1.00  0.00     0.186 HD
HETATM   18  N6  UNL     1     -23.877  14.372  60.371  1.00  0.00    -0.089 N
HETATM   19  O1  UNL     1     -24.959  15.008  60.050  1.00  0.00    -0.203 OA
ATOM     20  H6  UNL     1     -22.949  14.546  59.984  1.00  0.00     0.213 HD
BRANCH  16  21
HETATM   21  N1  UNL     1     -23.366  12.615  61.862  1.00  0.00    -0.233 N
ATOM     22  H12 UNL     1     -23.611  11.796  62.418  1.00  0.00     0.174 HD
ATOM     23  H11 UNL     1     -22.346  12.631  61.852  1.00  0.00     0.174 HD
ENDBRANCH  16  21
ENDBRANCH   1  14
TORSDOF 6
ENDMDL