MODEL 2
REMARK VINA RESULT: -5.017694912      1.906      4.450
REMARK  6 active torsions:
REMARK  status: ('A' for Active; 'I' for Inactive)
REMARK    1  A    between atoms: N1_1  and  C1_4
REMARK    2  A    between atoms: N4_9  and  C2_10
REMARK    3  A    between atoms: C2_10  and  S1_11
REMARK    4  A    between atoms: S1_11  and  C3_12
REMARK    5  A    between atoms: C3_12  and  N5_13
REMARK    6  A    between atoms: C3_12  and  N6_17
ROOT
HETATM    1  C2  UNL     1     -25.594  15.404  57.481  1.00  0.00     0.247 C
ENDROOT
BRANCH   1   2
HETATM    2  N4  UNL     1     -25.016  14.461  58.404  1.00  0.00    -0.098 N
HETATM    3  C1  UNL     1     -25.081  14.262  59.726  1.00  0.00     0.710 A
HETATM    4  N2  UNL     1     -24.246  13.212  59.608  1.00  0.00    -0.116 N
HETATM    5  N3  UNL     1     -24.201  13.430  58.321  1.00  0.00    -0.211 N
ATOM      6  H2  UNL     1     -23.828  12.537  60.249  1.00  0.00     0.207 HD
ATOM      7  H3  UNL     1     -23.719  12.975  57.546  1.00  0.00     0.209 HD
BRANCH   3   8
HETATM    8  N1  UNL     1     -25.661  14.785  60.764  1.00  0.00    -0.232 N
ATOM      9  H12 UNL     1     -25.681  14.658  61.776  1.00  0.00     0.174 HD
ATOM     10  H11 UNL     1     -26.328  15.552  60.849  1.00  0.00     0.174 HD
ENDBRANCH   3   8
ENDBRANCH   1   2
BRANCH   1  11
HETATM   11  S1  UNL     1     -27.217  14.873  56.867  1.00  0.00    -0.086 SA
BRANCH  11  12
HETATM   12  C3  UNL     1     -28.491  15.610  57.925  1.00  0.00     0.441 C
BRANCH  12  13
HETATM   13  N5  UNL     1     -29.754  15.649  57.186  1.00  0.00    -0.041 N
ATOM     14  H53 UNL     1     -29.690  16.208  56.334  1.00  0.00     0.277 HD
ATOM     15  H52 UNL     1     -29.978  14.754  56.750  1.00  0.00     0.277 HD
ATOM     16  H51 UNL     1     -30.491  15.974  57.811  1.00  0.00     0.277 HD
ENDBRANCH  12  13
BRANCH  12  17
HETATM   17  N6  UNL     1     -28.603  14.753  59.090  1.00  0.00    -0.041 N
ATOM     18  H63 UNL     1     -27.710  14.361  59.391  1.00  0.00     0.277 HD
ATOM     19  H62 UNL     1     -28.812  15.262  59.949  1.00  0.00     0.277 HD
ATOM     20  H61 UNL     1     -29.299  14.044  58.861  1.00  0.00     0.277 HD
ENDBRANCH  12  17
ENDBRANCH  11  12
ENDBRANCH   1  11
TORSDOF 6
ENDMDL