MODEL 1
REMARK VINA RESULT: -6.717072368      0.000      0.000
REMARK  2 active torsions:
REMARK  status: ('A' for Active; 'I' for Inactive)
REMARK    1  A    between atoms: C3_6  and  N3_7
REMARK       I    between atoms: N3_7  and  C4_9
REMARK       I    between atoms: C4_9  and  N4_10
REMARK       I    between atoms: C4_9  and  N5_14
REMARK    2  A    between atoms: C5_20  and  N7_21
ROOT
HETATM    1  N1  UNL     1     -28.221  15.178  55.779  1.00  0.00    -0.188 NA
HETATM    2  C1  UNL     1     -27.956  15.064  56.905  1.00  0.00     0.138 C
HETATM    3  C2  UNL     1     -27.645  14.904  58.298  1.00  0.00     0.217 A
HETATM    4  N2  UNL     1     -26.392  14.739  58.739  1.00  0.00    -0.166 N
ATOM      5  H2  UNL     1     -25.631  14.726  58.061  1.00  0.00     0.186 HD
HETATM    6  C3  UNL     1     -26.095  14.587  60.064  1.00  0.00     0.697 A
HETATM    7  N6  UNL     1     -27.103  14.607  60.937  1.00  0.00    -0.022 N
ATOM      8  H6  UNL     1     -26.901  14.496  61.931  1.00  0.00     0.203 HD
HETATM    9  C5  UNL     1     -28.398  14.773  60.537  1.00  0.00     0.692 A
HETATM   10  N8  UNL     1     -28.620  14.917  59.224  1.00  0.00    -0.166 N
ATOM     11  H8  UNL     1     -29.582  15.043  58.909  1.00  0.00     0.186 HD
ENDROOT
BRANCH   6  12
HETATM   12  N3  UNL     1     -24.758  14.428  60.452  1.00  0.00    -0.173 N
HETATM   13  C4  UNL     1     -24.408  13.698  61.638  1.00  0.00     0.494 C
HETATM   14  N4  UNL     1     -24.770  12.324  61.487  1.00  0.00    -0.032 N
HETATM   15  N5  UNL     1     -23.003  13.856  61.985  1.00  0.00    -0.032 N
ATOM     16  H43 UNL     1     -25.755  12.212  61.244  1.00  0.00     0.278 HD
ATOM     17  H42 UNL     1     -24.363  11.910  60.647  1.00  0.00     0.278 HD
ATOM     18  H41 UNL     1     -24.522  11.805  62.329  1.00  0.00     0.278 HD
ATOM     19  H53 UNL     1     -22.399  13.602  61.203  1.00  0.00     0.278 HD
ATOM     20  H52 UNL     1     -22.753  14.841  62.070  1.00  0.00     0.278 HD
ATOM     21  H51 UNL     1     -22.755  13.337  62.827  1.00  0.00     0.278 HD
ATOM     22  H3  UNL     1     -24.019  14.839  59.881  1.00  0.00     0.181 HD
ENDBRANCH   6  12
BRANCH   9  23
HETATM   23  N7  UNL     1     -29.325  14.783  61.429  1.00  0.00    -0.234 N
ATOM     24  H72 UNL     1     -29.154  14.897  62.428  1.00  0.00     0.174 HD
ATOM     25  H71 UNL     1     -30.294  14.669  61.131  1.00  0.00     0.174 HD
ENDBRANCH   9  23
TORSDOF 2
ENDMDL