MODEL 4
REMARK VINA RESULT: -5.855984906      1.216      1.248
REMARK  3 active torsions:
REMARK  status: ('A' for Active; 'I' for Inactive)
REMARK    1  A    between atoms: N1_1  and  C1_4
REMARK    2  A    between atoms: C2_7  and  C3_8
REMARK    3  A    between atoms: N3_9  and  N4_11
REMARK       I    between atoms: N4_11  and  C4_13
REMARK       I    between atoms: C4_13  and  N5_14
REMARK       I    between atoms: C4_13  and  N6_18
ROOT
HETATM    1  C3  UNL     1     -24.955  14.483  59.475  1.00  0.00     0.165 C
HETATM    2  N3  UNL     1     -24.742  13.318  59.958  1.00  0.00    -0.309 N
ATOM      3  H3  UNL     1     -25.193  12.514  59.521  1.00  0.00     0.185 HD
ENDROOT
BRANCH   2   4
HETATM    4  N4  UNL     1     -23.920  13.108  61.054  1.00  0.00    -0.284 N
HETATM    5  C4  UNL     1     -24.464  12.387  62.189  1.00  0.00     0.494 C
HETATM    6  N5  UNL     1     -23.431  12.291  63.203  1.00  0.00    -0.032 N
HETATM    7  N6  UNL     1     -25.581  13.151  62.761  1.00  0.00    -0.032 N
ATOM      8  H53 UNL     1     -22.570  11.875  62.849  1.00  0.00     0.279 HD
ATOM      9  H52 UNL     1     -23.049  13.201  63.461  1.00  0.00     0.279 HD
ATOM     10  H51 UNL     1     -23.813  11.785  64.002  1.00  0.00     0.279 HD
ATOM     11  H63 UNL     1     -25.313  14.106  63.002  1.00  0.00     0.279 HD
ATOM     12  H62 UNL     1     -26.294  13.372  62.066  1.00  0.00     0.279 HD
ATOM     13  H61 UNL     1     -25.963  12.645  63.560  1.00  0.00     0.279 HD
ATOM     14  H4  UNL     1     -22.960  13.451  61.062  1.00  0.00     0.184 HD
ENDBRANCH   2   4
BRANCH   1  15
HETATM   15  C2  UNL     1     -25.834  14.664  58.309  1.00  0.00     0.202 A
HETATM   16  N2  UNL     1     -27.120  15.045  58.295  1.00  0.00    -0.166 N
HETATM   17  C1  UNL     1     -27.569  15.091  57.026  1.00  0.00     0.698 A
ATOM     18  H2  UNL     1     -27.676  15.267  59.121  1.00  0.00     0.186 HD
HETATM   19  N7  UNL     1     -26.518  14.726  56.271  1.00  0.00    -0.089 N
HETATM   20  O1  UNL     1     -25.490  14.475  57.060  1.00  0.00    -0.203 OA
ATOM     21  H7  UNL     1     -26.515  14.655  55.253  1.00  0.00     0.213 HD
BRANCH  17  22
HETATM   22  N1  UNL     1     -28.740  15.409  56.574  1.00  0.00    -0.233 N
ATOM     23  H12 UNL     1     -29.597  15.440  57.127  1.00  0.00     0.174 HD
ATOM     24  H11 UNL     1     -29.024  15.675  55.631  1.00  0.00     0.174 HD
ENDBRANCH  17  22
ENDBRANCH   1  15
TORSDOF 3
ENDMDL