MODEL 3
REMARK VINA RESULT: -4.615010449      2.950      3.296
REMARK  2 active torsions:
REMARK  status: ('A' for Active; 'I' for Inactive)
REMARK    1  A    between atoms: C3_6  and  C4_7
REMARK    2  A    between atoms: C4_7  and  N2_8
REMARK       I    between atoms: N2_8  and  C5_11
REMARK       I    between atoms: C5_11  and  N3_12
REMARK       I    between atoms: C5_11  and  N4_16
ROOT
HETATM    1  N2  UNL     1      21.495  69.213  97.847  1.00  0.00    -0.018 N
ATOM      2  H21 UNL     1      21.856  70.074  97.436  1.00  0.00     0.281 HD
ATOM      3  H22 UNL     1      22.398  68.784  98.053  1.00  0.00     0.281 HD
HETATM    4  C5  UNL     1      20.670  69.438  99.042  1.00  0.00     0.575 C
HETATM    5  N3  UNL     1      19.496  70.159  98.599  1.00  0.00    -0.026 N
ATOM      6  H31 UNL     1      18.923  70.316  99.429  1.00  0.00     0.278 HD
ATOM      7  H32 UNL     1      18.994  69.690  97.846  1.00  0.00     0.278 HD
ATOM      8  H33 UNL     1      19.715  71.017  98.092  1.00  0.00     0.278 HD
HETATM    9  N4  UNL     1      21.442  70.179 100.021  1.00  0.00    -0.026 N
ATOM     10  H41 UNL     1      20.870  70.336 100.850  1.00  0.00     0.278 HD
ATOM     11  H42 UNL     1      21.819  71.047  99.641  1.00  0.00     0.278 HD
ATOM     12  H43 UNL     1      22.328  69.722 100.242  1.00  0.00     0.278 HD
ENDROOT
BRANCH   1  13
HETATM   13  C4  UNL     1      20.692  68.441  96.939  1.00  0.00     0.298 C
BRANCH  13  14
HETATM   14  C3  UNL     1      21.117  68.595  95.514  1.00  0.00     0.351 C
HETATM   15  N1  UNL     1      22.078  69.649  95.252  1.00  0.00    -0.021 N
HETATM   16  C2  UNL     1      21.370  69.689  93.960  1.00  0.00     0.322 C
ATOM     17  H12 UNL     1      23.088  69.528  95.339  1.00  0.00     0.283 HD
ATOM     18  H11 UNL     1      22.203  70.464  95.853  1.00  0.00     0.283 HD
HETATM   19  C1  UNL     1      21.300  71.049  93.333  1.00  0.00     0.071 C
HETATM   20  O1  UNL     1      20.222  69.343  94.714  1.00  0.00    -0.325 OA
ENDBRANCH  13  14
ENDBRANCH   1  13
TORSDOF 2
ENDMDL