MODEL 1
REMARK VINA RESULT: -4.102249414      0.000      0.000
REMARK  5 active torsions:
REMARK  status: ('A' for Active; 'I' for Inactive)
REMARK    1  A    between atoms: N1_1  and  C1_4
REMARK    2  A    between atoms: N3_8  and  C3_9
REMARK    3  A    between atoms: C3_9  and  C4_10
REMARK    4  A    between atoms: C4_10  and  O1_11
REMARK    5  A    between atoms: O1_11  and  N4_12
ROOT
HETATM    1  C1  UNL     1      19.968  70.331  94.089  1.00  0.00     0.691 A
HETATM    2  N2  UNL     1      20.829  71.230  93.615  1.00  0.00    -0.185 N
ATOM      3  H2  UNL     1      20.662  72.231  93.516  1.00  0.00     0.185 HD
HETATM    4  C2  UNL     1      21.958  70.576  93.289  1.00  0.00     0.218 A
HETATM    5  N3  UNL     1      21.796  69.279  93.560  1.00  0.00    -0.271 N
HETATM    6  N5  UNL     1      20.580  69.139  94.048  1.00  0.00    -0.129 N
ATOM      7  H5  UNL     1      20.166  68.257  94.350  1.00  0.00     0.206 HD
ENDROOT
BRANCH   5   8
HETATM    8  C3  UNL     1      22.771  68.195  93.364  1.00  0.00     0.179 C
BRANCH   8   9
HETATM    9  C4  UNL     1      22.796  67.303  94.604  1.00  0.00     0.222 C
BRANCH   9  10
HETATM   10  O1  UNL     1      22.920  68.149  95.701  1.00  0.00    -0.286 OA
BRANCH  10  11
HETATM   11  N4  UNL     1      22.403  67.594  96.822  1.00  0.00    -0.311 N
ATOM     12  H42 UNL     1      21.521  67.891  97.240  1.00  0.00     0.184 HD
ATOM     13  H41 UNL     1      23.001  66.851  97.184  1.00  0.00     0.184 HD
ENDBRANCH  10  11
ENDBRANCH   9  10
ENDBRANCH   8   9
ENDBRANCH   5   8
BRANCH   1  14
HETATM   14  N1  UNL     1      18.760  70.599  94.507  1.00  0.00    -0.233 N
ATOM     15  H12 UNL     1      18.428  71.450  94.961  1.00  0.00     0.174 HD
ATOM     16  H11 UNL     1      17.961  69.969  94.432  1.00  0.00     0.174 HD
ENDBRANCH   1  14
TORSDOF 5
ENDMDL