MODEL 3
REMARK VINA RESULT: -3.918505668      1.569      1.948
REMARK  4 active torsions:
REMARK  status: ('A' for Active; 'I' for Inactive)
REMARK    1  A    between atoms: S1_2  and  N1_5
REMARK    2  A    between atoms: N1_5  and  N2_7
REMARK    3  A    between atoms: N2_7  and  N3_9
REMARK    4  A    between atoms: N3_9  and  N4_11
ROOT
HETATM    1  N2  UNL     1      19.896  69.901  94.814  1.00  0.00    -0.219 N
ATOM      2  H2  UNL     1      19.933  69.696  95.812  1.00  0.00     0.210 HD
ENDROOT
BRANCH   1   3
HETATM    3  N1  UNL     1      20.672  69.227  93.903  1.00  0.00    -0.212 N
ATOM      4  H1  UNL     1      20.414  68.378  93.400  1.00  0.00     0.201 HD
BRANCH   3   5
HETATM    5  S1  UNL     1      22.166  70.084  93.767  1.00  0.00     0.241 S
HETATM    6  C1  UNL     1      23.151  69.433  92.448  1.00  0.00     0.187 C
HETATM    7  O1  UNL     1      22.927  69.890  95.046  1.00  0.00    -0.205 OA
HETATM    8  O2  UNL     1      21.900  71.549  93.578  1.00  0.00    -0.205 OA
ENDBRANCH   3   5
ENDBRANCH   1   3
BRANCH   1   9
HETATM    9  N3  UNL     1      19.071  70.863  94.304  1.00  0.00    -0.234 N
ATOM     10  H3  UNL     1      19.144  71.168  93.333  1.00  0.00     0.209 HD
BRANCH   9  11
HETATM   11  N4  UNL     1      18.148  71.398  95.147  1.00  0.00    -0.330 N
ATOM     12  H42 UNL     1      17.690  70.817  95.849  1.00  0.00     0.178 HD
ATOM     13  H41 UNL     1      17.943  72.391  95.041  1.00  0.00     0.178 HD
ENDBRANCH   9  11
ENDBRANCH   1   9
TORSDOF 4
ENDMDL