MODEL 5
REMARK VINA RESULT: -4.034572719      3.851      5.176
REMARK  4 active torsions:
REMARK  status: ('A' for Active; 'I' for Inactive)
REMARK    1  A    between atoms: C1_4  and  N2_5
REMARK    2  A    between atoms: C3_7  and  O1_8
REMARK    3  A    between atoms: O1_8  and  C4_9
REMARK    4  A    between atoms: C4_9  and  N3_10
ROOT
HETATM    1  N2  UNL     1      22.207  68.002  95.338  1.00  0.00    -0.289 N
HETATM    2  C2  UNL     1      20.971  68.219  94.608  1.00  0.00     0.178 C
HETATM    3  C3  UNL     1      21.294  69.385  93.705  1.00  0.00     0.159 C
HETATM    4  C5  UNL     1      22.484  69.991  94.425  1.00  0.00     0.168 C
HETATM    5  N4  UNL     1      23.238  68.775  94.743  1.00  0.00    -0.136 NA
ENDROOT
BRANCH   3   6
HETATM    6  O1  UNL     1      20.293  70.339  93.680  1.00  0.00    -0.356 OA
BRANCH   6   7
HETATM    7  C4  UNL     1      19.217  70.024  94.489  1.00  0.00     0.397 C
BRANCH   7   8
HETATM    8  N3  UNL     1      18.424  71.193  94.842  1.00  0.00    -0.058 N
ATOM      9  H33 UNL     1      18.269  71.241  95.849  1.00  0.00     0.276 HD
ATOM     10  H32 UNL     1      18.960  72.051  94.718  1.00  0.00     0.276 HD
ATOM     11  H31 UNL     1      17.541  71.234  94.332  1.00  0.00     0.276 HD
ENDBRANCH   7   8
ENDBRANCH   6   7
ENDBRANCH   3   6
BRANCH   1  12
HETATM   12  C1  UNL     1      22.457  67.177  96.470  1.00  0.00     0.189 C
HETATM   13  N1  UNL     1      21.812  67.292  97.578  1.00  0.00    -0.394 N
ATOM     14  H12 UNL     1      21.092  68.012  97.630  1.00  0.00     0.156 HD
ATOM     15  H11 UNL     1      21.992  66.700  98.389  1.00  0.00     0.156 HD
ENDBRANCH   1  12
TORSDOF 4
ENDMDL