MODEL 2
REMARK VINA RESULT: -4.101292898      3.987      5.752
REMARK  5 active torsions:
REMARK  status: ('A' for Active; 'I' for Inactive)
REMARK    1  A    between atoms: C1_4  and  N2_5
REMARK    2  A    between atoms: N2_5  and  N3_7
REMARK    3  A    between atoms: N3_7  and  N4_8
REMARK    4  A    between atoms: N3_7  and  C2_11
REMARK    5  A    between atoms: C2_11  and  C3_12
ROOT
HETATM    1  N3  UNL     1      22.163  68.666  95.851  1.00  0.00    -0.142 NA
ENDROOT
BRANCH   1   2
HETATM    2  N2  UNL     1      21.767  69.364  96.982  1.00  0.00    -0.298 N
ATOM      3  H2  UNL     1      22.086  70.317  97.149  1.00  0.00     0.183 HD
BRANCH   2   4
HETATM    4  C1  UNL     1      20.907  68.711  97.899  1.00  0.00     0.187 C
HETATM    5  N1  UNL     1      21.399  67.882  98.749  1.00  0.00    -0.395 N
ATOM      6  H12 UNL     1      22.403  67.707  98.751  1.00  0.00     0.156 HD
ATOM      7  H11 UNL     1      20.779  67.413  99.409  1.00  0.00     0.156 HD
ENDBRANCH   2   4
ENDBRANCH   1   2
BRANCH   1   8
HETATM    8  N4  UNL     1      23.158  67.745  96.054  1.00  0.00    -0.346 NA
ATOM      9  H42 UNL     1      23.928  68.069  96.639  1.00  0.00     0.172 HD
ATOM     10  H41 UNL     1      22.844  66.835  96.391  1.00  0.00     0.172 HD
ENDBRANCH   1   8
BRANCH   1  11
HETATM   11  C2  UNL     1      22.412  69.600  94.789  1.00  0.00     0.200 C
BRANCH  11  12
HETATM   12  C3  UNL     1      21.277  69.698  93.804  1.00  0.00     0.402 A
HETATM   13  N5  UNL     1      20.121  68.979  94.310  1.00  0.00    -0.021 N
HETATM   14  C4  UNL     1      19.354  70.198  94.308  1.00  0.00     0.468 A
ATOM     15  H52 UNL     1      19.774  68.160  93.813  1.00  0.00     0.281 HD
ATOM     16  H51 UNL     1      20.200  68.430  95.166  1.00  0.00     0.281 HD
HETATM   17  N6  UNL     1      20.525  70.930  93.860  1.00  0.00    -0.021 N
ATOM     18  H62 UNL     1      20.874  71.716  94.408  1.00  0.00     0.281 HD
ATOM     19  H61 UNL     1      20.466  71.530  93.036  1.00  0.00     0.281 HD
ENDBRANCH  11  12
ENDBRANCH   1  11
TORSDOF 5
ENDMDL