MODEL 2
REMARK VINA RESULT: -4.569647270      1.816      2.021
REMARK  3 active torsions:
REMARK  status: ('A' for Active; 'I' for Inactive)
REMARK    1  A    between atoms: C1_2  and  N1_3
REMARK    2  A    between atoms: N1_3  and  N2_5
REMARK    3  A    between atoms: N2_5  and  C2_7
ROOT
HETATM    1  C2  UNL     1      20.127  70.420  94.405  1.00  0.00     0.715 A
HETATM    2  N3  UNL     1      21.082  71.203  93.862  1.00  0.00    -0.127 N
ATOM      3  H3  UNL     1      20.900  72.054  93.329  1.00  0.00     0.206 HD
HETATM    4  N4  UNL     1      22.292  70.717  94.118  1.00  0.00    -0.237 N
ATOM      5  H4  UNL     1      23.182  71.119  93.822  1.00  0.00     0.192 HD
HETATM    6  C3  UNL     1      22.123  69.592  94.841  1.00  0.00     0.353 A
HETATM    7  O2  UNL     1      23.004  68.817  95.294  1.00  0.00    -0.245 OA
HETATM    8  N5  UNL     1      20.798  69.421  95.010  1.00  0.00    -0.137 N
ATOM      9  H5  UNL     1      20.367  68.650  95.519  1.00  0.00     0.189 HD
ENDROOT
BRANCH   1  10
HETATM   10  N2  UNL     1      18.705  70.601  94.357  1.00  0.00    -0.128 N
ATOM     11  H2  UNL     1      18.122  70.082  93.699  1.00  0.00     0.205 HD
BRANCH  10  12
HETATM   12  N1  UNL     1      18.163  71.511  95.245  1.00  0.00    -0.263 N
ATOM     13  H1  UNL     1      18.448  72.490  95.209  1.00  0.00     0.190 HD
BRANCH  12  14
HETATM   14  C1  UNL     1      17.216  71.088  96.200  1.00  0.00     0.369 C
HETATM   15  O1  UNL     1      16.017  70.839  95.815  1.00  0.00    -0.282 OA
ENDBRANCH  12  14
ENDBRANCH  10  12
ENDBRANCH   1  10
TORSDOF 3
ENDMDL