MODEL 5
REMARK VINA RESULT: -3.746982999      2.694      4.668
REMARK  6 active torsions:
REMARK  status: ('A' for Active; 'I' for Inactive)
REMARK    1  A    between atoms: N1_1  and  C1_5
REMARK    2  A    between atoms: C1_5  and  C2_6
REMARK    3  A    between atoms: C3_8  and  C4_9
REMARK    4  A    between atoms: C4_9  and  N2_10
REMARK    5  A    between atoms: N2_10  and  N3_11
REMARK    6  A    between atoms: C5_14  and  N4_15
ROOT
HETATM    1  C2  UNL     1      20.997  68.433  95.360  1.00  0.00     0.180 C
HETATM    2  O1  UNL     1      21.932  69.516  95.170  1.00  0.00    -0.373 OA
HETATM    3  C3  UNL     1      21.308  69.701  93.983  1.00  0.00     0.171 C
HETATM    4  C5  UNL     1      20.036  69.164  94.520  1.00  0.00     0.243 C
ENDROOT
BRANCH   1   5
HETATM    5  C1  UNL     1      20.806  68.196  96.797  1.00  0.00     0.263 C
BRANCH   5   6
HETATM    6  N1  UNL     1      21.525  69.250  97.537  1.00  0.00    -0.077 N
ATOM      7  H13 UNL     1      22.513  69.034  97.669  1.00  0.00     0.274 HD
ATOM      8  H12 UNL     1      21.643  70.103  96.991  1.00  0.00     0.274 HD
ATOM      9  H11 UNL     1      21.036  69.411  98.417  1.00  0.00     0.274 HD
ENDBRANCH   5   6
ENDBRANCH   1   5
BRANCH   4  10
HETATM   10  N4  UNL     1      19.081  70.028  95.128  1.00  0.00    -0.070 N
ATOM     11  H43 UNL     1      18.161  69.816  94.742  1.00  0.00     0.274 HD
ATOM     12  H42 UNL     1      18.962  69.747  96.101  1.00  0.00     0.274 HD
ATOM     13  H41 UNL     1      19.221  71.038  95.098  1.00  0.00     0.274 HD
ENDBRANCH   4  10
BRANCH   3  14
HETATM   14  C4  UNL     1      21.326  71.035  93.380  1.00  0.00     0.168 C
BRANCH  14  15
HETATM   15  N2  UNL     1      22.610  71.075  92.614  1.00  0.00    -0.146 NA
BRANCH  15  16
HETATM   16  N3  UNL     1      22.995  69.691  92.450  1.00  0.00    -0.348 N
ATOM     17  H32 UNL     1      23.722  69.196  92.965  1.00  0.00     0.172 HD
ATOM     18  H31 UNL     1      22.385  69.331  91.715  1.00  0.00     0.172 HD
ENDBRANCH  15  16
ENDBRANCH  14  15
ENDBRANCH   3  14
TORSDOF 6
ENDMDL