MODEL 5
REMARK VINA RESULT: -7.548291062      0.983      1.006
REMARK  1 active torsions:
REMARK  status: ('A' for Active; 'I' for Inactive)
REMARK    1  A    between atoms: C7_9  and  O3_10
ROOT
HETATM    1  C1  UNL     1      63.050  77.195  -5.699  1.00  0.00     0.076 C
HETATM    2  C2  UNL     1      61.685  76.817  -6.094  1.00  0.00     0.042 C
HETATM    3  C3  UNL     1      61.058  77.453  -7.076  1.00  0.00     0.040 C
HETATM    4  C4  UNL     1      59.706  76.968  -7.358  1.00  0.00     0.195 C
HETATM    5  O1  UNL     1      58.870  77.809  -8.034  1.00  0.00    -0.231 OA
HETATM    6  O2  UNL     1      57.687  77.215  -7.832  1.00  0.00    -0.234 OA
HETATM    7  C5  UNL     1      57.616  76.984  -6.434  1.00  0.00     0.172 C
HETATM    8  C6  UNL     1      56.767  75.812  -6.207  1.00  0.00     0.067 C
HETATM    9  C7  UNL     1      55.312  76.118  -6.376  1.00  0.00     0.120 C
HETATM   10  C8  UNL     1      54.765  77.096  -5.394  1.00  0.00     0.032 C
HETATM   11  C9  UNL     1      54.920  76.682  -3.958  1.00  0.00     0.007 C
HETATM   12  C10 UNL     1      55.563  77.801  -3.206  1.00  0.00    -0.015 C
HETATM   13  C11 UNL     1      54.470  78.751  -2.692  1.00  0.00     0.010 C
HETATM   14  C12 UNL     1      56.367  77.390  -2.027  1.00  0.00    -0.015 C
HETATM   15  C13 UNL     1      55.459  76.968  -0.915  1.00  0.00     0.010 C
HETATM   16  C14 UNL     1      57.422  76.371  -2.299  1.00  0.00     0.008 C
HETATM   17  C15 UNL     1      58.548  76.964  -3.157  1.00  0.00     0.046 C
HETATM   18  C16 UNL     1      59.428  75.911  -3.727  1.00  0.00     0.127 C
HETATM   19  C17 UNL     1      60.794  76.048  -3.032  1.00  0.00     0.054 C
HETATM   20  F1  UNL     1      58.954  74.675  -3.256  1.00  0.00    -0.241 F
HETATM   21  C18 UNL     1      59.559  75.882  -5.212  1.00  0.00     0.177 C
HETATM   22  O4  UNL     1      60.948  75.795  -5.504  1.00  0.00    -0.347 OA
HETATM   23  C19 UNL     1      58.995  76.978  -5.980  1.00  0.00     0.086 C
ENDROOT
BRANCH   9  24
HETATM   24  O3  UNL     1      54.518  74.973  -6.334  1.00  0.00    -0.395 OA
ATOM     25  H3  UNL     1      54.394  74.648  -5.450  1.00  0.00     0.210 HD
ENDBRANCH   9  24
TORSDOF 1
ENDMDL