MODEL 2
REMARK VINA RESULT: -8.874074372      3.475      6.556
REMARK  1 active torsions:
REMARK  status: ('A' for Active; 'I' for Inactive)
REMARK    1  A    between atoms: N3_10  and  C7_11
ROOT
HETATM    1  C1  UNL     1      60.081  74.780  -5.209  1.00  0.00     0.047 C
HETATM    2  C2  UNL     1      59.626  76.086  -4.634  1.00  0.00    -0.042 C
HETATM    3  C3  UNL     1      59.128  76.838  -5.589  1.00  0.00     0.030 C
HETATM    4  C4  UNL     1      58.538  78.231  -5.547  1.00  0.00     0.272 C
HETATM    5  N1  UNL     1      58.995  79.035  -6.573  1.00  0.00    -0.056 NA
HETATM    6  O1  UNL     1      60.367  78.753  -6.546  1.00  0.00    -0.223 OA
HETATM    7  C5  UNL     1      61.004  79.383  -5.455  1.00  0.00     0.345 C
HETATM    8  N2  UNL     1      61.299  78.699  -4.329  1.00  0.00    -0.388 NA
HETATM    9  C6  UNL     1      61.572  78.101  -3.325  1.00  0.00     0.281 C
HETATM   10  N3  UNL     1      61.036  76.867  -2.766  1.00  0.00    -0.306 N
HETATM   11  C13 UNL     1      59.821  76.242  -3.156  1.00  0.00     0.221 C
HETATM   12  N4  UNL     1      58.623  76.734  -2.509  1.00  0.00    -0.362 N
ATOM     13  H4  UNL     1      58.796  76.888  -1.516  1.00  0.00     0.162 HD
HETATM   14  C14 UNL     1      57.268  77.072  -2.835  1.00  0.00     0.063 A
HETATM   15  C15 UNL     1      56.506  76.762  -1.727  1.00  0.00     0.032 A
HETATM   16  C16 UNL     1      55.157  76.990  -1.816  1.00  0.00     0.002 A
HETATM   17  C17 UNL     1      54.582  77.507  -2.966  1.00  0.00     0.003 A
HETATM   18  C18 UNL     1      55.341  77.824  -4.090  1.00  0.00     0.039 A
HETATM   19  C19 UNL     1      56.701  77.589  -3.982  1.00  0.00     0.098 A
HETATM   20  O2  UNL     1      57.198  78.007  -5.256  1.00  0.00    -0.321 OA
ENDROOT
BRANCH  10  21
HETATM   21  C7  UNL     1      61.809  76.210  -1.752  1.00  0.00     0.038 A
HETATM   22  C8  UNL     1      62.694  75.217  -2.093  1.00  0.00     0.033 A
HETATM   23  C9  UNL     1      63.473  74.567  -1.134  1.00  0.00     0.044 A
HETATM   24  C10 UNL     1      63.361  74.922   0.189  1.00  0.00     0.116 A
HETATM   25  F1  UNL     1      64.129  74.281   1.136  1.00  0.00    -0.206 F
HETATM   26  C11 UNL     1      62.487  75.907   0.548  1.00  0.00     0.044 A
HETATM   27  C12 UNL     1      61.725  76.536  -0.425  1.00  0.00     0.033 A
ENDBRANCH  10  21
TORSDOF 1
ENDMDL