MODEL 3
REMARK VINA RESULT: -8.093321392      3.319      5.879
REMARK  1 active torsions:
REMARK  status: ('A' for Active; 'I' for Inactive)
REMARK    1  A    between atoms: N1_1  and  C1_4
ROOT
HETATM    1  C1  UNL     1      62.748  73.681  -3.433  1.00  0.00     0.113 A
HETATM    2  N2  UNL     1      61.698  74.015  -4.209  1.00  0.00    -0.327 N
ATOM      3  H2  UNL     1      61.633  73.562  -5.121  1.00  0.00     0.169 HD
HETATM    4  C2  UNL     1      60.764  74.859  -3.902  1.00  0.00     0.123 A
HETATM    5  C3  UNL     1      59.658  75.340  -4.659  1.00  0.00     0.029 C
HETATM    6  C4  UNL     1      58.378  74.810  -4.550  1.00  0.00     0.017 C
HETATM    7  C5  UNL     1      57.473  74.931  -3.489  1.00  0.00     0.004 C
HETATM    8  C6  UNL     1      56.841  75.828  -2.702  1.00  0.00     0.044 C
HETATM    9  C7  UNL     1      57.530  76.799  -1.808  1.00  0.00     0.143 C
HETATM   10  F1  UNL     1      57.004  77.451  -0.834  1.00  0.00    -0.204 F
HETATM   11  C8  UNL     1      58.819  76.858  -2.234  1.00  0.00     0.098 A
HETATM   12  C9  UNL     1      59.876  76.199  -2.172  1.00  0.00     0.254 A
HETATM   13  N3  UNL     1      60.907  75.469  -2.593  1.00  0.00    -0.303 N
HETATM   14  C10 UNL     1      61.889  75.197  -1.800  1.00  0.00     0.052 A
HETATM   15  C11 UNL     1      61.999  75.811  -0.532  1.00  0.00     0.031 A
HETATM   16  C12 UNL     1      63.027  75.532   0.316  1.00  0.00     0.002 A
HETATM   17  C13 UNL     1      63.987  74.630  -0.068  1.00  0.00     0.001 A
HETATM   18  C14 UNL     1      63.890  74.017  -1.319  1.00  0.00     0.017 A
HETATM   19  C15 UNL     1      62.865  74.273  -2.203  1.00  0.00     0.035 A
HETATM   20  N4  UNL     1      59.402  77.235  -3.175  1.00  0.00    -0.301 N
HETATM   21  C16 UNL     1      59.707  77.763  -4.305  1.00  0.00     0.128 A
HETATM   22  N5  UNL     1      59.881  78.904  -4.836  1.00  0.00    -0.345 N
ATOM     23  H5  UNL     1      59.818  79.711  -4.216  1.00  0.00     0.167 HD
HETATM   24  C17 UNL     1      60.128  79.147  -6.074  1.00  0.00     0.140 A
HETATM   25  S1  UNL     1      60.136  77.538  -6.679  1.00  0.00    -0.080 SA
HETATM   26  C18 UNL     1      59.828  76.619  -5.337  1.00  0.00     0.064 A
ENDROOT
BRANCH   1  27
HETATM   27  N1  UNL     1      63.606  72.840  -3.837  1.00  0.00    -0.385 N
ATOM     28  H12 UNL     1      63.764  72.687  -4.834  1.00  0.00     0.157 HD
ATOM     29  H11 UNL     1      64.155  72.297  -3.170  1.00  0.00     0.157 HD
ENDBRANCH   1  27
TORSDOF 1
ENDMDL