MODEL 2
REMARK VINA RESULT: -7.236085763      1.424      2.818
REMARK  2 active torsions:
REMARK  status: ('A' for Active; 'I' for Inactive)
REMARK    1  A    between atoms: C2_2  and  N1_3
REMARK    2  A    between atoms: C14_20  and  N4_21
ROOT
HETATM    1  N1  UNL     1      57.454  75.596  -5.266  1.00  0.00    -0.252 N
HETATM    2  C3  UNL     1      58.367  75.591  -4.136  1.00  0.00     0.151 A
HETATM    3  N2  UNL     1      59.593  75.027  -4.235  1.00  0.00    -0.339 N
ATOM      4  H2  UNL     1      59.868  74.603  -5.122  1.00  0.00     0.167 HD
HETATM    5  C4  UNL     1      60.462  75.004  -3.212  1.00  0.00     0.044 A
HETATM    6  C5  UNL     1      61.690  74.388  -3.458  1.00  0.00     0.032 A
HETATM    7  C6  UNL     1      62.613  74.342  -2.436  1.00  0.00     0.021 A
HETATM    8  C7  UNL     1      62.294  74.905  -1.205  1.00  0.00     0.011 A
HETATM    9 BR1  UNL     1      63.571  74.842   0.216  1.00  0.00    -0.051 Br
HETATM   10  C8  UNL     1      61.091  75.508  -0.964  1.00  0.00     0.032 A
HETATM   11  C9  UNL     1      60.167  75.554  -1.989  1.00  0.00    -0.006 A
HETATM   12  C10 UNL     1      58.929  76.137  -1.851  1.00  0.00     0.047 A
HETATM   13  C11 UNL     1      58.056  76.144  -2.926  1.00  0.00     0.081 A
HETATM   14  N3  UNL     1      56.777  76.738  -2.804  1.00  0.00    -0.337 N
ATOM     15  H3  UNL     1      56.492  77.164  -1.923  1.00  0.00     0.168 HD
HETATM   16  C12 UNL     1      55.898  76.738  -3.908  1.00  0.00     0.149 A
HETATM   17  C13 UNL     1      54.620  77.275  -3.956  1.00  0.00     0.101 A
HETATM   18  C14 UNL     1      54.190  77.022  -5.229  1.00  0.00     0.118 A
HETATM   19  N5  UNL     1      55.168  76.361  -5.919  1.00  0.00    -0.263 N
ATOM     20  H5  UNL     1      55.107  76.054  -6.889  1.00  0.00     0.191 HD
HETATM   21  N6  UNL     1      56.205  76.188  -5.118  1.00  0.00    -0.174 N
ENDROOT
BRANCH  18  22
HETATM   22  N4  UNL     1      53.048  77.350  -5.715  1.00  0.00    -0.384 N
ATOM     23  H42 UNL     1      52.275  76.703  -5.867  1.00  0.00     0.157 HD
ATOM     24  H41 UNL     1      52.770  78.287  -6.006  1.00  0.00     0.157 HD
ENDBRANCH  18  22
BRANCH   1  25
HETATM   25  C2  UNL     1      57.967  74.973  -6.433  1.00  0.00     0.148 C
HETATM   26  C1  UNL     1      58.312  75.754  -7.629  1.00  0.00     0.028 C
ENDBRANCH   1  25
TORSDOF 2
ENDMDL