MODEL 5
REMARK VINA RESULT: -7.034621019      2.281      3.620
REMARK  3 active torsions:
REMARK  status: ('A' for Active; 'I' for Inactive)
REMARK    1  A    between atoms: N6_20  and  C12_21
REMARK    2  A    between atoms: C12_21  and  C15_24
REMARK    3  A    between atoms: C16_25  and  C17_26
ROOT
HETATM    1  C1  UNL     1      64.116  75.361  -3.206  1.00  0.00     0.070 C
HETATM    2  C2  UNL     1      62.734  75.626  -2.751  1.00  0.00     0.029 A
HETATM    3  N1  UNL     1      61.859  76.153  -3.589  1.00  0.00    -0.344 N
ATOM      4  H1  UNL     1      62.178  76.361  -4.535  1.00  0.00     0.167 HD
HETATM    5  C3  UNL     1      60.572  76.438  -3.282  1.00  0.00     0.124 A
HETATM    6  C4  UNL     1      60.164  76.143  -1.982  1.00  0.00     0.065 A
HETATM    7  C5  UNL     1      61.014  75.595  -1.054  1.00  0.00     0.085 A
HETATM    8  N2  UNL     1      60.574  75.303   0.266  1.00  0.00    -0.100 NA
HETATM    9  C6  UNL     1      62.326  75.338  -1.472  1.00  0.00     0.092 A
HETATM   10  C7  UNL     1      63.219  74.773  -0.532  1.00  0.00     0.103 C
HETATM   11  N3  UNL     1      63.960  74.303   0.229  1.00  0.00    -0.191 NA
HETATM   12  C8  UNL     1      58.842  76.526  -1.960  1.00  0.00     0.093 A
HETATM   13  N4  UNL     1      57.736  76.600  -1.173  1.00  0.00    -0.297 N
ATOM     14  H4  UNL     1      57.694  76.302  -0.198  1.00  0.00     0.187 HD
HETATM   15  N5  UNL     1      56.738  77.105  -1.839  1.00  0.00    -0.302 N
ATOM     16  H5  UNL     1      55.803  77.259  -1.462  1.00  0.00     0.186 HD
HETATM   17  C9  UNL     1      57.126  77.403  -3.127  1.00  0.00     0.051 A
HETATM   18  C10 UNL     1      56.259  77.987  -4.159  1.00  0.00     0.072 C
HETATM   19  C11 UNL     1      58.445  77.036  -3.192  1.00  0.00     0.090 A
HETATM   20  N6  UNL     1      59.551  76.965  -3.990  1.00  0.00    -0.308 N
ENDROOT
BRANCH  20  21
HETATM   21  C12 UNL     1      59.583  77.388  -5.354  1.00  0.00     0.096 C
HETATM   22  C13 UNL     1      59.453  78.879  -5.569  1.00  0.00     0.053 C
HETATM   23  C14 UNL     1      60.936  77.037  -5.964  1.00  0.00     0.053 C
BRANCH  21  24
HETATM   24  C15 UNL     1      58.616  76.625  -6.192  1.00  0.00    -0.072 C
HETATM   25  C16 UNL     1      57.838  76.018  -6.890  1.00  0.00    -0.061 C
BRANCH  25  26
HETATM   26  C17 UNL     1      56.880  75.297  -7.720  1.00  0.00     0.159 C
HETATM   27  C18 UNL     1      57.330  73.883  -8.009  1.00  0.00     0.066 C
HETATM   28  C19 UNL     1      55.585  75.216  -6.946  1.00  0.00     0.066 C
HETATM   29  F1  UNL     1      56.667  75.914  -8.939  1.00  0.00    -0.230 F
ENDBRANCH  25  26
ENDBRANCH  21  24
ENDBRANCH  20  21
TORSDOF 3
ENDMDL