MODEL 5
REMARK VINA RESULT: -6.878115701      1.745      1.971
REMARK  4 active torsions:
REMARK  status: ('A' for Active; 'I' for Inactive)
REMARK    1  A    between atoms: C2_2  and  C3_3
REMARK    2  A    between atoms: C3_3  and  C4_4
REMARK    3  A    between atoms: C5_5  and  C6_6
REMARK    4  A    between atoms: N5_24  and  C14_25
ROOT
HETATM    1  C6  UNL     1      59.294  75.674  -4.213  1.00  0.00     0.065 A
HETATM    2  C7  UNL     1      60.277  75.341  -3.276  1.00  0.00     0.061 A
HETATM    3  C8  UNL     1      60.340  75.572  -1.938  1.00  0.00     0.160 A
HETATM    4 CL1  UNL     1      59.171  76.391  -0.927  1.00  0.00    -0.055 Cl
HETATM    5  O1  UNL     1      61.489  75.052  -1.501  1.00  0.00    -0.284 OA
HETATM    6  C9  UNL     1      62.149  74.509  -2.482  1.00  0.00     0.184 A
HETATM    7  C10 UNL     1      63.426  73.844  -2.426  1.00  0.00     0.128 C
HETATM    8  N1  UNL     1      64.448  73.297  -2.376  1.00  0.00    -0.189 NA
HETATM    9  C11 UNL     1      61.419  74.666  -3.636  1.00  0.00     0.094 A
HETATM   10  N2  UNL     1      61.555  74.342  -4.905  1.00  0.00    -0.336 N
ATOM     11  H2  UNL     1      62.399  73.841  -5.180  1.00  0.00     0.167 HD
HETATM   12  C12 UNL     1      60.659  74.627  -5.859  1.00  0.00     0.150 A
HETATM   13  N3  UNL     1      60.633  74.382  -7.162  1.00  0.00    -0.174 N
ATOM     14  H3  UNL     1      61.349  73.896  -7.701  1.00  0.00     0.186 HD
HETATM   15  C13 UNL     1      59.491  74.893  -7.638  1.00  0.00     0.681 A
HETATM   16  N4  UNL     1      59.150  74.828  -8.879  1.00  0.00    -0.234 N
ATOM     17  H41 UNL     1      58.279  75.216  -9.241  1.00  0.00     0.174 HD
ATOM     18  H42 UNL     1      59.706  74.389  -9.613  1.00  0.00     0.174 HD
HETATM   19  N5  UNL     1      58.741  75.484  -6.649  1.00  0.00    -0.170 N
HETATM   20  C18 UNL     1      59.479  75.317  -5.523  1.00  0.00     0.117 A
ENDROOT
BRANCH   1  21
HETATM   21  C5  UNL     1      58.128  76.388  -3.743  1.00  0.00    -0.063 C
HETATM   22  C4  UNL     1      57.120  76.940  -3.302  1.00  0.00    -0.101 C
BRANCH  22  23
HETATM   23  C3  UNL     1      55.926  77.623  -2.795  1.00  0.00     0.094 C
BRANCH  23  24
HETATM   24  C2  UNL     1      55.826  77.416  -1.302  1.00  0.00     0.007 C
HETATM   25  C1  UNL     1      55.320  76.044  -0.951  1.00  0.00     0.006 C
ENDBRANCH  23  24
ENDBRANCH  22  23
ENDBRANCH   1  21
BRANCH  19  26
HETATM   26  C14 UNL     1      57.475  76.121  -6.804  1.00  0.00     0.044 C
HETATM   27  C15 UNL     1      57.446  77.619  -6.635  1.00  0.00     0.039 C
HETATM   28  C16 UNL     1      56.255  75.366  -6.333  1.00  0.00     0.039 C
HETATM   29  C17 UNL     1      57.171  76.074  -8.346  1.00  0.00     0.039 C
ENDBRANCH  19  26
TORSDOF 4
ENDMDL