MODEL 5
REMARK VINA RESULT: -8.346239309      1.605      4.765
REMARK  1 active torsions:
REMARK  status: ('A' for Active; 'I' for Inactive)
REMARK    1  A    between atoms: C14_21  and  C15_22
ROOT
HETATM    1  N1  UNL     1      53.763  75.575  -6.778  1.00  0.00    -0.365 N
ATOM      2  H11 UNL     1      53.409  75.436  -7.725  1.00  0.00     0.159 HD
ATOM      3  H12 UNL     1      53.142  75.633  -5.971  1.00  0.00     0.159 HD
HETATM    4  C1  UNL     1      55.061  75.679  -6.624  1.00  0.00     0.222 A
HETATM    5  N2  UNL     1      55.549  75.870  -5.319  1.00  0.00    -0.296 N
ATOM      6  H2  UNL     1      54.882  75.911  -4.548  1.00  0.00     0.168 HD
HETATM    7  C2  UNL     1      56.931  76.006  -5.034  1.00  0.00     0.295 A
HETATM    8  O1  UNL     1      57.301  75.234  -3.893  1.00  0.00    -0.288 OA
HETATM    9  C3  UNL     1      56.644  75.920  -2.845  1.00  0.00     0.108 A
HETATM   10  C4  UNL     1      56.167  75.528  -1.595  1.00  0.00     0.040 A
HETATM   11  C5  UNL     1      55.548  76.474  -0.770  1.00  0.00     0.003 A
HETATM   12  C6  UNL     1      55.417  77.776  -1.199  1.00  0.00     0.003 A
HETATM   13  C7  UNL     1      55.889  78.191  -2.449  1.00  0.00     0.040 A
HETATM   14  C8  UNL     1      56.486  77.229  -3.218  1.00  0.00     0.108 A
HETATM   15  O2  UNL     1      57.044  77.363  -4.500  1.00  0.00    -0.288 OA
HETATM   16  C9  UNL     1      57.803  75.914  -6.180  1.00  0.00     0.072 A
HETATM   17  C10 UNL     1      57.278  75.725  -7.435  1.00  0.00     0.093 A
HETATM   18  C11 UNL     1      58.137  75.646  -8.535  1.00  0.00     0.038 A
HETATM   19  C12 UNL     1      59.497  75.752  -8.387  1.00  0.00     0.004 A
HETATM   20  C13 UNL     1      60.042  75.938  -7.163  1.00  0.00     0.013 A
HETATM   21  C14 UNL     1      59.186  76.018  -6.061  1.00  0.00    -0.009 A
HETATM   22  O3  UNL     1      55.897  75.600  -7.711  1.00  0.00    -0.279 OA
ENDROOT
BRANCH  21  23
HETATM   23  C15 UNL     1      59.840  76.214  -4.786  1.00  0.00    -0.025 A
HETATM   24  C16 UNL     1      60.080  77.464  -4.304  1.00  0.00     0.015 A
HETATM   25  C17 UNL     1      60.740  77.714  -3.120  1.00  0.00     0.043 A
HETATM   26  C18 UNL     1      61.182  76.653  -2.378  1.00  0.00     0.116 A
HETATM   27  F1  UNL     1      61.839  76.820  -1.203  1.00  0.00    -0.206 F
HETATM   28  C19 UNL     1      60.961  75.375  -2.829  1.00  0.00     0.043 A
HETATM   29  C20 UNL     1      60.284  75.154  -4.041  1.00  0.00     0.015 A
ENDBRANCH  21  23
TORSDOF 1
ENDMDL