MODEL 1
REMARK VINA RESULT: -7.210115077      0.000      0.000
REMARK  3 active torsions:
REMARK  status: ('A' for Active; 'I' for Inactive)
REMARK    1  A    between atoms: C2_2  and  O2_4
REMARK    2  A    between atoms: O2_4  and  C3_5
REMARK    3  A    between atoms: C14_18  and  O5_19
ROOT
HETATM    1  C3  UNL     1      58.197  76.241  -3.065  1.00  0.00     0.188 C
HETATM    2  O3  UNL     1      57.952  77.375  -3.811  1.00  0.00    -0.343 OA
HETATM    3  C4  UNL     1      56.970  77.394  -4.729  1.00  0.00     0.057 C
HETATM    4  C5  UNL     1      57.455  77.883  -6.112  1.00  0.00     0.045 C
HETATM    5  C6  UNL     1      55.824  78.372  -4.439  1.00  0.00     0.045 C
HETATM    6  C7  UNL     1      56.300  76.071  -5.000  1.00  0.00     0.038 C
HETATM    7  C8  UNL     1      57.378  75.058  -5.152  1.00  0.00     0.013 C
HETATM    8  C9  UNL     1      58.358  75.006  -3.997  1.00  0.00     0.050 C
HETATM    9  C10 UNL     1      59.720  74.702  -4.447  1.00  0.00     0.013 C
HETATM   10  C11 UNL     1      60.748  75.752  -4.410  1.00  0.00     0.039 C
HETATM   11  C12 UNL     1      60.623  76.759  -3.332  1.00  0.00     0.075 C
HETATM   12  C13 UNL     1      60.629  78.119  -3.882  1.00  0.00     0.047 C
HETATM   13  O4  UNL     1      61.700  76.694  -2.406  1.00  0.00    -0.331 OA
HETATM   14  C14 UNL     1      61.271  77.515  -1.364  1.00  0.00     0.246 C
HETATM   15 CL1  UNL     1      61.964  76.878   0.132  1.00  0.00    -0.057 Cl
HETATM   16  C15 UNL     1      59.735  77.437  -1.379  1.00  0.00     0.104 C
HETATM   17  C16 UNL     1      59.510  76.377  -2.388  1.00  0.00     0.051 C
HETATM   18  C17 UNL     1      59.943  75.072  -1.702  1.00  0.00     0.024 C
ENDROOT
BRANCH   1  19
HETATM   19  O2  UNL     1      57.135  75.819  -2.290  1.00  0.00    -0.282 OA
BRANCH  19  20
HETATM   20  C2  UNL     1      56.307  76.400  -1.423  1.00  0.00     0.257 C
HETATM   21  C1  UNL     1      55.155  75.680  -0.837  1.00  0.00     0.126 C
HETATM   22  O1  UNL     1      56.597  77.572  -1.170  1.00  0.00    -0.266 OA
ENDBRANCH  19  20
ENDBRANCH   1  19
BRANCH  14  23
HETATM   23  O5  UNL     1      61.714  78.830  -1.484  1.00  0.00    -0.353 OA
ATOM     24  H5  UNL     1      61.457  79.380  -0.752  1.00  0.00     0.214 HD
ENDBRANCH  14  23
TORSDOF 3
ENDMDL