MODEL 5
REMARK VINA RESULT: -7.347092310      4.543      7.614
REMARK  1 active torsions:
REMARK  status: ('A' for Active; 'I' for Inactive)
REMARK    1  A    between atoms: C2_2  and  C3_3
ROOT
HETATM    1  C1  UNL     1      61.151  77.750  -1.668  1.00  0.00     0.044 C
HETATM    2  C2  UNL     1      60.414  76.426  -1.941  1.00  0.00     0.054 C
HETATM    3  C9  UNL     1      61.072  75.805  -3.183  1.00  0.00     0.036 C
HETATM    4  C10 UNL     1      60.859  74.358  -3.326  1.00  0.00     0.004 C
HETATM    5  C11 UNL     1      62.019  73.555  -3.814  1.00  0.00     0.027 C
HETATM    6  C12 UNL     1      63.265  74.295  -4.092  1.00  0.00     0.169 C
HETATM    7  C13 UNL     1      64.013  73.517  -5.130  1.00  0.00     0.072 C
HETATM    8  N1  UNL     1      64.580  72.915  -5.944  1.00  0.00    -0.196 NA
HETATM    9  C14 UNL     1      64.078  74.340  -2.814  1.00  0.00     0.158 C
HETATM   10  N2  UNL     1      65.342  74.494  -3.012  1.00  0.00    -0.381 N
ATOM     11  H21 UNL     1      65.889  74.524  -2.151  1.00  0.00     0.158 HD
ATOM     12  H22 UNL     1      65.736  74.576  -3.949  1.00  0.00     0.158 HD
HETATM   13  O1  UNL     1      63.560  74.232  -1.587  1.00  0.00    -0.223 OA
HETATM   14  N3  UNL     1      62.798  74.669  -0.680  1.00  0.00    -0.255 N
ATOM     15  H3  UNL     1      63.382  74.556   0.149  1.00  0.00     0.195 HD
HETATM   16  C15 UNL     1      61.777  75.146  -0.196  1.00  0.00     0.201 C
HETATM   17  N4  UNL     1      60.554  75.546  -0.835  1.00  0.00    -0.372 N
ATOM     18  H4  UNL     1      59.693  75.157  -0.451  1.00  0.00     0.161 HD
ENDROOT
BRANCH   2  19
HETATM   19  C3  UNL     1      59.009  76.780  -2.210  1.00  0.00    -0.030 A
HETATM   20  C4  UNL     1      58.023  76.673  -1.258  1.00  0.00     0.011 A
HETATM   21  C5  UNL     1      56.691  77.000  -1.550  1.00  0.00     0.019 A
HETATM   22  C6  UNL     1      56.302  77.440  -2.791  1.00  0.00     0.011 A
HETATM   23 BR1  UNL     1      54.471  77.873  -3.164  1.00  0.00    -0.051 Br
HETATM   24  C7  UNL     1      57.280  77.551  -3.752  1.00  0.00     0.019 A
HETATM   25  C8  UNL     1      58.596  77.230  -3.468  1.00  0.00     0.011 A
ENDBRANCH   2  19
TORSDOF 1
ENDMDL