MODEL 1
REMARK VINA RESULT: -7.322322359      0.000      0.000
REMARK  0 active torsions:
REMARK  status: ('A' for Active; 'I' for Inactive)
ROOT
HETATM    1  N1  UNL     1      61.613  79.399  -0.712  1.00  0.00    -0.193 NA
HETATM    2  C1  UNL     1      61.448  78.400  -1.240  1.00  0.00     0.112 C
HETATM    3  C2  UNL     1      61.224  77.111  -1.944  1.00  0.00     0.239 C
HETATM    4  C3  UNL     1      61.399  76.069  -0.921  1.00  0.00     0.112 C
HETATM    5  N2  UNL     1      61.564  75.233  -0.107  1.00  0.00    -0.193 NA
HETATM    6  N3  UNL     1      62.245  76.929  -2.945  1.00  0.00    -0.351 N
ATOM      7  H3  UNL     1      63.004  76.312  -2.658  1.00  0.00     0.163 HD
HETATM    8  C4  UNL     1      62.388  77.454  -4.259  1.00  0.00     0.059 A
HETATM    9  C5  UNL     1      63.705  77.535  -4.661  1.00  0.00     0.050 A
HETATM   10  C6  UNL     1      64.012  78.024  -5.912  1.00  0.00     0.013 A
HETATM   11 BR1  UNL     1      65.829  78.135  -6.467  1.00  0.00    -0.051 Br
HETATM   12  C7  UNL     1      62.974  78.431  -6.758  1.00  0.00     0.021 A
HETATM   13  C8  UNL     1      61.681  78.332  -6.316  1.00  0.00     0.034 A
HETATM   14  C9  UNL     1      61.342  77.847  -5.069  1.00  0.00     0.073 A
HETATM   15  N4  UNL     1      59.943  77.829  -4.812  1.00  0.00    -0.272 N
HETATM   16  S1  UNL     1      58.905  78.452  -6.078  1.00  0.00     0.051 SA
HETATM   17  C10 UNL     1      59.251  77.367  -3.651  1.00  0.00     0.058 A
HETATM   18  C11 UNL     1      57.882  77.252  -3.886  1.00  0.00     0.031 A
HETATM   19  C12 UNL     1      57.090  76.827  -2.866  1.00  0.00     0.002 A
HETATM   20  C13 UNL     1      57.620  76.520  -1.636  1.00  0.00     0.001 A
HETATM   21  C14 UNL     1      58.970  76.642  -1.433  1.00  0.00     0.014 A
HETATM   22  C15 UNL     1      59.837  77.072  -2.440  1.00  0.00     0.026 A
ENDROOT
TORSDOF 0
ENDMDL