MODEL 1
REMARK VINA RESULT: -7.963773784      0.000      0.000
REMARK  14 active torsions:
REMARK  status: ('A' for Active; 'I' for Inactive)
REMARK    1  A    between atoms: N3_8  and  C5_10
REMARK    2  A    between atoms: C9_14  and  S1_15
REMARK    3  A    between atoms: S1_15  and  N4_17
REMARK    4  A    between atoms: S1_15  and  N5_21
REMARK    5  A    between atoms: N4_17  and  O2_19
REMARK    6  A    between atoms: N5_21  and  C10_23
REMARK    7  A    between atoms: C10_23  and  C11_24
REMARK    8  A    between atoms: C11_24  and  O3_25
REMARK    9  A    between atoms: C11_24  and  C12_27
REMARK       I    between atoms: C12_27  and  N6_29
REMARK   10  A    between atoms: C16_33  and  C17_34
REMARK   11  A    between atoms: C17_34  and  O6_36
REMARK   12  A    between atoms: O6_36  and  N7_37
REMARK   13  A    between atoms: C18_44  and  C19_45
REMARK   14  A    between atoms: C19_45  and  N10_46
ROOT
HETATM    1  C5  UNL     1      -2.200  20.633  11.023  1.00  0.00     0.107 A
HETATM    2  C6  UNL     1      -3.489  20.607  11.531  1.00  0.00     0.049 A
HETATM    3  C7  UNL     1      -3.867  21.479  12.542  1.00  0.00     0.007 A
HETATM    4  C8  UNL     1      -2.943  22.365  13.029  1.00  0.00     0.042 A
HETATM    5  C9  UNL     1      -1.674  22.369  12.508  1.00  0.00     0.131 A
HETATM    6  N8  UNL     1      -1.313  21.507  11.512  1.00  0.00    -0.333 N
ATOM      7  H8  UNL     1      -0.363  21.529  11.140  1.00  0.00     0.168 HD
ENDROOT
BRANCH   5   8
HETATM    8  S1  UNL     1      -0.509  23.503  13.138  1.00  0.00     0.173 S
HETATM    9  O1  UNL     1      -1.125  24.134  14.359  1.00  0.00    -0.220 OA
BRANCH   8  10
HETATM   10  N4  UNL     1      -0.271  24.659  12.105  1.00  0.00    -0.206 N
ATOM     11  H4  UNL     1      -0.198  25.627  12.417  1.00  0.00     0.206 HD
BRANCH  10  12
HETATM   12  O2  UNL     1      -0.163  24.346  10.780  1.00  0.00    -0.281 OA
ATOM     13  H2  UNL     1      -0.649  24.862  10.147  1.00  0.00     0.245 HD
ENDBRANCH  10  12
ENDBRANCH   8  10
BRANCH   8  14
HETATM   14  N5  UNL     1       0.942  22.675  13.508  1.00  0.00    -0.327 N
ATOM     15  H5  UNL     1       0.990  21.843  14.095  1.00  0.00     0.171 HD
BRANCH  14  16
HETATM   16  C10 UNL     1       2.099  23.300  12.883  1.00  0.00     0.172 C
BRANCH  16  17
HETATM   17  C11 UNL     1       2.464  22.480  11.657  1.00  0.00     0.228 C
BRANCH  17  18
HETATM   18  O3  UNL     1       3.680  22.939  11.218  1.00  0.00    -0.384 OA
ATOM     19  H3  UNL     1       4.184  22.177  10.958  1.00  0.00     0.210 HD
ENDBRANCH  17  18
BRANCH  17  20
HETATM   20  C12 UNL     1       2.400  21.045  11.961  1.00  0.00     0.251 C
HETATM   21  O4  UNL     1       1.323  20.448  11.551  1.00  0.00    -0.270 OA
HETATM   22  N6  UNL     1       3.371  20.293  12.631  1.00  0.00    -0.336 N
HETATM   23  C13 UNL     1       4.636  20.606  13.212  1.00  0.00     0.127 C
HETATM   24  C16 UNL     1       3.228  18.841  12.874  1.00  0.00     0.189 C
HETATM   25  C14 UNL     1       4.497  19.949  14.604  1.00  0.00     0.022 C
HETATM   26  C15 UNL     1       3.919  18.612  14.198  1.00  0.00     0.037 C
BRANCH  24  27
HETATM   27  C17 UNL     1       3.935  18.115  11.792  1.00  0.00     0.303 C
HETATM   28  O5  UNL     1       3.384  17.186  11.152  1.00  0.00    -0.261 OA
BRANCH  27  29
HETATM   29  O6  UNL     1       5.239  18.446  11.454  1.00  0.00    -0.205 OA
BRANCH  29  30
HETATM   30  N7  UNL     1       6.284  17.673  11.837  1.00  0.00    -0.302 N
ATOM     31  H72 UNL     1       6.819  17.954  12.657  1.00  0.00     0.184 HD
ATOM     32  H71 UNL     1       6.534  16.829  11.322  1.00  0.00     0.184 HD
ENDBRANCH  29  30
ENDBRANCH  27  29
ENDBRANCH  24  27
ENDBRANCH  17  20
ENDBRANCH  16  17
ENDBRANCH  14  16
ENDBRANCH   8  14
ENDBRANCH   5   8
BRANCH   1  33
HETATM   33  N3  UNL     1      -1.864  19.721  10.007  1.00  0.00    -0.327 N
HETATM   34  C4  UNL     1      -1.191  18.669  10.249  1.00  0.00     0.139 A
HETATM   35  C3  UNL     1      -0.734  18.326  11.501  1.00  0.00     0.122 A
HETATM   36  N9  UNL     1      -0.914  17.844   9.200  1.00  0.00    -0.329 N
HETATM   37  N2  UNL     1      -0.817  18.878  12.709  1.00  0.00    -0.346 N
HETATM   38  C20 UNL     1      -0.002  17.156  11.693  1.00  0.00     0.140 A
HETATM   39  C2  UNL     1      -0.173  18.098  13.602  1.00  0.00     0.184 A
ATOM     40  H2  UNL     1      -1.293  19.754  12.926  1.00  0.00     0.167 HD
HETATM   41  N1  UNL     1       0.338  17.023  12.984  1.00  0.00    -0.332 N
HETATM   42  C1  UNL     1       1.100  15.938  13.561  1.00  0.00     0.158 C
HETATM   43  N11 UNL     1       0.220  16.412  10.606  1.00  0.00    -0.329 N
HETATM   44  C18 UNL     1      -0.213  16.727   9.387  1.00  0.00     0.110 A
ATOM     45  H11 UNL     1       0.753  15.549  10.717  1.00  0.00     0.168 HD
ATOM     46  H9  UNL     1      -1.245  18.084   8.266  1.00  0.00     0.168 HD
ATOM     47  H3  UNL     1      -2.168  19.908   9.051  1.00  0.00     0.169 HD
BRANCH  44  48
HETATM   48  C19 UNL     1       0.062  15.859   8.208  1.00  0.00     0.305 C
BRANCH  48  49
HETATM   49  N10 UNL     1       1.343  15.196   8.302  1.00  0.00    -0.073 N
ATOM     50 3H10 UNL     1       1.753  15.317   9.228  1.00  0.00     0.274 HD
ATOM     51 2H10 UNL     1       1.234  14.182   8.305  1.00  0.00     0.274 HD
ATOM     52 1H10 UNL     1       1.988  15.495   7.572  1.00  0.00     0.274 HD
ENDBRANCH  48  49
ENDBRANCH  44  48
ENDBRANCH   1  33
TORSDOF 14
ENDMDL