MODEL 2
REMARK VINA RESULT: -7.708683903      2.705      7.566
REMARK  15 active torsions:
REMARK  status: ('A' for Active; 'I' for Inactive)
REMARK    1  A    between atoms: C2_2  and  O1_3
REMARK    2  A    between atoms: C2_2  and  C3_5
REMARK    3  A    between atoms: C3_5  and  O2_6
REMARK    4  A    between atoms: C3_5  and  N1_8
REMARK    5  A    between atoms: C4_9  and  C5_10
REMARK    6  A    between atoms: C5_10  and  N2_11
REMARK    7  A    between atoms: N2_11  and  C6_13
REMARK    8  A    between atoms: C7_16  and  C8_17
REMARK    9  A    between atoms: C8_17  and  C9_18
REMARK       I    between atoms: C9_18  and  N4_20
REMARK   10  A    between atoms: N4_20  and  C10_22
REMARK   11  A    between atoms: C12_29  and  C13_30
REMARK   12  A    between atoms: C16_37  and  O6_38
REMARK   13  A    between atoms: C20_45  and  N10_46
REMARK   14  A    between atoms: N10_46  and  N11_47
REMARK   15  A    between atoms: N10_46  and  O7_50
ROOT
HETATM    1  C6  UNL     1       0.468  19.375  11.260  1.00  0.00     0.147 A
HETATM    2  N3  UNL     1      -0.455  18.518  11.655  1.00  0.00    -0.341 N
ATOM      3  H3  UNL     1      -1.361  18.526  11.185  1.00  0.00     0.167 HD
HETATM    4  C7  UNL     1      -0.251  17.625  12.659  1.00  0.00     0.052 A
HETATM    5  C12 UNL     1       0.962  17.597  13.311  1.00  0.00     0.132 A
HETATM    6  N8  UNL     1       1.941  18.474  12.929  1.00  0.00    -0.254 N
HETATM    7  C14 UNL     1       3.120  18.472  13.557  1.00  0.00     0.258 A
HETATM    8  O5  UNL     1       3.397  17.688  14.501  1.00  0.00    -0.267 OA
HETATM    9  C15 UNL     1       4.135  19.372  13.190  1.00  0.00     0.130 A
HETATM   10  C16 UNL     1       3.835  20.231  12.162  1.00  0.00     0.146 A
HETATM   11  N9  UNL     1       2.657  20.228  11.541  1.00  0.00    -0.320 N
ATOM     12  H9  UNL     1       2.478  20.885  10.782  1.00  0.00     0.169 HD
HETATM   13  C17 UNL     1       1.708  19.359  11.914  1.00  0.00     0.162 A
ENDROOT
BRANCH   1  14
HETATM   14  N2  UNL     1       0.327  20.231  10.323  1.00  0.00    -0.368 N
ATOM     15  H2  UNL     1       0.978  20.147   9.542  1.00  0.00     0.161 HD
BRANCH  14  16
HETATM   16  C5  UNL     1      -0.624  21.289  10.228  1.00  0.00     0.178 C
BRANCH  16  17
HETATM   17  C4  UNL     1      -0.459  22.337  11.285  1.00  0.00     0.033 A
HETATM   18  N1  UNL     1      -1.073  22.433  12.462  1.00  0.00    -0.307 N
HETATM   19  C20 UNL     1      -0.647  23.521  13.101  1.00  0.00     0.133 A
HETATM   20  C19 UNL     1       0.279  24.144  12.292  1.00  0.00     0.049 A
HETATM   21  C18 UNL     1       0.395  23.395  11.148  1.00  0.00     0.030 A
BRANCH  18  22
HETATM   22  C3  UNL     1      -2.057  21.483  12.949  1.00  0.00     0.254 C
BRANCH  22  23
HETATM   23  C2  UNL     1      -3.368  22.098  13.319  1.00  0.00     0.163 C
HETATM   24  C1  UNL     1      -4.566  21.480  12.672  1.00  0.00     0.044 C
BRANCH  23  25
HETATM   25  O1  UNL     1      -3.574  22.184  14.676  1.00  0.00    -0.392 OA
ATOM     26  H1  UNL     1      -3.364  23.062  14.973  1.00  0.00     0.210 HD
ENDBRANCH  23  25
ENDBRANCH  22  23
BRANCH  22  27
HETATM   27  O2  UNL     1      -1.498  20.758  13.989  1.00  0.00    -0.374 OA
ATOM     28  H2  UNL     1      -2.153  20.360  14.550  1.00  0.00     0.212 HD
ENDBRANCH  22  27
ENDBRANCH  18  22
BRANCH  19  29
HETATM   29  N10 UNL     1      -1.054  23.997  14.410  1.00  0.00    -0.060 NA
BRANCH  29  30
HETATM   30  N11 UNL     1       0.044  24.212  15.233  1.00  0.00    -0.335 NA
ATOM     31 2H11 UNL     1       0.889  23.922  14.741  1.00  0.00     0.173 HD
ATOM     32 1H11 UNL     1      -0.016  23.653  16.084  1.00  0.00     0.173 HD
ENDBRANCH  29  30
BRANCH  29  33
HETATM   33  O7  UNL     1      -1.697  25.162  14.228  1.00  0.00    -0.288 OA
ATOM     34  H7  UNL     1      -1.083  25.764  13.825  1.00  0.00     0.239 HD
ENDBRANCH  29  33
ENDBRANCH  19  29
ENDBRANCH  16  17
ENDBRANCH  14  16
ENDBRANCH   1  14
BRANCH   4  35
HETATM   35  C8  UNL     1      -1.321  16.672  13.016  1.00  0.00     0.163 C
BRANCH  35  36
HETATM   36  C9  UNL     1      -2.682  17.165  12.801  1.00  0.00     0.229 C
HETATM   37  O3  UNL     1      -3.412  16.558  11.947  1.00  0.00    -0.273 OA
HETATM   38  N4  UNL     1      -3.165  18.275  13.509  1.00  0.00    -0.306 N
ATOM     39  H4  UNL     1      -3.173  19.177  13.033  1.00  0.00     0.171 HD
BRANCH  38  40
HETATM   40  C10 UNL     1      -3.599  18.231  14.719  1.00  0.00     0.168 A
HETATM   41  N5  UNL     1      -3.595  19.135  15.697  1.00  0.00    -0.331 N
HETATM   42  C11 UNL     1      -4.110  18.815  16.846  1.00  0.00     0.189 A
ATOM     43  H5  UNL     1      -3.195  20.062  15.547  1.00  0.00     0.168 HD
HETATM   44  N6  UNL     1      -4.623  17.595  16.999  1.00  0.00    -0.320 N
HETATM   45  S1  UNL     1      -4.372  16.887  15.495  1.00  0.00     0.024 SA
ATOM     46  H6  UNL     1      -5.061  17.189  17.826  1.00  0.00     0.175 HD
ENDBRANCH  38  40
ENDBRANCH  35  36
ENDBRANCH   4  35
BRANCH   5  47
HETATM   47  C13 UNL     1       1.213  16.678  14.407  1.00  0.00     0.284 C
HETATM   48  N7  UNL     1       1.806  15.402  14.089  1.00  0.00    -0.056 NA
HETATM   49  O4  UNL     1       0.965  16.882  15.617  1.00  0.00    -0.269 OA
ENDBRANCH   5  47
BRANCH  10  50
HETATM   50  O6  UNL     1       4.821  21.152  11.758  1.00  0.00    -0.346 OA
ATOM     51  H6  UNL     1       4.827  21.430  10.850  1.00  0.00     0.219 HD
ENDBRANCH  10  50
TORSDOF 15
ENDMDL