MODEL 5
REMARK VINA RESULT: -6.980852443      1.967      2.642
REMARK  12 active torsions:
REMARK  status: ('A' for Active; 'I' for Inactive)
REMARK    1  A    between atoms: O1_2  and  N1_3
REMARK    2  A    between atoms: N1_3  and  C2_4
REMARK    3  A    between atoms: N2_6  and  C4_7
REMARK    4  A    between atoms: C5_10  and  N4_11
REMARK    5  A    between atoms: C8_14  and  C9_15
REMARK    6  A    between atoms: C9_15  and  S1_16
REMARK    7  A    between atoms: S1_16  and  C10_17
REMARK    8  A    between atoms: C11_22  and  C12_23
REMARK    9  A    between atoms: C12_23  and  N7_24
REMARK   10  A    between atoms: C16_34  and  N9_35
REMARK   11  A    between atoms: C17_40  and  N11_41
REMARK       I    between atoms: N11_41  and  C18_43
REMARK   12  A    between atoms: C21_52  and  O2_53
ROOT
HETATM    1  C4  UNL     1      -0.083  16.831   9.985  1.00  0.00     0.682 A
HETATM    2  N3  UNL     1      -1.392  17.146   9.883  1.00  0.00    -0.174 N
ATOM      3  H3  UNL     1      -1.685  18.062  10.221  1.00  0.00     0.186 HD
HETATM    4  C5  UNL     1      -2.337  16.342   9.372  1.00  0.00     0.149 A
HETATM    5  C15 UNL     1      -1.948  15.104   8.914  1.00  0.00     0.124 A
HETATM    6  N8  UNL     1      -2.773  14.207   8.402  1.00  0.00    -0.186 N
ATOM      7  H8  UNL     1      -3.763  14.440   8.327  1.00  0.00     0.184 HD
HETATM    8  C16 UNL     1      -2.357  12.986   7.968  1.00  0.00     0.678 A
HETATM    9  N10 UNL     1      -1.060  12.631   8.047  1.00  0.00    -0.174 N
ATOM     10  H10 UNL     1      -0.757  11.714   7.719  1.00  0.00     0.186 HD
HETATM   11  C17 UNL     1      -0.171  13.492   8.557  1.00  0.00     0.153 A
HETATM   12  C19 UNL     1      -0.592  14.734   8.999  1.00  0.00     0.124 A
HETATM   13  N14 UNL     1       0.265  15.614   9.528  1.00  0.00    -0.185 N
ATOM     14  H14 UNL     1       1.247  15.346   9.589  1.00  0.00     0.184 HD
ENDROOT
BRANCH   4  15
HETATM   15  N4  UNL     1      -3.688  16.744   9.247  1.00  0.00    -0.365 N
HETATM   16  C6  UNL     1      -4.032  17.728   8.239  1.00  0.00     0.125 C
HETATM   17  C7  UNL     1      -5.392  18.357   8.603  1.00  0.00     0.025 C
HETATM   18  C8  UNL     1      -5.489  18.532  10.074  1.00  0.00    -0.002 C
HETATM   19  C13 UNL     1      -5.647  17.166  10.714  1.00  0.00     0.025 C
HETATM   20  C14 UNL     1      -4.694  16.174  10.117  1.00  0.00     0.125 C
BRANCH  18  21
HETATM   21  C9  UNL     1      -6.602  19.419  10.488  1.00  0.00     0.086 C
BRANCH  21  22
HETATM   22  S1  UNL     1      -6.501  20.324  11.990  1.00  0.00    -0.103 SA
BRANCH  22  23
HETATM   23  C10 UNL     1      -4.939  21.063  12.404  1.00  0.00     0.128 A
HETATM   24  N5  UNL     1      -3.763  20.898  11.771  1.00  0.00    -0.287 N
HETATM   25  N6  UNL     1      -2.727  21.451  12.209  1.00  0.00    -0.295 N
ATOM     26  H5  UNL     1      -3.715  20.321  10.932  1.00  0.00     0.188 HD
HETATM   27  C11 UNL     1      -2.780  22.206  13.302  1.00  0.00     0.094 A
ATOM     28  H6  UNL     1      -1.839  21.323  11.724  1.00  0.00     0.187 HD
HETATM   29  S2  UNL     1      -4.436  22.088  13.695  1.00  0.00    -0.048 SA
BRANCH  27  30
HETATM   30  C12 UNL     1      -1.665  22.949  13.983  1.00  0.00     0.295 C
BRANCH  30  31
HETATM   31  N7  UNL     1      -0.382  22.561  13.423  1.00  0.00    -0.073 N
ATOM     32  H73 UNL     1      -0.439  21.675  12.921  1.00  0.00     0.274 HD
ATOM     33  H72 UNL     1      -0.111  23.159  12.643  1.00  0.00     0.274 HD
ATOM     34  H71 UNL     1       0.332  22.539  14.151  1.00  0.00     0.274 HD
ENDBRANCH  30  31
ENDBRANCH  27  30
ENDBRANCH  22  23
ENDBRANCH  21  22
ENDBRANCH  18  21
ENDBRANCH   4  15
BRANCH   1  35
HETATM   35  N2  UNL     1       0.864  17.726  10.537  1.00  0.00    -0.213 N
HETATM   36  C3  UNL     1       1.987  17.370  11.350  1.00  0.00     0.167 C
HETATM   37  C2  UNL     1       2.075  18.521  12.328  1.00  0.00     0.155 C
HETATM   38  C21 UNL     1       1.203  19.623  11.783  1.00  0.00     0.159 C
HETATM   39  C20 UNL     1       0.862  19.150  10.381  1.00  0.00     0.174 C
BRANCH  37  40
HETATM   40  N1  UNL     1       3.430  19.032  12.415  1.00  0.00    -0.092 NA
BRANCH  40  41
HETATM   41  O1  UNL     1       4.183  18.324  11.546  1.00  0.00    -0.291 OA
HETATM   42  C1  UNL     1       5.438  18.057  12.115  1.00  0.00     0.231 C
ENDBRANCH  40  41
ENDBRANCH  37  40
BRANCH  38  43
HETATM   43  O2  UNL     1       0.037  19.751  12.570  1.00  0.00    -0.392 OA
ATOM     44  H2  UNL     1      -0.236  20.660  12.601  1.00  0.00     0.210 HD
ENDBRANCH  38  43
ENDBRANCH   1  35
BRANCH   8  45
HETATM   45  N9  UNL     1      -3.203  12.150   7.475  1.00  0.00    -0.234 N
ATOM     46  H92 UNL     1      -3.939  12.497   6.859  1.00  0.00     0.174 HD
ATOM     47  H91 UNL     1      -3.135  11.158   7.701  1.00  0.00     0.174 HD
ENDBRANCH   8  45
BRANCH  11  48
HETATM   48  N11 UNL     1       1.085  13.224   8.666  1.00  0.00    -0.315 N
HETATM   49  C18 UNL     1       1.773  12.302   7.871  1.00  0.00     0.187 C
HETATM   50  N12 UNL     1       2.628  12.705   7.007  1.00  0.00    -0.373 N
HETATM   51  N13 UNL     1       1.537  10.916   8.005  1.00  0.00    -0.064 NA
ATOM     52 2H12 UNL     1       2.798  13.707   6.910  1.00  0.00     0.158 HD
ATOM     53 1H12 UNL     1       3.129  12.033   6.427  1.00  0.00     0.158 HD
ATOM     54  H11 UNL     1       1.615  13.721   9.383  1.00  0.00     0.170 HD
ENDBRANCH  11  48
TORSDOF 12
ENDMDL