MODEL 3
REMARK VINA RESULT: -7.617824211      2.202      4.099
REMARK  12 active torsions:
REMARK  status: ('A' for Active; 'I' for Inactive)
REMARK    1  A    between atoms: C2_2  and  O1_3
REMARK    2  A    between atoms: O1_3  and  C3_4
REMARK    3  A    between atoms: C3_4  and  C4_6
REMARK    4  A    between atoms: C4_6  and  C5_7
REMARK    5  A    between atoms: C6_9  and  N1_10
REMARK       I    between atoms: N1_10  and  C7_12
REMARK       I    between atoms: C7_12  and  N2_14
REMARK    6  A    between atoms: N2_14  and  S2_16
REMARK    7  A    between atoms: S2_16  and  C8_19
REMARK    8  A    between atoms: N3_21  and  C10_22
REMARK    9  A    between atoms: C10_22  and  C11_23
REMARK   10  A    between atoms: C11_23  and  N4_24
REMARK   11  A    between atoms: C14_31  and  N7_32
REMARK   12  A    between atoms: C15_37  and  N9_38
ROOT
HETATM    1  C8  UNL     1       0.024  23.753  12.678  1.00  0.00     0.182 A
HETATM    2  C9  UNL     1       1.217  23.067  12.439  1.00  0.00     0.156 A
HETATM    3  N3  UNL     1       1.644  23.359  11.199  1.00  0.00    -0.285 N
HETATM    4  N10 UNL     1       0.729  24.206  10.698  1.00  0.00    -0.240 N
ATOM      5  H10 UNL     1       0.767  24.618   9.765  1.00  0.00     0.208 HD
HETATM    6  N11 UNL     1      -0.207  24.429  11.564  1.00  0.00    -0.273 N
ATOM      7  H11 UNL     1      -1.009  25.039  11.409  1.00  0.00     0.189 HD
ENDROOT
BRANCH   1   8
HETATM    8  S2  UNL     1      -0.965  23.678  14.112  1.00  0.00     0.284 S
HETATM    9  O4  UNL     1      -0.080  24.101  15.292  1.00  0.00    -0.199 OA
HETATM   10  O5  UNL     1      -1.964  24.844  14.019  1.00  0.00    -0.199 OA
BRANCH   8  11
HETATM   11  N2  UNL     1      -1.761  22.234  14.415  1.00  0.00    -0.230 N
HETATM   12  C7  UNL     1      -3.132  22.013  14.278  1.00  0.00     0.335 C
HETATM   13  N1  UNL     1      -3.743  20.737  14.541  1.00  0.00    -0.288 N
HETATM   14  O3  UNL     1      -3.890  22.944  13.912  1.00  0.00    -0.246 OA
ATOM     15  H1  UNL     1      -4.499  20.657  15.221  1.00  0.00     0.172 HD
ATOM     16  H2  UNL     1      -1.192  21.447  14.726  1.00  0.00     0.183 HD
BRANCH  13  17
HETATM   17  C6  UNL     1      -3.314  19.674  13.892  1.00  0.00     0.154 A
HETATM   18  S1  UNL     1      -3.764  19.233  12.270  1.00  0.00    -0.054 SA
HETATM   19  C5  UNL     1      -2.780  17.815  12.149  1.00  0.00     0.036 A
HETATM   20  C17 UNL     1      -2.176  17.791  13.366  1.00  0.00     0.132 A
HETATM   21  N12 UNL     1      -2.461  18.731  14.224  1.00  0.00    -0.324 N
HETATM   22  N13 UNL     1      -1.211  16.723  13.659  1.00  0.00    -0.082 NA
ATOM     23  H12 UNL     1      -2.023  18.735  15.146  1.00  0.00     0.169 HD
BRANCH  19  24
HETATM   24  C4  UNL     1      -2.651  16.870  10.984  1.00  0.00     0.161 C
BRANCH  24  25
HETATM   25  C3  UNL     1      -1.414  17.135  10.255  1.00  0.00     0.263 C
HETATM   26  O2  UNL     1      -0.419  16.391  10.379  1.00  0.00    -0.265 OA
BRANCH  25  27
HETATM   27  O1  UNL     1      -1.321  18.247   9.390  1.00  0.00    -0.322 OA
BRANCH  27  28
HETATM   28  C2  UNL     1      -2.440  18.519   8.552  1.00  0.00     0.174 C
HETATM   29  C1  UNL     1      -2.588  19.998   8.402  1.00  0.00     0.034 C
ENDBRANCH  27  28
ENDBRANCH  25  27
ENDBRANCH  24  25
ENDBRANCH  19  24
ENDBRANCH  13  17
ENDBRANCH   8  11
ENDBRANCH   1   8
BRANCH   3  30
HETATM   30  C10 UNL     1       2.808  22.837  10.536  1.00  0.00     0.170 C
BRANCH  30  31
HETATM   31  C11 UNL     1       3.443  21.643  11.143  1.00  0.00     0.152 C
BRANCH  31  32
HETATM   32  N4  UNL     1       2.601  20.507  11.282  1.00  0.00    -0.335 N
HETATM   33  C12 UNL     1       1.550  20.172  10.487  1.00  0.00     0.185 A
HETATM   34  N5  UNL     1       0.978  19.060  10.907  1.00  0.00    -0.336 N
HETATM   35  C13 UNL     1       1.632  18.631  11.986  1.00  0.00     0.152 A
ATOM     36  H5  UNL     1       0.172  18.604  10.479  1.00  0.00     0.168 HD
HETATM   37  N6  UNL     1       1.424  17.541  12.754  1.00  0.00    -0.174 N
HETATM   38  C16 UNL     1       2.649  19.545  12.217  1.00  0.00     0.125 A
HETATM   39  C14 UNL     1       2.249  17.330  13.804  1.00  0.00     0.679 A
ATOM     40  H6  UNL     1       0.663  16.894  12.548  1.00  0.00     0.186 HD
HETATM   41  N8  UNL     1       3.223  18.182  14.046  1.00  0.00    -0.175 N
HETATM   42  C15 UNL     1       3.475  19.298  13.298  1.00  0.00     0.145 A
ATOM     43  H8  UNL     1       3.831  17.997  14.844  1.00  0.00     0.186 HD
BRANCH  39  44
HETATM   44  N7  UNL     1       2.032  16.276  14.522  1.00  0.00    -0.234 N
ATOM     45  H72 UNL     1       1.145  15.772  14.525  1.00  0.00     0.174 HD
ATOM     46  H71 UNL     1       2.798  15.949  15.111  1.00  0.00     0.174 HD
ENDBRANCH  39  44
BRANCH  42  47
HETATM   47  N9  UNL     1       4.409  20.011  13.621  1.00  0.00    -0.383 N
ATOM     48  H92 UNL     1       5.312  20.020  13.146  1.00  0.00     0.157 HD
ATOM     49  H91 UNL     1       4.287  20.638  14.416  1.00  0.00     0.157 HD
ENDBRANCH  42  47
ENDBRANCH  31  32
ENDBRANCH  30  31
ENDBRANCH   3  30
TORSDOF 12
ENDMDL