MODEL 3
REMARK VINA RESULT: -7.867950878      0.946      1.523
REMARK  10 active torsions:
REMARK  status: ('A' for Active; 'I' for Inactive)
REMARK    1  A    between atoms: O1_2  and  C2_3
REMARK    2  A    between atoms: C4_5  and  C5_6
REMARK    3  A    between atoms: C5_6  and  C6_7
REMARK    4  A    between atoms: C6_7  and  O2_8
REMARK    5  A    between atoms: C6_7  and  C9_20
REMARK    6  A    between atoms: O2_8  and  N1_9
REMARK       I    between atoms: C7_11  and  N3_13
REMARK       I    between atoms: N3_13  and  C8_15
REMARK    7  A    between atoms: C10_21  and  O3_22
REMARK    8  A    between atoms: C14_29  and  C15_30
REMARK       I    between atoms: C15_30  and  N7_32
REMARK    9  A    between atoms: N7_32  and  S1_34
REMARK   10  A    between atoms: C18_46  and  O8_47
ROOT
HETATM    1  C6  UNL     1       0.597  20.863  11.416  1.00  0.00     0.196 C
ENDROOT
BRANCH   1   2
HETATM    2  C5  UNL     1       0.174  20.498  10.049  1.00  0.00     0.098 C
BRANCH   2   3
HETATM    3  C4  UNL     1      -0.387  19.098  10.031  1.00  0.00     0.031 A
HETATM    4  C3  UNL     1       0.387  17.971   9.912  1.00  0.00     0.068 A
HETATM    5  C2  UNL     1      -0.195  16.698   9.859  1.00  0.00     0.122 A
HETATM    6  C18 UNL     1      -1.569  16.612   9.930  1.00  0.00     0.191 A
HETATM    7  N10 UNL     1      -2.283  17.743  10.046  1.00  0.00    -0.278 N
HETATM    8  N9  UNL     1      -1.714  18.959  10.096  1.00  0.00    -0.303 N
ATOM      9  H10 UNL     1      -3.300  17.676  10.099  1.00  0.00     0.189 HD
ATOM     10  H9  UNL     1      -2.303  19.787  10.184  1.00  0.00     0.186 HD
BRANCH   5  11
HETATM   11  O1  UNL     1       0.520  15.533   9.741  1.00  0.00    -0.352 OA
HETATM   12  C1  UNL     1       1.075  14.995   8.580  1.00  0.00     0.210 C
ENDBRANCH   5  11
BRANCH   6  13
HETATM   13  O8  UNL     1      -2.235  15.383   9.885  1.00  0.00    -0.338 OA
HETATM   14  C19 UNL     1      -2.843  14.948   8.701  1.00  0.00     0.211 C
ENDBRANCH   6  13
ENDBRANCH   2   3
ENDBRANCH   1   2
BRANCH   1  15
HETATM   15  O2  UNL     1       1.065  19.739  12.160  1.00  0.00    -0.267 OA
BRANCH  15  16
HETATM   16  N1  UNL     1       2.235  19.373  12.529  1.00  0.00    -0.237 N
HETATM   17  C7  UNL     1       3.046  18.495  12.782  1.00  0.00     0.214 C
HETATM   18  N2  UNL     1       2.944  17.082  12.745  1.00  0.00    -0.061 NA
HETATM   19  N3  UNL     1       4.371  18.946  13.196  1.00  0.00    -0.303 N
HETATM   20  C8  UNL     1       5.332  19.191  12.187  1.00  0.00     0.188 C
ATOM     21  H3  UNL     1       4.598  19.080  14.181  1.00  0.00     0.171 HD
HETATM   22  N4  UNL     1       5.702  18.232  11.414  1.00  0.00    -0.373 N
HETATM   23  N5  UNL     1       5.894  20.468  12.007  1.00  0.00    -0.064 NA
ATOM     24  H42 UNL     1       5.294  17.306  11.545  1.00  0.00     0.158 HD
ATOM     25  H41 UNL     1       6.396  18.409  10.687  1.00  0.00     0.158 HD
ATOM     26  H1  UNL     1       2.740  20.244  12.690  1.00  0.00     0.197 HD
ENDBRANCH  15  16
ENDBRANCH   1  15
BRANCH   1  27
HETATM   27  C9  UNL     1      -0.300  21.704  12.212  1.00  0.00     0.035 A
HETATM   28  C10 UNL     1      -0.076  23.102  12.231  1.00  0.00     0.077 A
HETATM   29  C11 UNL     1      -0.830  23.968  12.970  1.00  0.00     0.039 A
HETATM   30  C12 UNL     1      -1.848  23.452  13.721  1.00  0.00     0.035 A
HETATM   31  C13 UNL     1      -2.114  22.082  13.738  1.00  0.00     0.060 A
HETATM   32  N6  UNL     1      -3.120  21.604  14.489  1.00  0.00    -0.349 N
HETATM   33  C17 UNL     1      -1.325  21.208  12.971  1.00  0.00     0.070 A
HETATM   34  C14 UNL     1      -3.395  20.284  14.527  1.00  0.00     0.117 A
ATOM     35  H6  UNL     1      -3.685  22.249  15.041  1.00  0.00     0.166 HD
HETATM   36  C16 UNL     1      -2.601  19.453  13.763  1.00  0.00     0.123 A
HETATM   37  N8  UNL     1      -1.597  19.898  13.008  1.00  0.00    -0.361 N
ATOM     38  H8  UNL     1      -1.037  19.243  12.461  1.00  0.00     0.165 HD
BRANCH  28  39
HETATM   39  O3  UNL     1       0.962  23.612  11.459  1.00  0.00    -0.360 OA
ATOM     40  H3  UNL     1       1.249  23.110  10.706  1.00  0.00     0.217 HD
ENDBRANCH  28  39
BRANCH  34  41
HETATM   41  C15 UNL     1      -4.480  19.765  15.350  1.00  0.00     0.284 C
HETATM   42  O4  UNL     1      -5.642  19.723  14.929  1.00  0.00    -0.265 OA
HETATM   43  N7  UNL     1      -4.200  19.299  16.660  1.00  0.00    -0.230 N
ATOM     44  H7  UNL     1      -3.240  19.337  17.002  1.00  0.00     0.184 HD
BRANCH  43  45
HETATM   45  S1  UNL     1      -5.433  18.668  17.696  1.00  0.00     0.211 S
HETATM   46  O5  UNL     1      -6.498  19.692  17.961  1.00  0.00    -0.578 OA
HETATM   47  O6  UNL     1      -4.829  18.276  19.031  1.00  0.00    -0.578 OA
HETATM   48  O7  UNL     1      -6.104  17.271  17.053  1.00  0.00    -0.578 OA
ENDBRANCH  43  45
ENDBRANCH  34  41
ENDBRANCH   1  27
TORSDOF 10
ENDMDL