MODEL 5
REMARK VINA RESULT: -7.318247644      3.352      7.163
REMARK  11 active torsions:
REMARK  status: ('A' for Active; 'I' for Inactive)
REMARK    1  A    between atoms: C2_2  and  C3_3
REMARK    2  A    between atoms: C3_3  and  O1_4
REMARK    3  A    between atoms: C4_9  and  N2_10
REMARK    4  A    between atoms: C7_15  and  N4_16
REMARK    5  A    between atoms: N6_22  and  N7_24
REMARK    6  A    between atoms: N7_24  and  C9_26
REMARK    7  A    between atoms: C12_34  and  S1_35
REMARK    8  A    between atoms: S1_35  and  C13_36
REMARK    9  A    between atoms: C13_36  and  C14_37
REMARK   10  A    between atoms: C14_37  and  S2_38
REMARK   11  A    between atoms: N13_46  and  N14_47
ROOT
HETATM    1  C9  UNL     1      -3.294  18.103  16.354  1.00  0.00     0.207 C
HETATM    2  N8  UNL     1      -4.403  17.574  16.681  1.00  0.00    -0.289 N
ATOM      3  H8  UNL     1      -4.413  16.576  16.896  1.00  0.00     0.178 HD
HETATM    4  C10 UNL     1      -5.601  18.272  16.765  1.00  0.00     0.182 C
HETATM    5  N9  UNL     1      -6.609  18.850  16.854  1.00  0.00    -0.172 NA
ENDROOT
BRANCH   1   6
HETATM    6  N7  UNL     1      -2.106  17.334  16.287  1.00  0.00    -0.281 N
ATOM      7  H7  UNL     1      -2.053  16.457  16.805  1.00  0.00     0.188 HD
BRANCH   6   8
HETATM    8  N6  UNL     1      -1.007  17.742  15.534  1.00  0.00    -0.131 N
HETATM    9  C8  UNL     1      -1.051  17.557  14.251  1.00  0.00     0.700 A
HETATM   10  N5  UNL     1      -2.128  16.986  13.673  1.00  0.00    -0.173 N
HETATM   11  N10 UNL     1      -0.001  17.944  13.509  1.00  0.00    -0.172 N
HETATM   12  C7  UNL     1      -2.215  16.775  12.349  1.00  0.00     0.145 A
ATOM     13  H5  UNL     1      -2.908  16.703  14.266  1.00  0.00     0.186 HD
HETATM   14  C6  UNL     1      -1.112  17.185  11.593  1.00  0.00     0.123 A
HETATM   15  N3  UNL     1      -0.895  17.114  10.273  1.00  0.00    -0.346 N
HETATM   16  C11 UNL     1      -0.002  17.770  12.160  1.00  0.00     0.156 A
HETATM   17  C5  UNL     1       0.312  17.640  10.034  1.00  0.00     0.187 A
ATOM     18  H3  UNL     1      -1.534  16.730   9.576  1.00  0.00     0.167 HD
HETATM   19  N2  UNL     1       0.869  18.045  11.185  1.00  0.00    -0.296 N
ATOM     20  H10 UNL     1       0.806  18.374  13.962  1.00  0.00     0.186 HD
ATOM     21  H6  UNL     1      -0.195  18.173  15.977  1.00  0.00     0.205 HD
BRANCH  12  22
HETATM   22  N4  UNL     1      -3.235  16.231  11.780  1.00  0.00    -0.383 N
ATOM     23  H42 UNL     1      -4.106  16.728  11.590  1.00  0.00     0.157 HD
ATOM     24  H41 UNL     1      -3.210  15.253  11.492  1.00  0.00     0.157 HD
ENDBRANCH  12  22
BRANCH  19  25
HETATM   25  C4  UNL     1       2.142  18.666  11.425  1.00  0.00     0.312 C
HETATM   26  N1  UNL     1       2.990  17.869  12.291  1.00  0.00    -0.018 N
HETATM   27  C2  UNL     1       4.179  18.623  12.672  1.00  0.00     0.246 C
ATOM     28  H12 UNL     1       3.228  16.972  11.868  1.00  0.00     0.283 HD
ATOM     29  H11 UNL     1       2.483  17.522  13.105  1.00  0.00     0.283 HD
HETATM   30  C1  UNL     1       4.218  18.941  14.144  1.00  0.00     0.081 C
HETATM   31  O2  UNL     1       4.328  19.762  11.938  1.00  0.00    -0.352 OA
HETATM   32  C19 UNL     1       3.334  20.700  12.017  1.00  0.00     0.190 C
HETATM   33  C12 UNL     1       1.977  20.051  12.040  1.00  0.00     0.122 C
BRANCH  27  34
HETATM   34  C3  UNL     1       5.364  17.715  12.299  1.00  0.00     0.232 C
BRANCH  34  35
HETATM   35  O1  UNL     1       5.848  18.127  11.051  1.00  0.00    -0.396 OA
ATOM     36  H1  UNL     1       6.795  18.046  11.063  1.00  0.00     0.209 HD
ENDBRANCH  34  35
ENDBRANCH  27  34
BRANCH  33  37
HETATM   37  S1  UNL     1       0.811  21.019  11.092  1.00  0.00    -0.157 SA
BRANCH  37  38
HETATM   38  C13 UNL     1       0.237  22.525  11.855  1.00  0.00     0.085 C
BRANCH  38  39
HETATM   39  C14 UNL     1      -1.231  22.492  12.079  1.00  0.00     0.098 C
BRANCH  39  40
HETATM   40  S2  UNL     1      -1.810  20.872  12.549  1.00  0.00    -0.079 SA
HETATM   41  N11 UNL     1      -2.610  20.106  11.184  1.00  0.00    -0.178 NA
HETATM   42  C15 UNL     1      -3.874  20.754  11.243  1.00  0.00     0.184 C
HETATM   43  C16 UNL     1      -4.285  20.992  12.620  1.00  0.00     0.083 A
HETATM   44  C17 UNL     1      -3.250  21.098  13.518  1.00  0.00     0.102 A
HETATM   45  N13 UNL     1      -5.411  21.157  13.340  1.00  0.00    -0.258 N
HETATM   46  N12 UNL     1      -3.707  21.317  14.730  1.00  0.00    -0.343 N
HETATM   47  C18 UNL     1      -5.057  21.354  14.621  1.00  0.00     0.207 A
ATOM     48  H12 UNL     1      -3.157  21.435  15.581  1.00  0.00     0.167 HD
BRANCH  45  49
HETATM   49  N14 UNL     1      -6.746  21.144  12.924  1.00  0.00    -0.338 N
ATOM     50 2H14 UNL     1      -7.269  20.278  12.788  1.00  0.00     0.177 HD
ATOM     51 1H14 UNL     1      -7.368  21.923  12.707  1.00  0.00     0.177 HD
ENDBRANCH  45  49
ENDBRANCH  39  40
ENDBRANCH  38  39
ENDBRANCH  37  38
ENDBRANCH  33  37
ENDBRANCH  19  25
ENDBRANCH   6   8
ENDBRANCH   1   6
TORSDOF 11
ENDMDL