MODEL 3
REMARK VINA RESULT: -8.201969525      3.465      8.259
REMARK  12 active torsions:
REMARK  status: ('A' for Active; 'I' for Inactive)
REMARK    1  A    between atoms: C1_2  and  C2_3
REMARK    2  A    between atoms: C2_3  and  C3_4
REMARK    3  A    between atoms: C3_4  and  C4_5
REMARK    4  A    between atoms: C4_5  and  C5_6
REMARK    5  A    between atoms: C5_6  and  C6_7
REMARK    6  A    between atoms: C6_7  and  N2_8
REMARK    7  A    between atoms: C9_12  and  N3_13
REMARK    8  A    between atoms: C18_30  and  N8_31
REMARK       I    between atoms: N8_31  and  C19_33
REMARK    9  A    between atoms: C19_33  and  C20_35
REMARK   10  A    between atoms: C20_35  and  N9_36
REMARK   11  A    between atoms: C20_35  and  N10_40
REMARK   12  A    between atoms: N13_50  and  O5_52
ROOT
HETATM    1  N2  UNL     1      -2.503  18.816  10.929  1.00  0.00    -0.264 N
HETATM    2  C7  UNL     1      -3.094  18.940  12.149  1.00  0.00     0.282 A
HETATM    3  O1  UNL     1      -3.881  18.134  12.709  1.00  0.00    -0.265 OA
HETATM    4  C8  UNL     1      -2.683  20.124  12.695  1.00  0.00     0.159 A
HETATM    5  C9  UNL     1      -2.972  20.738  13.903  1.00  0.00     0.160 A
HETATM    6  N6  UNL     1      -2.375  21.920  14.105  1.00  0.00    -0.332 N
ATOM      7  H6  UNL     1      -2.571  22.394  14.986  1.00  0.00     0.168 HD
HETATM    8  C16 UNL     1      -1.544  22.536  13.253  1.00  0.00     0.149 A
HETATM    9  C17 UNL     1      -0.965  23.754  13.528  1.00  0.00     0.290 A
HETATM   10  O2  UNL     1      -1.245  24.293  14.634  1.00  0.00    -0.265 OA
HETATM   11  N7  UNL     1      -0.137  24.341  12.652  1.00  0.00    -0.154 N
ATOM     12  H7  UNL     1       0.285  25.244  12.869  1.00  0.00     0.187 HD
HETATM   13  C18 UNL     1       0.130  23.731  11.489  1.00  0.00     0.689 A
HETATM   14  N11 UNL     1      -0.422  22.532  11.188  1.00  0.00    -0.173 N
ATOM     15  H11 UNL     1      -0.201  22.091  10.296  1.00  0.00     0.186 HD
HETATM   16  C21 UNL     1      -1.255  21.912  12.038  1.00  0.00     0.165 A
HETATM   17  N12 UNL     1      -1.809  20.722  11.746  1.00  0.00    -0.237 N
HETATM   18  C22 UNL     1      -1.729  19.894  10.690  1.00  0.00     0.338 A
HETATM   19  O4  UNL     1      -1.069  20.033   9.630  1.00  0.00    -0.246 OA
ENDROOT
BRANCH  13  20
HETATM   20  N8  UNL     1       0.911  24.253  10.628  1.00  0.00    -0.156 N
HETATM   21  C19 UNL     1       1.933  23.591   9.927  1.00  0.00     0.294 C
HETATM   22  O3  UNL     1       1.630  22.648   9.150  1.00  0.00    -0.268 OA
ATOM     23  H8  UNL     1       0.782  25.245  10.429  1.00  0.00     0.187 HD
BRANCH  21  24
HETATM   24  C20 UNL     1       3.373  23.942  10.049  1.00  0.00     0.469 C
BRANCH  24  25
HETATM   25  N9  UNL     1       3.516  25.172  10.829  1.00  0.00    -0.042 N
ATOM     26  H93 UNL     1       3.211  25.995  10.308  1.00  0.00     0.277 HD
ATOM     27  H92 UNL     1       2.841  25.223  11.592  1.00  0.00     0.277 HD
ATOM     28  H91 UNL     1       4.476  25.260  11.159  1.00  0.00     0.277 HD
ENDBRANCH  24  25
BRANCH  24  29
HETATM   29  N10 UNL     1       4.137  22.927  10.730  1.00  0.00    -0.042 N
ATOM     30 3H10 UNL     1       4.585  22.298  10.064  1.00  0.00     0.277 HD
ATOM     31 2H10 UNL     1       4.968  23.326  11.166  1.00  0.00     0.277 HD
ATOM     32 1H10 UNL     1       3.582  22.407  11.409  1.00  0.00     0.277 HD
ENDBRANCH  24  29
ENDBRANCH  21  24
ENDBRANCH  13  20
BRANCH   5  33
HETATM   33  N3  UNL     1      -3.849  20.132  14.847  1.00  0.00    -0.219 N
HETATM   34  N4  UNL     1      -3.579  19.230  15.776  1.00  0.00    -0.013 NA
HETATM   35  N5  UNL     1      -4.656  18.904  16.469  1.00  0.00    -0.281 N
HETATM   36  C10 UNL     1      -5.694  19.609  15.991  1.00  0.00     0.074 A
ATOM     37  H5  UNL     1      -4.693  18.231  17.235  1.00  0.00     0.184 HD
HETATM   38  C11 UNL     1      -7.029  19.674  16.323  1.00  0.00     0.033 A
HETATM   39  C15 UNL     1      -5.183  20.383  14.970  1.00  0.00     0.084 A
HETATM   40  C12 UNL     1      -7.824  20.536  15.598  1.00  0.00     0.002 A
HETATM   41  C13 UNL     1      -7.332  21.316  14.575  1.00  0.00     0.002 A
HETATM   42  C14 UNL     1      -5.980  21.239  14.253  1.00  0.00     0.034 A
ENDBRANCH   5  33
BRANCH   1  43
HETATM   43  C6  UNL     1      -2.705  17.685  10.055  1.00  0.00     0.137 C
BRANCH  43  44
HETATM   44  C5  UNL     1      -1.763  16.543  10.376  1.00  0.00     0.020 C
BRANCH  44  45
HETATM   45  C4  UNL     1      -0.556  16.674   9.475  1.00  0.00     0.002 C
BRANCH  45  46
HETATM   46  C3  UNL     1       0.726  16.659  10.266  1.00  0.00     0.007 C
BRANCH  46  47
HETATM   47  C2  UNL     1       0.617  17.237  11.640  1.00  0.00     0.075 C
BRANCH  47  48
HETATM   48  C1  UNL     1       1.442  18.410  11.914  1.00  0.00     0.113 C
HETATM   49  N1  UNL     1       2.225  18.596  13.064  1.00  0.00    -0.086 NA
HETATM   50  N13 UNL     1       1.449  19.358  11.013  1.00  0.00    -0.260 N
ATOM     51  H13 UNL     1       0.892  19.253  10.165  1.00  0.00     0.195 HD
BRANCH  50  52
HETATM   52  O5  UNL     1       2.188  20.476  11.192  1.00  0.00    -0.289 OA
ATOM     53  H5  UNL     1       2.678  20.854  10.472  1.00  0.00     0.244 HD
ENDBRANCH  50  52
ENDBRANCH  47  48
ENDBRANCH  46  47
ENDBRANCH  45  46
ENDBRANCH  44  45
ENDBRANCH  43  44
ENDBRANCH   1  43
TORSDOF 12
ENDMDL