MODEL 3
REMARK VINA RESULT: -7.562180367      2.347      3.138
REMARK  9 active torsions:
REMARK  status: ('A' for Active; 'I' for Inactive)
REMARK    1  A    between atoms: C3_4  and  C4_5
REMARK       I    between atoms: C4_5  and  N2_7
REMARK    2  A    between atoms: N2_7  and  C5_9
REMARK    3  A    between atoms: C5_9  and  C6_10
REMARK    4  A    between atoms: C5_9  and  C7_13
REMARK    5  A    between atoms: C7_13  and  N4_14
REMARK    6  A    between atoms: C7_13  and  C8_18
REMARK    7  A    between atoms: C13_28  and  N7_29
REMARK    8  A    between atoms: N7_29  and  C14_31
REMARK    9  A    between atoms: N10_45  and  N11_47
REMARK       I    between atoms: N11_47  and  C23_49
ROOT
HETATM    1  C1  UNL     1      -5.126  16.739  11.255  1.00  0.00     0.175 C
HETATM    2  N1  UNL     1      -4.033  17.600  11.637  1.00  0.00    -0.196 N
HETATM    3  C2  UNL     1      -2.860  17.615  10.908  1.00  0.00     0.144 A
HETATM    4  C3  UNL     1      -2.030  18.519  11.500  1.00  0.00     0.132 A
HETATM    5  N6  UNL     1      -2.688  19.018  12.542  1.00  0.00    -0.185 N
ATOM      6  H6  UNL     1      -2.313  19.722  13.177  1.00  0.00     0.184 HD
HETATM    7  C13 UNL     1      -3.942  18.462  12.652  1.00  0.00     0.681 A
ENDROOT
BRANCH   7   8
HETATM    8  N7  UNL     1      -4.826  18.827  13.690  1.00  0.00    -0.215 N
ATOM      9  H7  UNL     1      -4.625  18.395  14.592  1.00  0.00     0.178 HD
BRANCH   8  10
HETATM   10  C14 UNL     1      -5.946  19.693  13.688  1.00  0.00     0.156 C
HETATM   11  C15 UNL     1      -6.233  20.220  12.286  1.00  0.00     0.060 C
HETATM   12  C16 UNL     1      -7.413  19.711  11.591  1.00  0.00    -0.008 C
HETATM   13  C17 UNL     1      -8.782  19.966  12.020  1.00  0.00     0.079 C
HETATM   14  N8  UNL     1      -9.395  21.201  11.999  1.00  0.00    -0.393 N
HETATM   15  C18 UNL     1     -10.139  21.704  13.112  1.00  0.00     0.184 C
ATOM     16  H8  UNL     1      -9.315  21.776  11.161  1.00  0.00     0.159 HD
HETATM   17  C19 UNL     1      -9.200  21.929  14.296  1.00  0.00     0.069 A
HETATM   18  N9  UNL     1      -8.008  21.433  14.181  1.00  0.00    -0.350 N
HETATM   19  S1  UNL     1      -9.087  22.633  15.831  1.00  0.00    -0.085 SA
HETATM   20  C20 UNL     1      -7.081  21.528  15.082  1.00  0.00     0.065 A
ATOM     21  H9  UNL     1      -7.784  20.932  13.321  1.00  0.00     0.166 HD
HETATM   22  C21 UNL     1      -7.442  22.210  16.211  1.00  0.00     0.083 A
HETATM   23  C22 UNL     1      -5.783  20.840  14.627  1.00  0.00     0.076 C
HETATM   24  N10 UNL     1      -4.741  21.370  15.070  1.00  0.00    -0.296 N
ATOM     25  H10 UNL     1      -4.881  22.151  15.712  1.00  0.00     0.187 HD
BRANCH  24  26
HETATM   26  N11 UNL     1      -3.435  21.041  14.808  1.00  0.00    -0.243 N
HETATM   27  C23 UNL     1      -2.531  21.930  14.130  1.00  0.00     0.303 C
HETATM   28  O3  UNL     1      -2.896  23.067  13.740  1.00  0.00    -0.628 OA
HETATM   29  O4  UNL     1      -1.229  21.534  13.900  1.00  0.00    -0.628 OA
ATOM     30  H11 UNL     1      -3.091  20.128  15.106  1.00  0.00     0.193 HD
ENDBRANCH  24  26
ENDBRANCH   8  10
ENDBRANCH   7   8
BRANCH   4  31
HETATM   31  C4  UNL     1      -0.677  18.905  11.121  1.00  0.00     0.270 C
HETATM   32  O1  UNL     1      -0.331  18.770   9.921  1.00  0.00    -0.266 OA
HETATM   33  N2  UNL     1       0.237  19.424  12.087  1.00  0.00    -0.341 N
ATOM     34  H2  UNL     1      -0.073  19.523  13.054  1.00  0.00     0.163 HD
BRANCH  33  35
HETATM   35  C5  UNL     1       1.588  19.816  11.743  1.00  0.00     0.204 C
BRANCH  35  36
HETATM   36  C6  UNL     1       2.562  18.928  12.375  1.00  0.00     0.256 C
HETATM   37  N3  UNL     1       3.851  18.677  11.843  1.00  0.00    -0.060 NA
HETATM   38  O2  UNL     1       2.278  18.330  13.453  1.00  0.00    -0.275 OA
ENDBRANCH  35  36
BRANCH  35  39
HETATM   39  C7  UNL     1       1.807  21.285  11.841  1.00  0.00     0.219 C
BRANCH  39  40
HETATM   40  N4  UNL     1       2.569  21.599  13.079  1.00  0.00    -0.072 N
ATOM     41  H43 UNL     1       2.645  20.792  13.699  1.00  0.00     0.274 HD
ATOM     42  H42 UNL     1       3.563  21.736  12.894  1.00  0.00     0.274 HD
ATOM     43  H41 UNL     1       2.151  22.403  13.547  1.00  0.00     0.274 HD
ENDBRANCH  39  40
BRANCH  39  44
HETATM   44  C8  UNL     1       2.536  21.937  10.694  1.00  0.00     0.022 C
HETATM   45  C9  UNL     1       2.800  23.379  11.163  1.00  0.00     0.034 C
HETATM   46  C10 UNL     1       3.426  24.191  10.064  1.00  0.00     0.232 C
HETATM   47  N5  UNL     1       2.485  24.261   8.964  1.00  0.00    -0.075 N
HETATM   48  C11 UNL     1       2.371  22.926   8.409  1.00  0.00     0.232 C
ATOM     49  H52 UNL     1       1.587  24.660   9.233  1.00  0.00     0.277 HD
ATOM     50  H51 UNL     1       2.738  24.963   8.268  1.00  0.00     0.277 HD
HETATM   51  C12 UNL     1       1.731  21.974   9.421  1.00  0.00     0.034 C
ENDBRANCH  39  44
ENDBRANCH  35  39
ENDBRANCH  33  35
ENDBRANCH   4  31
TORSDOF 9
ENDMDL