MODEL 2
REMARK VINA RESULT: -7.592041583      3.123      7.854
REMARK  12 active torsions:
REMARK  status: ('A' for Active; 'I' for Inactive)
REMARK    1  A    between atoms: N1_1  and  C1_4
REMARK    2  A    between atoms: N6_16  and  C5_17
REMARK    3  A    between atoms: C7_20  and  C8_21
REMARK    4  A    between atoms: C12_26  and  C13_27
REMARK    5  A    between atoms: C13_27  and  O1_28
REMARK    6  A    between atoms: C13_27  and  C19_44
REMARK    7  A    between atoms: O1_28  and  C14_29
REMARK       I    between atoms: C14_29  and  N7_31
REMARK    8  A    between atoms: N7_31  and  C15_32
REMARK    9  A    between atoms: N7_31  and  C17_36
REMARK   10  A    between atoms: C15_32  and  C16_33
REMARK   11  A    between atoms: C17_36  and  C18_37
REMARK       I    between atoms: C18_37  and  N8_39
REMARK   12  A    between atoms: N8_39  and  N9_41
ROOT
HETATM    1  C5  UNL     1      -2.141  17.928  11.173  1.00  0.00     0.129 C
HETATM    2  C6  UNL     1      -1.848  17.175   9.887  1.00  0.00     0.102 C
HETATM    3  S1  UNL     1      -0.327  16.274  10.311  1.00  0.00    -0.156 SA
HETATM    4  C7  UNL     1      -0.015  17.110  11.884  1.00  0.00     0.096 C
HETATM    5  C12 UNL     1      -0.803  18.361  11.715  1.00  0.00     0.068 C
ENDROOT
BRANCH   5   6
HETATM    6  C13 UNL     1      -0.191  19.552  11.125  1.00  0.00     0.230 C
BRANCH   6   7
HETATM    7  O1  UNL     1       0.187  20.501  12.168  1.00  0.00    -0.288 OA
BRANCH   7   8
HETATM    8  C14 UNL     1       1.307  21.280  12.032  1.00  0.00     0.372 C
HETATM    9  O2  UNL     1       2.378  20.708  11.725  1.00  0.00    -0.238 OA
HETATM   10  N7  UNL     1       1.331  22.694  12.214  1.00  0.00    -0.268 N
BRANCH  10  11
HETATM   11  C15 UNL     1       0.113  23.371  12.565  1.00  0.00     0.186 C
BRANCH  11  12
HETATM   12  C16 UNL     1      -0.212  23.391  13.961  1.00  0.00     0.215 C
HETATM   13  O3  UNL     1      -1.117  22.564  14.363  1.00  0.00    -0.643 OA
HETATM   14  O4  UNL     1       0.325  24.177  14.907  1.00  0.00    -0.643 OA
ENDBRANCH  11  12
ENDBRANCH  10  11
BRANCH  10  15
HETATM   15  C17 UNL     1       2.482  23.457  11.905  1.00  0.00     0.177 C
BRANCH  15  16
HETATM   16  C18 UNL     1       2.955  23.645  10.564  1.00  0.00     0.275 C
HETATM   17  O5  UNL     1       4.189  23.976  10.397  1.00  0.00    -0.265 OA
HETATM   18  N8  UNL     1       2.198  23.509   9.405  1.00  0.00    -0.272 N
ATOM     19  H8  UNL     1       1.212  23.258   9.483  1.00  0.00     0.189 HD
BRANCH  18  20
HETATM   20  N9  UNL     1       2.755  23.708   8.122  1.00  0.00    -0.342 N
ATOM     21  H92 UNL     1       3.459  23.045   7.796  1.00  0.00     0.176 HD
ATOM     22  H91 UNL     1       2.474  24.487   7.527  1.00  0.00     0.176 HD
ENDBRANCH  18  20
ENDBRANCH  15  16
ENDBRANCH  10  15
ENDBRANCH   7   8
ENDBRANCH   6   7
BRANCH   6  23
HETATM   23  C19 UNL     1      -0.955  20.340  10.134  1.00  0.00     0.261 C
HETATM   24  N10 UNL     1      -0.757  20.201   8.727  1.00  0.00    -0.060 NA
HETATM   25  O6  UNL     1      -1.831  21.189  10.415  1.00  0.00    -0.274 OA
ENDBRANCH   6  23
ENDBRANCH   5   6
BRANCH   1  26
HETATM   26  N6  UNL     1      -2.775  16.980  12.064  1.00  0.00    -0.254 N
HETATM   27  C3  UNL     1      -2.934  17.034  13.407  1.00  0.00     0.157 A
HETATM   28  N3  UNL     1      -2.572  17.939  14.295  1.00  0.00    -0.335 N
HETATM   29  C4  UNL     1      -3.598  15.904  13.810  1.00  0.00     0.139 A
HETATM   30  C2  UNL     1      -2.844  17.771  15.592  1.00  0.00     0.183 A
ATOM     31  H3  UNL     1      -2.079  18.778  13.988  1.00  0.00     0.168 HD
HETATM   32  N2  UNL     1      -3.496  16.675  16.041  1.00  0.00    -0.337 N
HETATM   33  C1  UNL     1      -3.872  15.745  15.151  1.00  0.00     0.132 A
ATOM     34  H2  UNL     1      -3.697  16.558  17.034  1.00  0.00     0.168 HD
HETATM   35  N4  UNL     1      -3.837  15.172  12.705  1.00  0.00    -0.279 N
HETATM   36  N5  UNL     1      -3.340  15.837  11.711  1.00  0.00    -0.238 N
ATOM     37  H4  UNL     1      -4.315  14.271  12.659  1.00  0.00     0.189 HD
ATOM     38  H5  UNL     1      -3.380  15.509  10.746  1.00  0.00     0.208 HD
BRANCH  33  39
HETATM   39  N1  UNL     1      -4.497  14.686  15.552  1.00  0.00    -0.383 N
ATOM     40  H12 UNL     1      -4.049  14.063  16.226  1.00  0.00     0.157 HD
ATOM     41  H11 UNL     1      -5.430  14.481  15.194  1.00  0.00     0.157 HD
ENDBRANCH  33  39
ENDBRANCH   1  26
BRANCH   4  42
HETATM   42  C8  UNL     1       1.421  17.275  12.159  1.00  0.00    -0.003 A
HETATM   43  C9  UNL     1       2.534  17.308  11.369  1.00  0.00     0.016 A
HETATM   44  C10 UNL     1       3.717  17.510  11.972  1.00  0.00     0.008 A
HETATM   45  C11 UNL     1       3.711  17.668  13.337  1.00  0.00     0.050 A
HETATM   46  S2  UNL     1       2.052  17.527  13.716  1.00  0.00    -0.105 SA
ENDBRANCH   4  42
TORSDOF 12
ENDMDL