MODEL 1
REMARK VINA RESULT: -7.752890031      0.000      0.000
REMARK  11 active torsions:
REMARK  status: ('A' for Active; 'I' for Inactive)
REMARK    1  A    between atoms: N1_2  and  O1_4
REMARK    2  A    between atoms: O1_4  and  S1_5
REMARK    3  A    between atoms: S1_5  and  C3_8
REMARK    4  A    between atoms: C4_9  and  C5_10
REMARK    5  A    between atoms: C9_14  and  C10_15
REMARK       I    between atoms: C10_15  and  N2_17
REMARK    6  A    between atoms: N2_17  and  C11_19
REMARK    7  A    between atoms: C12_20  and  N3_21
REMARK    8  A    between atoms: N3_21  and  N4_23
REMARK    9  A    between atoms: C14_29  and  C15_30
REMARK   10  A    between atoms: C15_30  and  C16_31
REMARK   11  A    between atoms: C18_38  and  O6_39
ROOT
HETATM    1  C11 UNL     1      -0.718  18.749   9.386  1.00  0.00     0.151 A
HETATM    2  C12 UNL     1      -1.880  18.964   8.677  1.00  0.00     0.154 A
HETATM    3  N5  UNL     1      -2.490  17.929   8.074  1.00  0.00    -0.323 N
ATOM      4  H5  UNL     1      -3.349  18.104   7.553  1.00  0.00     0.169 HD
HETATM    5  C13 UNL     1      -2.015  16.671   8.129  1.00  0.00     0.144 A
HETATM    6  C14 UNL     1      -2.464  15.480   7.599  1.00  0.00     0.029 A
HETATM    7  C19 UNL     1      -1.565  14.501   7.983  1.00  0.00     0.123 A
HETATM    8  N8  UNL     1      -0.633  15.134   8.714  1.00  0.00    -0.300 N
ATOM      9  H8  UNL     1       0.170  14.672   9.142  1.00  0.00     0.186 HD
HETATM   10  N9  UNL     1      -0.884  16.427   8.813  1.00  0.00    -0.201 N
HETATM   11  C20 UNL     1      -0.243  17.458   9.434  1.00  0.00     0.299 A
HETATM   12  O7  UNL     1       0.804  17.219  10.064  1.00  0.00    -0.263 OA
ENDROOT
BRANCH   1  13
HETATM   13  N2  UNL     1      -0.025  19.826  10.048  1.00  0.00    -0.315 N
HETATM   14  C10 UNL     1       0.799  20.714   9.319  1.00  0.00     0.256 C
HETATM   15  O4  UNL     1       0.905  20.535   8.084  1.00  0.00    -0.267 OA
ATOM     16  H2  UNL     1      -0.130  19.948  11.055  1.00  0.00     0.169 HD
BRANCH  14  17
HETATM   17  C9  UNL     1       1.521  21.814   9.932  1.00  0.00     0.033 A
HETATM   18  C8  UNL     1       2.236  22.679   9.153  1.00  0.00     0.017 A
HETATM   19  C7  UNL     1       2.917  23.725   9.743  1.00  0.00     0.002 A
HETATM   20  C6  UNL     1       2.858  23.868  11.100  1.00  0.00     0.011 A
HETATM   21  C5  UNL     1       2.128  22.989  11.929  1.00  0.00    -0.035 A
HETATM   22  C21 UNL     1       1.455  21.951  11.324  1.00  0.00     0.028 A
BRANCH  21  23
HETATM   23  C4  UNL     1       2.136  23.234  13.348  1.00  0.00     0.025 C
HETATM   24  C3  UNL     1       1.277  23.541  14.232  1.00  0.00     0.141 C
BRANCH  24  25
HETATM   25  S1  UNL     1      -0.410  23.850  14.260  1.00  0.00     0.304 S
HETATM   26  O2  UNL     1      -0.795  24.704  15.448  1.00  0.00    -0.193 OA
HETATM   27  O3  UNL     1      -0.938  24.502  13.024  1.00  0.00    -0.193 OA
BRANCH  25  28
HETATM   28  O1  UNL     1      -1.280  22.376  14.420  1.00  0.00    -0.175 OA
BRANCH  28  29
HETATM   29  N1  UNL     1      -2.138  22.228  13.389  1.00  0.00    -0.187 NA
HETATM   30  C1  UNL     1      -3.523  22.324  13.823  1.00  0.00     0.144 C
HETATM   31  C2  UNL     1      -1.900  21.003  12.652  1.00  0.00     0.144 C
ENDBRANCH  28  29
ENDBRANCH  25  28
ENDBRANCH  24  25
ENDBRANCH  21  23
ENDBRANCH  14  17
ENDBRANCH   1  13
BRANCH   2  32
HETATM   32  N3  UNL     1      -2.396  20.291   8.608  1.00  0.00    -0.290 N
ATOM     33  H3  UNL     1      -2.350  20.919   9.411  1.00  0.00     0.188 HD
BRANCH  32  34
HETATM   34  N4  UNL     1      -2.966  20.700   7.405  1.00  0.00    -0.344 N
ATOM     35  H42 UNL     1      -2.467  20.561   6.526  1.00  0.00     0.176 HD
ATOM     36  H41 UNL     1      -3.887  21.137   7.442  1.00  0.00     0.176 HD
ENDBRANCH  32  34
ENDBRANCH   2  32
BRANCH   6  37
HETATM   37  C15 UNL     1      -3.543  15.259   6.855  1.00  0.00     0.051 C
BRANCH  37  38
HETATM   38  C16 UNL     1      -3.598  15.687   5.481  1.00  0.00     0.088 A
HETATM   39  N6  UNL     1      -3.111  15.060   4.391  1.00  0.00    -0.305 N
HETATM   40  C17 UNL     1      -3.383  15.815   3.314  1.00  0.00     0.326 A
ATOM     41  H6  UNL     1      -2.621  14.165   4.386  1.00  0.00     0.171 HD
HETATM   42  O5  UNL     1      -3.089  15.564   2.117  1.00  0.00    -0.247 OA
HETATM   43  N7  UNL     1      -4.043  16.932   3.682  1.00  0.00    -0.287 N
HETATM   44  C18 UNL     1      -4.182  16.862   5.024  1.00  0.00     0.171 A
ATOM     45  H7  UNL     1      -4.372  17.679   3.070  1.00  0.00     0.172 HD
BRANCH  44  46
HETATM   46  O6  UNL     1      -4.812  17.817   5.841  1.00  0.00    -0.344 OA
ATOM     47  H6  UNL     1      -4.362  18.400   6.441  1.00  0.00     0.219 HD
ENDBRANCH  44  46
ENDBRANCH  37  38
ENDBRANCH   6  37
TORSDOF 11
ENDMDL