MODEL 5
REMARK VINA RESULT: -6.894235857      2.678      7.026
REMARK  7 active torsions:
REMARK  status: ('A' for Active; 'I' for Inactive)
REMARK    1  A    between atoms: N1_1  and  S1_4
REMARK    2  A    between atoms: S1_4  and  C1_7
REMARK    3  A    between atoms: C4_10  and  C5_11
REMARK    4  A    between atoms: C5_11  and  N2_12
REMARK    5  A    between atoms: C6_14  and  N3_15
REMARK    6  A    between atoms: N3_15  and  N4_17
REMARK    7  A    between atoms: N4_17  and  C7_19
ROOT
HETATM    1  C1  UNL     1      33.329  12.063  -5.397  1.00  0.00     0.149 A
HETATM    2  C2  UNL     1      32.017  11.720  -5.572  1.00  0.00     0.045 A
HETATM    3  C3  UNL     1      31.447  12.619  -6.483  1.00  0.00     0.029 A
HETATM    4  C4  UNL     1      32.454  13.491  -6.835  1.00  0.00     0.028 A
HETATM    5  N5  UNL     1      33.563  13.122  -6.163  1.00  0.00    -0.348 N
ATOM      6  H5  UNL     1      34.464  13.596  -6.234  1.00  0.00     0.166 HD
ENDROOT
BRANCH   4   7
HETATM    7  C5  UNL     1      32.349  14.635  -7.793  1.00  0.00     0.177 C
BRANCH   7   8
HETATM    8  N2  UNL     1      31.060  14.823  -8.335  1.00  0.00    -0.379 N
HETATM    9  C6  UNL     1      30.569  15.773  -8.995  1.00  0.00     0.193 C
ATOM     10  H2  UNL     1      30.413  14.053  -8.160  1.00  0.00     0.160 HD
BRANCH   9  11
HETATM   11  N3  UNL     1      29.202  15.640  -9.400  1.00  0.00    -0.294 N
ATOM     12  H3  UNL     1      28.610  16.468  -9.462  1.00  0.00     0.187 HD
BRANCH  11  13
HETATM   13  N4  UNL     1      28.672  14.383  -9.713  1.00  0.00    -0.277 N
ATOM     14  H4  UNL     1      28.162  13.895  -8.977  1.00  0.00     0.189 HD
BRANCH  13  15
HETATM   15  C7  UNL     1      28.785  13.738 -10.957  1.00  0.00     0.368 C
HETATM   16  O3  UNL     1      29.809  13.531 -11.625  1.00  0.00    -0.282 OA
ENDBRANCH  13  15
ENDBRANCH  11  13
ENDBRANCH   9  11
ENDBRANCH   7   8
ENDBRANCH   4   7
BRANCH   1  17
HETATM   17  S1  UNL     1      34.457  11.215  -4.329  1.00  0.00     0.272 S
HETATM   18  O1  UNL     1      35.193  10.208  -5.163  1.00  0.00    -0.199 OA
HETATM   19  O2  UNL     1      35.473  12.151  -3.759  1.00  0.00    -0.199 OA
BRANCH  17  20
HETATM   20  N1  UNL     1      33.588  10.359  -3.120  1.00  0.00    -0.323 N
ATOM     21  H12 UNL     1      33.999   9.723  -2.438  1.00  0.00     0.169 HD
ATOM     22  H11 UNL     1      32.602  10.604  -3.213  1.00  0.00     0.169 HD
ENDBRANCH  17  20
ENDBRANCH   1  17
TORSDOF 7
ENDMDL