MODEL 4
REMARK VINA RESULT: -7.030186921      4.665      7.667
REMARK  5 active torsions:
REMARK  status: ('A' for Active; 'I' for Inactive)
REMARK    1  A    between atoms: C3_3  and  C4_4
REMARK    2  A    between atoms: C4_4  and  N1_5
REMARK       I    between atoms: C5_7  and  N3_9
REMARK    3  A    between atoms: N3_9  and  N4_11
REMARK       I    between atoms: N4_11  and  C6_13
REMARK       I    between atoms: C6_13  and  N6_19
REMARK    4  A    between atoms: N5_14  and  C7_16
REMARK    5  A    between atoms: N6_19  and  N7_21
ROOT
HETATM    1  C1  UNL     1      31.465  10.492  -4.955  1.00  0.00     0.097 C
HETATM    2  C2  UNL     1      32.374  10.909  -5.656  1.00  0.00    -0.186 C
HETATM    3  C3  UNL     1      33.459  11.416  -6.497  1.00  0.00     0.099 C
ENDROOT
BRANCH   3   4
HETATM    4  C4  UNL     1      33.102  12.806  -6.999  1.00  0.00     0.133 C
BRANCH   4   5
HETATM    5  N1  UNL     1      32.469  12.789  -8.282  1.00  0.00    -0.363 N
HETATM    6  C5  UNL     1      31.430  13.493  -8.561  1.00  0.00     0.203 C
HETATM    7  N2  UNL     1      30.822  14.354  -7.599  1.00  0.00    -0.062 NA
HETATM    8  N3  UNL     1      30.866  13.414  -9.866  1.00  0.00    -0.259 N
ATOM      9  H3  UNL     1      31.211  13.988 -10.634  1.00  0.00     0.190 HD
ATOM     10  H1  UNL     1      32.861  12.190  -9.010  1.00  0.00     0.162 HD
BRANCH   8  11
HETATM   11  N4  UNL     1      29.814  12.509 -10.042  1.00  0.00    -0.128 N
HETATM   12  C6  UNL     1      29.409  12.047 -11.340  1.00  0.00     0.712 C
HETATM   13  N5  UNL     1      29.901  12.657 -12.347  1.00  0.00    -0.220 N
HETATM   14  N6  UNL     1      28.512  10.970 -11.401  1.00  0.00    -0.071 N
ATOM     15  H5  UNL     1      30.545  13.429 -12.175  1.00  0.00     0.178 HD
ATOM     16  H6  UNL     1      28.745  10.133 -11.934  1.00  0.00     0.212 HD
ATOM     17  H4  UNL     1      29.317  12.166  -9.219  1.00  0.00     0.205 HD
BRANCH  13  18
HETATM   18  C7  UNL     1      29.597  12.315 -13.720  1.00  0.00     0.091 C
HETATM   19  C8  UNL     1      28.471  13.132 -14.273  1.00  0.00     0.032 C
HETATM   20  C9  UNL     1      30.809  12.477 -14.602  1.00  0.00     0.032 C
ENDBRANCH  13  18
BRANCH  14  21
HETATM   21  N7  UNL     1      27.306  11.059 -10.728  1.00  0.00    -0.024 N
HETATM   22  O1  UNL     1      26.839  12.186 -10.389  1.00  0.00    -0.516 OA
HETATM   23  O2  UNL     1      26.558   9.950 -10.393  1.00  0.00    -0.516 OA
ENDBRANCH  14  21
ENDBRANCH   8  11
ENDBRANCH   4   5
ENDBRANCH   3   4
TORSDOF 5
ENDMDL