MODEL 5
REMARK VINA RESULT: -6.849377556      2.706      6.085
REMARK  5 active torsions:
REMARK  status: ('A' for Active; 'I' for Inactive)
REMARK    1  A    between atoms: C1_2  and  C2_4
REMARK    2  A    between atoms: C2_4  and  N2_5
REMARK       I    between atoms: N2_5  and  C3_7
REMARK       I    between atoms: C3_7  and  N3_9
REMARK    3  A    between atoms: N3_9  and  C4_11
REMARK    4  A    between atoms: C4_11  and  C5_12
REMARK    5  A    between atoms: C4_11  and  C6_15
ROOT
HETATM    1  N2  UNL     1      32.769  12.266  -7.096  1.00  0.00    -0.335 N
ATOM      2  H2  UNL     1      33.429  12.071  -7.848  1.00  0.00     0.164 HD
HETATM    3  C3  UNL     1      31.505  12.803  -7.372  1.00  0.00     0.317 C
HETATM    4  O2  UNL     1      30.709  13.035  -6.447  1.00  0.00    -0.247 OA
HETATM    5  N3  UNL     1      31.139  13.080  -8.700  1.00  0.00    -0.326 N
ATOM      6  H3  UNL     1      31.781  12.896  -9.472  1.00  0.00     0.165 HD
ENDROOT
BRANCH   5   7
HETATM    7  C4  UNL     1      29.796  13.645  -8.942  1.00  0.00     0.209 C
BRANCH   7   8
HETATM    8  C5  UNL     1      29.963  15.083  -9.107  1.00  0.00     0.258 C
HETATM    9  N4  UNL     1      31.210  15.780  -9.138  1.00  0.00    -0.060 NA
HETATM   10  O3  UNL     1      28.948  15.855  -9.245  1.00  0.00    -0.274 OA
ENDBRANCH   7   8
BRANCH   7  11
HETATM   11  C6  UNL     1      29.263  12.910 -10.102  1.00  0.00    -0.027 A
HETATM   12  C7  UNL     1      27.918  12.601 -10.142  1.00  0.00     0.010 A
HETATM   13  C8  UNL     1      27.338  11.912 -11.181  1.00  0.00     0.001 A
HETATM   14  C9  UNL     1      28.127  11.507 -12.233  1.00  0.00     0.000 A
HETATM   15  C10 UNL     1      29.479  11.800 -12.223  1.00  0.00     0.001 A
HETATM   16  C11 UNL     1      30.035  12.505 -11.146  1.00  0.00     0.010 A
ENDBRANCH   7  11
ENDBRANCH   5   7
BRANCH   1  17
HETATM   17  C2  UNL     1      33.112  11.996  -5.720  1.00  0.00     0.223 C
BRANCH  17  18
HETATM   18  C1  UNL     1      33.079  10.563  -5.423  1.00  0.00     0.248 C
HETATM   19  N1  UNL     1      34.235   9.739  -5.457  1.00  0.00    -0.061 NA
HETATM   20  O1  UNL     1      31.975  10.041  -5.124  1.00  0.00    -0.275 OA
ENDBRANCH  17  18
ENDBRANCH   1  17
TORSDOF 5
ENDMDL