MODEL 1
REMARK VINA RESULT: -6.825584507      0.000      0.000
REMARK  7 active torsions:
REMARK  status: ('A' for Active; 'I' for Inactive)
REMARK    1  A    between atoms: N2_4  and  C3_6
REMARK    2  A    between atoms: C3_6  and  C5_8
REMARK    3  A    between atoms: C5_8  and  N3_10
REMARK       I    between atoms: N3_10  and  C7_12
REMARK    4  A    between atoms: C7_12  and  C8_14
REMARK    5  A    between atoms: C8_14  and  N4_15
REMARK    6  A    between atoms: C8_14  and  C9_19
REMARK    7  A    between atoms: C9_19  and  C10_20
ROOT
HETATM    1  N3  UNL     1      32.785  11.725  -6.567  1.00  0.00    -0.353 N
ATOM      2  H3  UNL     1      33.520  11.849  -7.263  1.00  0.00     0.163 HD
HETATM    3  C7  UNL     1      31.690  12.631  -6.594  1.00  0.00     0.249 C
HETATM    4  O1  UNL     1      30.764  12.523  -5.765  1.00  0.00    -0.271 OA
ENDROOT
BRANCH   1   5
HETATM    5  C5  UNL     1      32.928  10.652  -5.634  1.00  0.00     0.102 C
HETATM    6  C6  UNL     1      33.856   9.565  -6.127  1.00  0.00     0.034 C
BRANCH   5   7
HETATM    7  C3  UNL     1      33.314  11.181  -4.294  1.00  0.00     0.100 C
HETATM    8  C4  UNL     1      32.602  10.387  -3.227  1.00  0.00     0.034 C
BRANCH   7   9
HETATM    9  N2  UNL     1      34.740  11.208  -4.086  1.00  0.00    -0.376 N
HETATM   10  C2  UNL     1      35.462  12.274  -4.161  1.00  0.00     0.085 C
HETATM   11  C1  UNL     1      34.834  13.601  -4.479  1.00  0.00     0.085 C
HETATM   12  N1  UNL     1      36.857  12.239  -3.948  1.00  0.00    -0.088 NA
ATOM     13  H2  UNL     1      35.208  10.329  -3.867  1.00  0.00     0.160 HD
ENDBRANCH   7   9
ENDBRANCH   5   7
ENDBRANCH   1   5
BRANCH   3  14
HETATM   14  C8  UNL     1      31.628  13.717  -7.602  1.00  0.00     0.283 C
BRANCH  14  15
HETATM   15  N4  UNL     1      32.451  13.348  -8.736  1.00  0.00    -0.066 N
ATOM     16  H43 UNL     1      33.367  12.998  -8.455  1.00  0.00     0.275 HD
ATOM     17  H42 UNL     1      32.116  12.507  -9.204  1.00  0.00     0.275 HD
ATOM     18  H41 UNL     1      32.516  14.146  -9.367  1.00  0.00     0.275 HD
ENDBRANCH  14  15
BRANCH  14  19
HETATM   19  C9  UNL     1      30.180  13.844  -8.092  1.00  0.00     0.142 C
BRANCH  19  20
HETATM   20  C10 UNL     1      30.124  14.850  -9.196  1.00  0.00     0.233 C
HETATM   21  N5  UNL     1      29.744  14.447 -10.483  1.00  0.00    -0.062 NA
HETATM   22  O2  UNL     1      30.409  16.060  -9.012  1.00  0.00    -0.277 OA
ENDBRANCH  19  20
ENDBRANCH  14  19
ENDBRANCH   3  14
TORSDOF 7
ENDMDL