MODEL 4
REMARK VINA RESULT: -6.183398610      0.083      1.112
REMARK  7 active torsions:
REMARK  status: ('A' for Active; 'I' for Inactive)
REMARK    1  A    between atoms: C1_2  and  C2_4
REMARK    2  A    between atoms: C2_4  and  C10_12
REMARK    3  A    between atoms: C3_5  and  C4_6
REMARK    4  A    between atoms: C10_12  and  N2_13
REMARK    5  A    between atoms: C10_12  and  C11_17
REMARK       I    between atoms: C11_17  and  N3_19
REMARK    6  A    between atoms: N3_19  and  N4_20
REMARK    7  A    between atoms: N3_19  and  N5_23
ROOT
HETATM    1  C10 UNL     1      29.321  11.796 -11.298  1.00  0.00     0.316 C
ENDROOT
BRANCH   1   2
HETATM    2  C2  UNL     1      28.193  12.542 -10.706  1.00  0.00     0.047 C
HETATM    3  C3  UNL     1      28.341  13.458  -9.800  1.00  0.00     0.026 C
BRANCH   2   4
HETATM    4  C1  UNL     1      26.821  12.206 -11.140  1.00  0.00     0.263 C
HETATM    5  N1  UNL     1      25.898  13.249 -11.383  1.00  0.00    -0.057 NA
HETATM    6  O1  UNL     1      26.429  11.026 -11.307  1.00  0.00    -0.271 OA
ENDBRANCH   2   4
BRANCH   3   7
HETATM    7  C4  UNL     1      29.533  13.992  -9.194  1.00  0.00    -0.035 A
HETATM    8  C5  UNL     1      29.996  15.232  -9.451  1.00  0.00     0.011 A
HETATM    9  C6  UNL     1      31.156  15.720  -8.864  1.00  0.00     0.001 A
HETATM   10  C7  UNL     1      31.880  14.938  -7.986  1.00  0.00     0.000 A
HETATM   11  C8  UNL     1      31.381  13.674  -7.742  1.00  0.00     0.001 A
HETATM   12  C9  UNL     1      30.241  13.171  -8.308  1.00  0.00     0.011 A
ENDBRANCH   3   7
ENDBRANCH   1   2
BRANCH   1  13
HETATM   13  N2  UNL     1      29.149  10.358 -11.118  1.00  0.00    -0.062 N
ATOM     14  H23 UNL     1      30.034   9.858 -11.208  1.00  0.00     0.275 HD
ATOM     15  H22 UNL     1      28.938  10.123 -10.148  1.00  0.00     0.275 HD
ATOM     16  H21 UNL     1      28.443   9.991 -11.756  1.00  0.00     0.275 HD
ENDBRANCH   1  13
BRANCH   1  17
HETATM   17  C11 UNL     1      29.522  12.145 -12.720  1.00  0.00     0.292 C
HETATM   18  O2  UNL     1      30.203  13.198 -12.980  1.00  0.00    -0.267 OA
HETATM   19  N3  UNL     1      29.018  11.402 -13.798  1.00  0.00    -0.172 N
BRANCH  19  20
HETATM   20  N4  UNL     1      29.246  11.808 -15.133  1.00  0.00    -0.322 N
ATOM     21  H42 UNL     1      28.900  12.730 -15.397  1.00  0.00     0.179 HD
ATOM     22  H41 UNL     1      29.732  11.198 -15.791  1.00  0.00     0.179 HD
ENDBRANCH  19  20
BRANCH  19  23
HETATM   23  N5  UNL     1      28.283  10.244 -13.618  1.00  0.00    -0.322 N
ATOM     24  H52 UNL     1      27.631   9.995 -14.362  1.00  0.00     0.179 HD
ATOM     25  H51 UNL     1      28.381   9.660 -12.788  1.00  0.00     0.179 HD
ENDBRANCH  19  23
ENDBRANCH   1  17
TORSDOF 7
ENDMDL