MODEL 5
REMARK VINA RESULT: -6.048552231      1.456      5.991
REMARK  10 active torsions:
REMARK  status: ('A' for Active; 'I' for Inactive)
REMARK    1  A    between atoms: C3_3  and  C4_4
REMARK    2  A    between atoms: C4_4  and  N1_5
REMARK    3  A    between atoms: C4_4  and  C8_15
REMARK       I    between atoms: N1_5  and  C5_7
REMARK    4  A    between atoms: C5_7  and  C6_9
REMARK    5  A    between atoms: C6_9  and  N2_11
REMARK    6  A    between atoms: C8_15  and  O2_16
REMARK    7  A    between atoms: C8_15  and  N3_18
REMARK    8  A    between atoms: N3_18  and  C9_20
REMARK    9  A    between atoms: C9_20  and  O3_21
REMARK   10  A    between atoms: C9_20  and  N4_23
ROOT
HETATM    1  C1  UNL     1      32.194  10.141  -4.812  1.00  0.00     0.012 C
HETATM    2  C2  UNL     1      31.663  11.104  -5.316  1.00  0.00    -0.115 C
HETATM    3  C3  UNL     1      31.011  12.259  -5.894  1.00  0.00     0.126 C
ENDROOT
BRANCH   3   4
HETATM    4  C4  UNL     1      31.617  12.661  -7.242  1.00  0.00     0.170 C
BRANCH   4   5
HETATM    5  N1  UNL     1      30.713  13.746  -7.707  1.00  0.00    -0.346 N
HETATM    6  C5  UNL     1      30.080  13.676  -8.959  1.00  0.00     0.248 C
HETATM    7  O1  UNL     1      30.297  12.671  -9.681  1.00  0.00    -0.271 OA
ATOM      8  H1  UNL     1      30.549  14.555  -7.107  1.00  0.00     0.163 HD
BRANCH   6   9
HETATM    9  C6  UNL     1      29.173  14.716  -9.479  1.00  0.00     0.270 C
HETATM   10  C7  UNL     1      28.826  14.379 -10.907  1.00  0.00     0.050 C
BRANCH   9  11
HETATM   11  N2  UNL     1      29.787  16.031  -9.467  1.00  0.00    -0.067 N
ATOM     12  H23 UNL     1      29.236  16.692  -8.920  1.00  0.00     0.275 HD
ATOM     13  H22 UNL     1      30.642  16.035  -8.910  1.00  0.00     0.275 HD
ATOM     14  H21 UNL     1      29.957  16.382 -10.408  1.00  0.00     0.275 HD
ENDBRANCH   9  11
ENDBRANCH   6   9
ENDBRANCH   4   5
BRANCH   4  15
HETATM   15  C8  UNL     1      32.936  13.267  -7.031  1.00  0.00     0.142 C
BRANCH  15  16
HETATM   16  O2  UNL     1      32.986  14.498  -7.501  1.00  0.00    -0.348 OA
ATOM     17  H2  UNL     1      33.871  14.842  -7.488  1.00  0.00     0.219 HD
ENDBRANCH  15  16
BRANCH  15  18
HETATM   18  N3  UNL     1      34.095  12.800  -6.455  1.00  0.00    -0.305 N
ATOM     19  H3  UNL     1      34.625  12.204  -7.091  1.00  0.00     0.171 HD
BRANCH  18  20
HETATM   20  C9  UNL     1      34.726  12.936  -5.220  1.00  0.00     0.218 C
BRANCH  20  21
HETATM   21  O3  UNL     1      34.012  13.259  -4.173  1.00  0.00    -0.333 OA
ATOM     22  H3  UNL     1      34.304  13.972  -3.616  1.00  0.00     0.220 HD
ENDBRANCH  20  21
BRANCH  20  23
HETATM   23  N4  UNL     1      36.075  12.767  -4.930  1.00  0.00    -0.361 N
HETATM   24  C10 UNL     1      36.581  11.543  -4.282  1.00  0.00     0.150 C
ATOM     25  H4  UNL     1      36.731  13.509  -5.172  1.00  0.00     0.162 HD
ENDBRANCH  20  23
ENDBRANCH  18  20
ENDBRANCH  15  18
ENDBRANCH   4  15
ENDBRANCH   3   4
TORSDOF 10
ENDMDL