MODEL 2
REMARK VINA RESULT: -6.530880273      2.903      6.602
REMARK  8 active torsions:
REMARK  status: ('A' for Active; 'I' for Inactive)
REMARK    1  A    between atoms: C6_6  and  C7_7
REMARK    2  A    between atoms: C7_7  and  N2_11
REMARK    3  A    between atoms: N2_11  and  C8_13
REMARK    4  A    between atoms: C8_13  and  C9_14
REMARK    5  A    between atoms: C9_14  and  N3_15
REMARK    6  A    between atoms: C9_14  and  C10_19
REMARK    7  A    between atoms: C10_19  and  N4_20
REMARK    8  A    between atoms: C10_19  and  C11_24
ROOT
HETATM    1  N2  UNL     1      31.320  13.053  -8.436  1.00  0.00    -0.374 N
ATOM      2  H2  UNL     1      31.533  12.418  -9.206  1.00  0.00     0.161 HD
ENDROOT
BRANCH   1   3
HETATM    3  C7  UNL     1      32.325  13.223  -7.375  1.00  0.00     0.105 C
HETATM    4  N1  UNL     1      32.932  14.252  -7.420  1.00  0.00    -0.385 N
ATOM      5  H12 UNL     1      33.628  14.370  -6.684  1.00  0.00     0.157 HD
ATOM      6  H11 UNL     1      32.825  15.022  -8.081  1.00  0.00     0.157 HD
BRANCH   3   7
HETATM    7  C6  UNL     1      32.478  12.120  -6.428  1.00  0.00     0.017 A
HETATM    8  C5  UNL     1      31.360  11.744  -5.665  1.00  0.00     0.016 A
HETATM    9  C4  UNL     1      31.366  10.775  -4.698  1.00  0.00     0.002 A
HETATM   10  C3  UNL     1      32.540  10.126  -4.456  1.00  0.00     0.011 A
HETATM   11  C2  UNL     1      33.684  10.458  -5.186  1.00  0.00    -0.035 A
HETATM   12  C1  UNL     1      34.763   9.787  -4.884  1.00  0.00     0.024 C
HETATM   13  C12 UNL     1      33.661  11.459  -6.176  1.00  0.00    -0.022 A
HETATM   14  C13 UNL     1      34.759  11.687  -6.861  1.00  0.00     0.025 C
ENDBRANCH   3   7
ENDBRANCH   1   3
BRANCH   1  15
HETATM   15  C8  UNL     1      30.060  13.731  -8.444  1.00  0.00     0.156 C
BRANCH  15  16
HETATM   16  C9  UNL     1      29.791  14.517  -9.664  1.00  0.00     0.238 C
BRANCH  16  17
HETATM   17  N3  UNL     1      29.744  15.942  -9.445  1.00  0.00    -0.071 N
ATOM     18  H33 UNL     1      28.888  16.201  -8.955  1.00  0.00     0.274 HD
ATOM     19  H32 UNL     1      30.434  16.220  -8.747  1.00  0.00     0.274 HD
ATOM     20  H31 UNL     1      29.851  16.496 -10.295  1.00  0.00     0.274 HD
ENDBRANCH  16  17
BRANCH  16  21
HETATM   21  C10 UNL     1      28.587  14.052 -10.459  1.00  0.00     0.276 C
BRANCH  21  22
HETATM   22  N4  UNL     1      27.723  13.155  -9.782  1.00  0.00    -0.067 N
ATOM     23  H43 UNL     1      27.407  12.423 -10.419  1.00  0.00     0.275 HD
ATOM     24  H42 UNL     1      28.254  12.595  -9.115  1.00  0.00     0.275 HD
ATOM     25  H41 UNL     1      26.923  13.586  -9.319  1.00  0.00     0.275 HD
ENDBRANCH  21  22
BRANCH  21  26
HETATM   26  C11 UNL     1      29.011  13.449 -11.748  1.00  0.00     0.266 C
HETATM   27  O1  UNL     1      30.152  13.079 -11.881  1.00  0.00    -0.305 OA
ENDBRANCH  21  26
ENDBRANCH  16  21
ENDBRANCH  15  16
ENDBRANCH   1  15
TORSDOF 8
ENDMDL