MODEL 3
REMARK VINA RESULT: -5.722857207      1.818      2.004
REMARK  8 active torsions:
REMARK  status: ('A' for Active; 'I' for Inactive)
REMARK    1  A    between atoms: C2_2  and  S1_4
REMARK    2  A    between atoms: S1_4  and  N1_7
REMARK    3  A    between atoms: N1_7  and  N2_9
REMARK    4  A    between atoms: N2_9  and  C4_11
REMARK    5  A    between atoms: C4_11  and  N3_13
REMARK    6  A    between atoms: N3_13  and  C5_15
REMARK    7  A    between atoms: C5_15  and  C6_16
REMARK    8  A    between atoms: C6_16  and  N4_17
ROOT
HETATM    1  N2  UNL     1      32.946  13.803  -7.306  1.00  0.00    -0.267 N
ATOM      2  H2  UNL     1      33.314  14.583  -6.760  1.00  0.00     0.190 HD
ENDROOT
BRANCH   1   3
HETATM    3  N1  UNL     1      33.511  12.535  -7.171  1.00  0.00    -0.225 N
ATOM      4  H1  UNL     1      33.634  11.881  -7.943  1.00  0.00     0.200 HD
BRANCH   3   5
HETATM    5  S1  UNL     1      33.973  12.205  -5.550  1.00  0.00     0.247 S
HETATM    6  O1  UNL     1      34.361  13.462  -4.834  1.00  0.00    -0.204 OA
HETATM    7  O2  UNL     1      35.173  11.301  -5.579  1.00  0.00    -0.204 OA
BRANCH   5   8
HETATM    8  C2  UNL     1      32.644  11.366  -4.735  1.00  0.00     0.122 C
HETATM    9  C1  UNL     1      31.956  10.425  -5.682  1.00  0.00     0.027 C
HETATM   10  C3  UNL     1      33.144  10.546  -3.559  1.00  0.00     0.027 C
ENDBRANCH   5   8
ENDBRANCH   3   5
ENDBRANCH   1   3
BRANCH   1  11
HETATM   11  C4  UNL     1      31.877  14.016  -8.187  1.00  0.00     0.187 C
HETATM   12  S2  UNL     1      31.529  15.564  -8.634  1.00  0.00    -0.040 SA
BRANCH  11  13
HETATM   13  N3  UNL     1      31.067  12.989  -8.719  1.00  0.00    -0.364 N
ATOM     14  H3  UNL     1      31.040  12.112  -8.199  1.00  0.00     0.162 HD
BRANCH  13  15
HETATM   15  C5  UNL     1      30.280  13.053  -9.915  1.00  0.00     0.149 C
BRANCH  15  16
HETATM   16  C6  UNL     1      28.802  13.192  -9.691  1.00  0.00     0.249 C
BRANCH  16  17
HETATM   17  N4  UNL     1      28.292  14.427 -10.304  1.00  0.00    -0.078 N
ATOM     18  H43 UNL     1      28.640  15.257  -9.824  1.00  0.00     0.274 HD
ATOM     19  H42 UNL     1      28.707  14.593 -11.220  1.00  0.00     0.274 HD
ATOM     20  H41 UNL     1      27.272  14.418 -10.349  1.00  0.00     0.274 HD
ENDBRANCH  16  17
ENDBRANCH  15  16
ENDBRANCH  13  15
ENDBRANCH  11  13
ENDBRANCH   1  11
TORSDOF 8
ENDMDL