MODEL 5
REMARK VINA RESULT: -6.541986560      1.882      6.197
REMARK  7 active torsions:
REMARK  status: ('A' for Active; 'I' for Inactive)
REMARK    1  A    between atoms: C2_2  and  C4_4
REMARK    2  A    between atoms: C4_4  and  N1_5
REMARK    3  A    between atoms: C4_4  and  C11_19
REMARK    4  A    between atoms: N1_5  and  C5_7
REMARK    5  A    between atoms: C5_7  and  C6_11
REMARK    6  A    between atoms: C6_11  and  O1_12
REMARK    7  A    between atoms: C6_11  and  N3_14
ROOT
HETATM    1  C5  UNL     1      31.551  12.766  -7.051  1.00  0.00     0.131 C
HETATM    2  N2  UNL     1      30.638  12.624  -6.154  1.00  0.00    -0.385 N
ATOM      3  H21 UNL     1      30.853  12.431  -5.176  1.00  0.00     0.157 HD
ATOM      4  H22 UNL     1      29.665  12.777  -6.420  1.00  0.00     0.157 HD
ENDROOT
BRANCH   1   5
HETATM    5  N1  UNL     1      31.251  13.037  -8.416  1.00  0.00    -0.363 N
ATOM      6  H1  UNL     1      31.946  12.856  -9.141  1.00  0.00     0.161 HD
BRANCH   5   7
HETATM    7  C4  UNL     1      29.927  13.581  -8.774  1.00  0.00     0.175 C
BRANCH   7   8
HETATM    8  C2  UNL     1      29.361  12.885  -9.932  1.00  0.00     0.009 C
HETATM    9  C1  UNL     1      30.074  12.721 -11.184  1.00  0.00     0.012 C
HETATM   10  C3  UNL     1      27.857  12.991 -10.056  1.00  0.00     0.012 C
ENDBRANCH   7   8
BRANCH   7  11
HETATM   11  C11 UNL     1      30.350  15.023  -9.044  1.00  0.00     0.254 C
HETATM   12  N4  UNL     1      31.744  15.262  -9.143  1.00  0.00    -0.060 NA
HETATM   13  O2  UNL     1      29.530  15.923  -9.162  1.00  0.00    -0.275 OA
ENDBRANCH   7  11
ENDBRANCH   5   7
ENDBRANCH   1   5
BRANCH   1  14
HETATM   14  C6  UNL     1      32.947  12.547  -6.670  1.00  0.00     0.424 C
BRANCH  14  15
HETATM   15  O1  UNL     1      33.727  13.262  -7.585  1.00  0.00    -0.362 OA
ATOM     16  H1  UNL     1      33.949  12.656  -8.282  1.00  0.00     0.212 HD
ENDBRANCH  14  15
BRANCH  14  17
HETATM   17  N3  UNL     1      33.361  11.238  -6.376  1.00  0.00     0.124 N
HETATM   18  C7  UNL     1      32.452  10.444  -5.623  1.00  0.00     0.276 C
HETATM   19  C8  UNL     1      33.039  10.447  -4.192  1.00  0.00     0.032 C
HETATM   20  C9  UNL     1      34.337  11.220  -4.296  1.00  0.00     0.032 C
HETATM   21  C10 UNL     1      34.666  11.106  -5.801  1.00  0.00     0.276 C
ENDBRANCH  14  17
ENDBRANCH   1  14
TORSDOF 7
ENDMDL