MODEL 2
REMARK VINA RESULT: -7.580712090      1.549      1.913
REMARK  5 active torsions:
REMARK  status: ('A' for Active; 'I' for Inactive)
REMARK    1  A    between atoms: C3_8  and  C4_9
REMARK    2  A    between atoms: C4_9  and  C5_10
REMARK    3  A    between atoms: N3_13  and  C8_14
REMARK    4  A    between atoms: C8_14  and  C9_15
REMARK    5  A    between atoms: C9_15  and  O2_16
ROOT
HETATM    1  O1  UNL     1      34.313   9.732  -3.794  1.00  0.00    -0.245 OA
HETATM    2  C1  UNL     1      33.589  10.477  -4.500  1.00  0.00     0.341 A
HETATM    3  N1  UNL     1      32.258  10.514  -4.303  1.00  0.00    -0.251 N
ATOM      4  H1  UNL     1      31.835   9.934  -3.579  1.00  0.00     0.191 HD
HETATM    5  N2  UNL     1      31.508  11.289  -5.037  1.00  0.00    -0.292 N
ATOM      6  H2  UNL     1      30.502  11.303  -4.871  1.00  0.00     0.187 HD
HETATM    7  C2  UNL     1      32.032  12.091  -6.030  1.00  0.00     0.116 A
HETATM    8  C3  UNL     1      31.126  12.919  -6.794  1.00  0.00     0.039 C
HETATM    9  C10 UNL     1      33.372  12.048  -6.221  1.00  0.00     0.277 A
HETATM   10  O3  UNL     1      33.941  12.732  -7.088  1.00  0.00    -0.266 OA
HETATM   11  N5  UNL     1      34.152  11.236  -5.451  1.00  0.00    -0.272 N
ATOM     12  H5  UNL     1      35.161  11.206  -5.598  1.00  0.00     0.173 HD
ENDROOT
BRANCH   8  13
HETATM   13  C4  UNL     1      31.365  13.743  -7.761  1.00  0.00     0.033 C
BRANCH  13  14
HETATM   14  C5  UNL     1      30.393  13.985  -8.856  1.00  0.00     0.049 A
HETATM   15  C6  UNL     1      29.829  15.192  -9.207  1.00  0.00     0.049 A
HETATM   16  C7  UNL     1      28.984  14.982 -10.274  1.00  0.00     0.112 A
HETATM   17  N3  UNL     1      29.034  13.688 -10.559  1.00  0.00    -0.301 N
HETATM   18  N4  UNL     1      29.878  13.089  -9.712  1.00  0.00    -0.299 N
ATOM     19  H4  UNL     1      30.099  12.093  -9.717  1.00  0.00     0.187 HD
BRANCH  17  20
HETATM   20  C8  UNL     1      28.321  12.952 -11.609  1.00  0.00     0.174 C
BRANCH  20  21
HETATM   21  C9  UNL     1      27.738  11.719 -10.926  1.00  0.00     0.185 C
BRANCH  21  22
HETATM   22  O2  UNL     1      26.813  12.174  -9.991  1.00  0.00    -0.399 OA
ATOM     23  H2  UNL     1      25.981  11.771 -10.207  1.00  0.00     0.209 HD
ENDBRANCH  21  22
ENDBRANCH  20  21
ENDBRANCH  17  20
ENDBRANCH  13  14
ENDBRANCH   8  13
TORSDOF 5
ENDMDL