MODEL 5
REMARK VINA RESULT: -4.982657579      1.325      1.399
REMARK  5 active torsions:
REMARK  status: ('A' for Active; 'I' for Inactive)
REMARK    1  A    between atoms: N1_1  and  C1_4
REMARK    2  A    between atoms: C2_7  and  C3_8
REMARK    3  A    between atoms: N3_9  and  N4_11
REMARK    4  A    between atoms: N4_11  and  C4_13
REMARK    5  A    between atoms: C4_13  and  N5_14
ROOT
HETATM    1  C1  UNL     1      11.013   5.927   2.731  1.00  0.00     0.698 A
HETATM    2  N2  UNL     1      11.331   5.488   3.971  1.00  0.00    -0.166 N
ATOM      3  H2  UNL     1      10.859   4.729   4.461  1.00  0.00     0.186 HD
HETATM    4  C2  UNL     1      12.355   6.198   4.457  1.00  0.00     0.202 A
HETATM    5  O1  UNL     1      12.663   7.059   3.533  1.00  0.00    -0.203 OA
HETATM    6  N6  UNL     1      11.883   6.924   2.490  1.00  0.00    -0.089 N
ATOM      7  H6  UNL     1      11.928   7.483   1.637  1.00  0.00     0.213 HD
ENDROOT
BRANCH   4   8
HETATM    8  C3  UNL     1      13.030   6.082   5.745  1.00  0.00     0.165 C
HETATM    9  N3  UNL     1      13.770   7.021   6.201  1.00  0.00    -0.310 N
ATOM     10  H3  UNL     1      13.896   7.875   5.657  1.00  0.00     0.185 HD
BRANCH   9  11
HETATM   11  N4  UNL     1      14.402   6.887   7.429  1.00  0.00    -0.311 N
ATOM     12  H4  UNL     1      14.065   6.202   8.106  1.00  0.00     0.182 HD
BRANCH  11  13
HETATM   13  C4  UNL     1      15.522   7.707   7.745  1.00  0.00     0.368 C
BRANCH  13  14
HETATM   14  N5  UNL     1      15.225   8.816   8.595  1.00  0.00    -0.062 N
ATOM     15  H53 UNL     1      15.791   8.775   9.442  1.00  0.00     0.276 HD
ATOM     16  H52 UNL     1      15.580   9.681   8.188  1.00  0.00     0.276 HD
ATOM     17  H51 UNL     1      14.238   8.914   8.833  1.00  0.00     0.276 HD
ENDBRANCH  13  14
ENDBRANCH  11  13
ENDBRANCH   9  11
ENDBRANCH   4   8
BRANCH   1  18
HETATM   18  N1  UNL     1      10.100   5.524   1.915  1.00  0.00    -0.233 N
ATOM     19  H12 UNL     1      10.252   4.900   1.122  1.00  0.00     0.174 HD
ATOM     20  H11 UNL     1       9.100   5.729   1.893  1.00  0.00     0.174 HD
ENDBRANCH   1  18
TORSDOF 5
ENDMDL