MODEL 5
REMARK VINA RESULT: -4.673738674      2.518      2.977
REMARK  6 active torsions:
REMARK  status: ('A' for Active; 'I' for Inactive)
REMARK    1  A    between atoms: N1_1  and  C1_4
REMARK    2  A    between atoms: C2_10  and  C3_11
REMARK    3  A    between atoms: C3_11  and  C4_12
REMARK    4  A    between atoms: C4_12  and  C5_13
REMARK    5  A    between atoms: C5_13  and  N4_14
REMARK    6  A    between atoms: C5_13  and  N5_18
ROOT
HETATM    1  C3  UNL     1      13.017   6.672   6.494  1.00  0.00     0.067 C
ENDROOT
BRANCH   1   2
HETATM    2  C2  UNL     1      12.839   5.328   5.957  1.00  0.00     0.079 A
HETATM    3  C1  UNL     1      11.662   4.677   5.662  1.00  0.00     0.146 A
HETATM    4  N2  UNL     1      11.994   3.441   5.184  1.00  0.00    -0.224 N
HETATM    5  O1  UNL     1      13.298   3.362   5.193  1.00  0.00    -0.155 OA
ATOM      6  H2  UNL     1      11.346   2.716   4.876  1.00  0.00     0.198 HD
HETATM    7  N3  UNL     1      13.821   4.469   5.648  1.00  0.00    -0.242 N
ATOM      8  H3  UNL     1      14.819   4.652   5.752  1.00  0.00     0.196 HD
BRANCH   3   9
HETATM    9  N1  UNL     1      10.462   5.108   5.794  1.00  0.00    -0.382 N
ATOM     10  H12 UNL     1       9.928   5.698   5.156  1.00  0.00     0.157 HD
ATOM     11  H11 UNL     1       9.858   4.905   6.591  1.00  0.00     0.157 HD
ENDBRANCH   3   9
ENDBRANCH   1   2
BRANCH   1  12
HETATM   12  C4  UNL     1      14.297   6.858   7.271  1.00  0.00     0.068 C
BRANCH  12  13
HETATM   13  C5  UNL     1      14.835   8.251   7.226  1.00  0.00     0.378 C
BRANCH  13  14
HETATM   14  N4  UNL     1      16.093   8.278   6.551  1.00  0.00    -0.051 N
ATOM     15  H43 UNL     1      15.981   8.411   5.545  1.00  0.00     0.276 HD
ATOM     16  H42 UNL     1      16.618   9.127   6.759  1.00  0.00     0.276 HD
ATOM     17  H41 UNL     1      16.629   7.437   6.766  1.00  0.00     0.276 HD
ENDBRANCH  13  14
BRANCH  13  18
HETATM   18  N5  UNL     1      15.061   8.682   8.593  1.00  0.00    -0.051 N
ATOM     19  H53 UNL     1      15.039   7.910   9.261  1.00  0.00     0.276 HD
ATOM     20  H52 UNL     1      16.023   8.977   8.761  1.00  0.00     0.276 HD
ATOM     21  H51 UNL     1      14.379   9.410   8.807  1.00  0.00     0.276 HD
ENDBRANCH  13  18
ENDBRANCH  12  13
ENDBRANCH   1  12
TORSDOF 6
ENDMDL