MODEL 3
REMARK VINA RESULT: -4.844576344      1.364      1.863
REMARK  3 active torsions:
REMARK  status: ('A' for Active; 'I' for Inactive)
REMARK       I    between atoms: C1_4  and  N3_6
REMARK    1  A    between atoms: N3_6  and  N4_8
REMARK    2  A    between atoms: N5_10  and  N6_12
REMARK    3  A    between atoms: N6_12  and  C2_14
ROOT
HETATM    1  N4  UNL     1      13.201   4.783   5.786  1.00  0.00    -0.226 N
ATOM      2  H4  UNL     1      13.502   3.887   5.402  1.00  0.00     0.210 HD
HETATM    3  N5  UNL     1      14.068   5.656   6.153  1.00  0.00    -0.232 N
ATOM      4  H5  UNL     1      15.063   5.450   6.061  1.00  0.00     0.209 HD
ENDROOT
BRANCH   3   5
HETATM    5  N6  UNL     1      13.659   6.894   6.683  1.00  0.00    -0.313 N
ATOM      6  H6  UNL     1      12.695   6.993   6.997  1.00  0.00     0.182 HD
BRANCH   5   7
HETATM    7  C2  UNL     1      14.536   8.021   6.801  1.00  0.00     0.152 C
HETATM    8  C3  UNL     1      14.801   8.486   8.220  1.00  0.00     0.260 C
HETATM    9  N7  UNL     1      15.806   7.429   8.297  1.00  0.00    -0.071 N
HETATM   10  C4  UNL     1      16.006   7.622   6.867  1.00  0.00     0.260 C
ATOM     11  H72 UNL     1      16.585   7.483   8.954  1.00  0.00     0.277 HD
ATOM     12  H71 UNL     1      15.582   6.511   8.682  1.00  0.00     0.277 HD
ENDBRANCH   5   7
ENDBRANCH   3   5
BRANCH   1  13
HETATM   13  N3  UNL     1      11.832   5.076   5.919  1.00  0.00    -0.258 N
HETATM   14  C1  UNL     1      10.909   4.922   4.857  1.00  0.00     0.201 C
HETATM   15  N1  UNL     1       9.696   4.555   5.026  1.00  0.00    -0.372 N
HETATM   16  N2  UNL     1      11.333   5.185   3.522  1.00  0.00    -0.062 NA
ATOM     17  H12 UNL     1       9.031   4.444   4.261  1.00  0.00     0.158 HD
ATOM     18  H11 UNL     1       9.393   4.367   5.982  1.00  0.00     0.158 HD
ATOM     19  H3  UNL     1      11.490   5.413   6.818  1.00  0.00     0.191 HD
ENDBRANCH   1  13
TORSDOF 3
ENDMDL