MODEL 1
REMARK VINA RESULT: -5.416175805      0.000      0.000
REMARK  4 active torsions:
REMARK  status: ('A' for Active; 'I' for Inactive)
REMARK    1  A    between atoms: O1_1  and  C1_3
REMARK    2  A    between atoms: C1_3  and  N1_4
REMARK    3  A    between atoms: N1_4  and  N2_5
REMARK    4  A    between atoms: N2_5  and  C2_7
ROOT
HETATM    1  C2  UNL     1      11.039   6.293   2.539  1.00  0.00     0.176 A
HETATM    2  N3  UNL     1       9.975   6.292   1.764  1.00  0.00    -0.280 N
ATOM      3  H3  UNL     1       9.794   6.924   0.984  1.00  0.00     0.188 HD
HETATM    4  N4  UNL     1       9.171   5.301   2.194  1.00  0.00    -0.282 N
ATOM      5  H4  UNL     1       8.268   5.063   1.784  1.00  0.00     0.188 HD
HETATM    6  C3  UNL     1       9.730   4.673   3.240  1.00  0.00     0.152 A
HETATM    7  N5  UNL     1       9.599   3.672   4.159  1.00  0.00    -0.336 N
ATOM      8  H5  UNL     1       8.806   3.033   4.221  1.00  0.00     0.168 HD
HETATM    9  C4  UNL     1      10.689   3.654   4.985  1.00  0.00     0.182 A
HETATM   10  N6  UNL     1      11.479   4.652   4.547  1.00  0.00    -0.346 N
ATOM     11  H6  UNL     1      12.377   4.897   4.964  1.00  0.00     0.167 HD
HETATM   12  C5  UNL     1      10.929   5.298   3.477  1.00  0.00     0.127 A
ENDROOT
BRANCH   1  13
HETATM   13  N2  UNL     1      12.215   7.194   2.472  1.00  0.00    -0.214 N
ATOM     14  H2  UNL     1      12.686   7.381   1.587  1.00  0.00     0.203 HD
BRANCH  13  15
HETATM   15  N1  UNL     1      12.632   7.748   3.599  1.00  0.00    -0.313 NA
BRANCH  15  16
HETATM   16  C1  UNL     1      13.060   8.316   4.746  1.00  0.00     0.343 C
BRANCH  16  17
HETATM   17  O1  UNL     1      12.917   9.636   4.890  1.00  0.00    -0.344 OA
ATOM     18  H1  UNL     1      12.787  10.162   4.109  1.00  0.00     0.219 HD
ENDBRANCH  16  17
ENDBRANCH  15  16
ENDBRANCH  13  15
ENDBRANCH   1  13
TORSDOF 4
ENDMDL