MODEL 1
REMARK VINA RESULT: -4.809042965      0.000      0.000
REMARK  4 active torsions:
REMARK  status: ('A' for Active; 'I' for Inactive)
REMARK    1  A    between atoms: C2_2  and  N1_4
REMARK    2  A    between atoms: N1_4  and  N2_6
REMARK    3  A    between atoms: N2_6  and  N3_8
REMARK    4  A    between atoms: N3_8  and  C4_10
ROOT
HETATM    1  N3  UNL     1      12.914   7.852   4.371  1.00  0.00    -0.257 N
ATOM      2  H3  UNL     1      13.082   8.715   3.854  1.00  0.00     0.191 HD
ENDROOT
BRANCH   1   3
HETATM    3  N2  UNL     1      13.415   7.689   5.620  1.00  0.00    -0.244 N
ATOM      4  H2  UNL     1      12.987   7.001   6.241  1.00  0.00     0.208 HD
BRANCH   3   5
HETATM    5  N1  UNL     1      14.442   8.397   6.056  1.00  0.00    -0.318 N
ATOM      6  H1  UNL     1      14.655   9.297   5.624  1.00  0.00     0.182 HD
BRANCH   5   7
HETATM    7  C2  UNL     1      15.253   7.919   7.120  1.00  0.00     0.092 C
HETATM    8  C1  UNL     1      16.689   7.679   6.705  1.00  0.00     0.033 C
HETATM    9  C3  UNL     1      15.201   8.711   8.383  1.00  0.00     0.033 C
ENDBRANCH   5   7
ENDBRANCH   3   5
ENDBRANCH   1   3
BRANCH   1  10
HETATM   10  C4  UNL     1      12.151   6.797   3.792  1.00  0.00     0.191 C
HETATM   11  N4  UNL     1      11.740   5.717   4.378  1.00  0.00    -0.360 N
HETATM   12  C5  UNL     1      10.996   4.881   3.481  1.00  0.00     0.142 C
ATOM     13  H4  UNL     1      11.922   5.490   5.355  1.00  0.00     0.162 HD
HETATM   14  C6  UNL     1      10.617   5.841   2.366  1.00  0.00     0.142 C
HETATM   15  N5  UNL     1      11.713   6.786   2.419  1.00  0.00    -0.360 N
ATOM     16  H5  UNL     1      12.096   7.330   1.645  1.00  0.00     0.162 HD
ENDBRANCH   1  10
TORSDOF 4
ENDMDL