MODEL 4
REMARK VINA RESULT: -4.506492639      1.786      1.965
REMARK  6 active torsions:
REMARK  status: ('A' for Active; 'I' for Inactive)
REMARK    1  A    between atoms: N1_1  and  C1_4
REMARK    2  A    between atoms: N3_8  and  C3_9
REMARK    3  A    between atoms: C3_9  and  C4_10
REMARK    4  A    between atoms: C4_10  and  C5_11
REMARK    5  A    between atoms: C5_11  and  N4_12
REMARK    6  A    between atoms: C5_11  and  N5_16
ROOT
HETATM    1  C3  UNL     1      14.171   6.253   6.168  1.00  0.00     0.173 C
ENDROOT
BRANCH   1   2
HETATM    2  N3  UNL     1      13.110   5.331   5.868  1.00  0.00    -0.233 N
HETATM    3  N2  UNL     1      13.167   3.998   5.749  1.00  0.00    -0.292 N
HETATM    4  C2  UNL     1      11.946   3.513   5.459  1.00  0.00     0.158 A
ATOM      5  H2  UNL     1      14.010   3.434   5.862  1.00  0.00     0.188 HD
HETATM    6  C1  UNL     1      11.118   4.623   5.403  1.00  0.00     0.132 A
HETATM    7  N6  UNL     1      11.856   5.719   5.658  1.00  0.00    -0.268 N
ATOM      8  H6  UNL     1      11.513   6.679   5.685  1.00  0.00     0.190 HD
BRANCH   6   9
HETATM    9  N1  UNL     1       9.843   4.559   5.145  1.00  0.00    -0.383 N
ATOM     10  H12 UNL     1       9.240   3.737   5.162  1.00  0.00     0.157 HD
ATOM     11  H11 UNL     1       9.279   5.367   4.882  1.00  0.00     0.157 HD
ENDBRANCH   6   9
ENDBRANCH   1   2
BRANCH   1  12
HETATM   12  C4  UNL     1      13.815   7.231   7.261  1.00  0.00     0.085 C
BRANCH  12  13
HETATM   13  C5  UNL     1      15.142   7.818   7.758  1.00  0.00     0.379 C
BRANCH  13  14
HETATM   14  N4  UNL     1      14.941   8.801   8.776  1.00  0.00    -0.050 N
ATOM     15  H43 UNL     1      14.796   9.727   8.374  1.00  0.00     0.276 HD
ATOM     16  H42 UNL     1      14.038   8.681   9.235  1.00  0.00     0.276 HD
ATOM     17  H41 UNL     1      15.704   8.806   9.455  1.00  0.00     0.276 HD
ENDBRANCH  13  14
BRANCH  13  18
HETATM   18  N5  UNL     1      15.826   8.333   6.605  1.00  0.00    -0.050 N
ATOM     19  H53 UNL     1      15.906   7.654   5.849  1.00  0.00     0.276 HD
ATOM     20  H52 UNL     1      15.284   9.031   6.096  1.00  0.00     0.276 HD
ATOM     21  H51 UNL     1      16.729   8.682   6.929  1.00  0.00     0.276 HD
ENDBRANCH  13  18
ENDBRANCH  12  13
ENDBRANCH   1  12
TORSDOF 6
ENDMDL