MODEL 1
REMARK VINA RESULT: -5.592992168      0.000      0.000
REMARK  4 active torsions:
REMARK  status: ('A' for Active; 'I' for Inactive)
REMARK    1  A    between atoms: N1_1  and  C1_5
REMARK    2  A    between atoms: C1_5  and  C2_6
REMARK    3  A    between atoms: C2_6  and  C3_7
REMARK    4  A    between atoms: C3_7  and  N2_8
ROOT
HETATM    1  N2  UNL     1      13.623   6.819   5.934  1.00  0.00    -0.196 NA
HETATM    2  C4  UNL     1      12.486   5.986   6.063  1.00  0.00     0.234 C
HETATM    3  N3  UNL     1      12.043   5.694   4.684  1.00  0.00    -0.350 N
ATOM      4  H3  UNL     1      11.604   4.798   4.469  1.00  0.00     0.163 HD
HETATM    5  C5  UNL     1      12.211   6.574   3.748  1.00  0.00     0.202 C
HETATM    6  N4  UNL     1      11.804   6.345   2.402  1.00  0.00    -0.062 NA
HETATM    7  N5  UNL     1      12.821   7.805   4.094  1.00  0.00    -0.262 N
ATOM      8  H5  UNL     1      12.974   8.518   3.380  1.00  0.00     0.186 HD
HETATM    9  N6  UNL     1      13.211   8.041   5.405  1.00  0.00    -0.044 NA
ENDROOT
BRANCH   1  10
HETATM   10  C3  UNL     1      14.470   7.003   7.038  1.00  0.00     0.115 C
BRANCH  10  11
HETATM   11  C2  UNL     1      15.711   7.810   6.751  1.00  0.00     0.043 C
BRANCH  11  12
HETATM   12  C1  UNL     1      15.803   8.896   7.825  1.00  0.00     0.231 C
BRANCH  12  13
HETATM   13  N1  UNL     1      14.802   8.723   8.839  1.00  0.00    -0.079 N
ATOM     14  H13 UNL     1      14.416   9.618   9.138  1.00  0.00     0.274 HD
ATOM     15  H12 UNL     1      13.954   8.304   8.457  1.00  0.00     0.274 HD
ATOM     16  H11 UNL     1      15.159   8.188   9.631  1.00  0.00     0.274 HD
ENDBRANCH  12  13
ENDBRANCH  11  12
ENDBRANCH  10  11
ENDBRANCH   1  10
TORSDOF 4
ENDMDL