MODEL 3
REMARK VINA RESULT: -4.640600674      1.330      4.997
REMARK  3 active torsions:
REMARK  status: ('A' for Active; 'I' for Inactive)
REMARK    1  A    between atoms: N1_2  and  N2_4
REMARK    2  A    between atoms: C2_6  and  C3_7
REMARK    3  A    between atoms: C4_10  and  N4_11
ROOT
HETATM    1  C3  UNL     1      12.796   6.429   5.308  1.00  0.00     0.152 A
HETATM    2  N3  UNL     1      12.515   6.980   4.102  1.00  0.00    -0.173 N
ATOM      3  H3  UNL     1      12.916   7.846   3.741  1.00  0.00     0.186 HD
HETATM    4  C4  UNL     1      11.637   6.217   3.464  1.00  0.00     0.692 A
HETATM    5  N5  UNL     1      11.377   5.189   4.281  1.00  0.00    -0.131 N
ATOM      6  H5  UNL     1      10.734   4.427   4.068  1.00  0.00     0.205 HD
HETATM    7  N6  UNL     1      12.067   5.298   5.401  1.00  0.00    -0.270 N
ATOM      8  H6  UNL     1      12.051   4.650   6.188  1.00  0.00     0.189 HD
ENDROOT
BRANCH   1   9
HETATM    9  C2  UNL     1      13.720   6.989   6.285  1.00  0.00     0.157 C
HETATM   10  N2  UNL     1      14.285   8.096   6.059  1.00  0.00    -0.313 N
ATOM     11  H2  UNL     1      14.044   8.536   5.171  1.00  0.00     0.185 HD
BRANCH  10  12
HETATM   12  N1  UNL     1      15.169   8.786   6.829  1.00  0.00    -0.341 N
HETATM   13  C1  UNL     1      15.222   8.622   8.259  1.00  0.00     0.167 C
ATOM     14  H1  UNL     1      15.813   9.437   6.381  1.00  0.00     0.179 HD
ENDBRANCH  10  12
ENDBRANCH   1   9
BRANCH   4  15
HETATM   15  N4  UNL     1      11.128   6.420   2.279  1.00  0.00    -0.233 N
ATOM     16  H42 UNL     1      10.216   6.110   1.945  1.00  0.00     0.174 HD
ATOM     17  H41 UNL     1      11.559   6.919   1.501  1.00  0.00     0.174 HD
ENDBRANCH   4  15
TORSDOF 3
ENDMDL