MODEL 1
REMARK VINA RESULT: -7.697638070      0.000      0.000
REMARK  6 active torsions:
REMARK  status: ('A' for Active; 'I' for Inactive)
REMARK    1  A    between atoms: O1_2  and  C2_3
REMARK    2  A    between atoms: C5_6  and  C6_7
REMARK    3  A    between atoms: C9_11  and  O2_12
REMARK    4  A    between atoms: C10_14  and  C11_15
REMARK    5  A    between atoms: C11_15  and  C12_16
REMARK       I    between atoms: C12_16  and  N1_18
REMARK    6  A    between atoms: C13_19  and  C14_20
ROOT
HETATM    1  C2  UNL     1       6.490   5.641  17.905  1.00  0.00     0.130 C
HETATM    2  C3  UNL     1       7.709   4.745  17.611  1.00  0.00     0.017 C
HETATM    3  C4  UNL     1       6.923   3.458  17.382  1.00  0.00     0.018 C
HETATM    4  C5  UNL     1       5.870   3.539  18.500  1.00  0.00    -0.024 C
HETATM    5  C7  UNL     1       6.058   2.355  19.372  1.00  0.00     0.013 C
HETATM    6  C8  UNL     1       7.434   2.369  20.000  1.00  0.00     0.033 C
HETATM    7  C9  UNL     1       7.434   3.639  20.844  1.00  0.00     0.127 C
HETATM    8  C10 UNL     1       7.322   4.883  20.012  1.00  0.00     0.001 C
HETATM    9  C19 UNL     1       8.413   4.790  18.923  1.00  0.00     0.020 C
HETATM   10  C20 UNL     1       6.075   4.887  19.155  1.00  0.00     0.036 C
ENDROOT
BRANCH   8  11
HETATM   11  C11 UNL     1       7.563   6.109  20.784  1.00  0.00     0.115 C
BRANCH  11  12
HETATM   12  C12 UNL     1       6.464   6.779  21.496  1.00  0.00     0.222 C
HETATM   13  O3  UNL     1       5.334   6.278  21.683  1.00  0.00    -0.273 OA
HETATM   14  N1  UNL     1       6.645   8.090  22.027  1.00  0.00    -0.327 N
HETATM   15  C13 UNL     1       7.853   8.881  21.945  1.00  0.00     0.246 C
HETATM   16  C18 UNL     1       5.644   8.844  22.732  1.00  0.00     0.100 A
HETATM   17  C15 UNL     1       7.408  10.286  22.146  1.00  0.00     0.164 C
HETATM   18  O5  UNL     1       8.016  11.260  21.816  1.00  0.00    -0.295 OA
HETATM   19  C16 UNL     1       6.101  10.249  22.814  1.00  0.00     0.083 A
HETATM   20  C17 UNL     1       4.911   9.907  21.964  1.00  0.00     0.040 A
BRANCH  15  21
HETATM   21  C14 UNL     1       8.775   8.571  23.064  1.00  0.00     0.261 C
HETATM   22  N2  UNL     1       9.993   9.276  23.196  1.00  0.00    -0.060 NA
HETATM   23  O4  UNL     1       8.511   7.691  23.908  1.00  0.00    -0.274 OA
ENDBRANCH  15  21
ENDBRANCH  11  12
ENDBRANCH   8  11
BRANCH   7  24
HETATM   24  O2  UNL     1       6.359   3.435  21.698  1.00  0.00    -0.395 OA
ATOM     25  H2  UNL     1       6.642   3.869  22.494  1.00  0.00     0.210 HD
ENDBRANCH   7  24
BRANCH   1  26
HETATM   26  O1  UNL     1       6.765   6.948  18.024  1.00  0.00    -0.390 OA
HETATM   27  C1  UNL     1       5.552   7.674  18.027  1.00  0.00     0.202 C
ENDBRANCH   1  26
BRANCH   4  28
HETATM   28  C6  UNL     1       4.465   3.433  17.926  1.00  0.00     0.095 C
HETATM   29 BR1  UNL     1       3.410   2.307  19.068  1.00  0.00    -0.096 Br
ENDBRANCH   4  28
TORSDOF 6
ENDMDL