MODEL 5
REMARK VINA RESULT: -6.609035288      5.525      7.635
REMARK  8 active torsions:
REMARK  status: ('A' for Active; 'I' for Inactive)
REMARK    1  A    between atoms: C2_2  and  C3_3
REMARK    2  A    between atoms: C3_3  and  C4_4
REMARK    3  A    between atoms: C4_4  and  O1_5
REMARK    4  A    between atoms: C4_4  and  N1_7
REMARK    5  A    between atoms: C5_8  and  C6_9
REMARK    6  A    between atoms: C9_15  and  C10_16
REMARK       I    between atoms: C10_16  and  N2_18
REMARK    7  A    between atoms: N2_18  and  C11_20
REMARK    8  A    between atoms: C15_24  and  C16_25
ROOT
HETATM    1  N1  UNL     1       7.283   3.525  17.157  1.00  0.00    -0.312 N
HETATM    2  C5  UNL     1       7.020   5.030  17.232  1.00  0.00     0.253 C
HETATM    3  C7  UNL     1       6.139   4.929  18.351  1.00  0.00     0.208 C
HETATM    4  O4  UNL     1       5.350   5.655  19.109  1.00  0.00    -0.345 OA
HETATM    5  C8  UNL     1       5.592   4.706  20.136  1.00  0.00     0.152 C
HETATM    6  C9  UNL     1       5.144   3.314  19.927  1.00  0.00     0.112 C
HETATM    7  C14 UNL     1       6.066   2.468  19.055  1.00  0.00     0.079 C
HETATM    8  C15 UNL     1       6.086   2.930  17.604  1.00  0.00     0.152 C
HETATM    9  O6  UNL     1       5.261   4.096  17.751  1.00  0.00    -0.320 OA
HETATM   10  C17 UNL     1       6.938   4.751  19.518  1.00  0.00     0.046 A
HETATM   11  C18 UNL     1       8.212   4.737  20.032  1.00  0.00     0.019 A
HETATM   12  C19 UNL     1       7.658   6.091  19.909  1.00  0.00     0.019 A
ENDROOT
BRANCH   6  13
HETATM   13  C10 UNL     1       4.983   2.667  21.230  1.00  0.00     0.224 C
HETATM   14  O5  UNL     1       6.016   2.431  21.928  1.00  0.00    -0.273 OA
HETATM   15  N2  UNL     1       3.707   2.311  21.703  1.00  0.00    -0.356 N
ATOM     16  H2  UNL     1       2.880   2.502  21.137  1.00  0.00     0.162 HD
BRANCH  15  17
HETATM   17  C11 UNL     1       3.572   1.672  22.995  1.00  0.00     0.084 A
HETATM   18  C12 UNL     1       3.575   0.185  23.079  1.00  0.00     0.027 A
HETATM   19  C13 UNL     1       2.275   0.916  23.169  1.00  0.00     0.027 A
ENDBRANCH  15  17
ENDBRANCH   6  13
BRANCH   8  20
HETATM   20  C16 UNL     1       5.272   2.023  16.784  1.00  0.00     0.146 C
HETATM   21 BR1  UNL     1       3.560   2.667  16.269  1.00  0.00    -0.091 Br
ENDBRANCH   8  20
BRANCH   1  22
HETATM   22  C4  UNL     1       8.565   3.139  16.726  1.00  0.00     0.116 C
BRANCH  22  23
HETATM   23  C3  UNL     1       9.789   2.828  17.427  1.00  0.00     0.083 C
BRANCH  23  24
HETATM   24  C2  UNL     1       9.631   1.578  18.327  1.00  0.00     0.003 C
HETATM   25  C1  UNL     1      10.434   0.439  17.729  1.00  0.00     0.005 C
ENDBRANCH  23  24
ENDBRANCH  22  23
BRANCH  22  26
HETATM   26  O1  UNL     1       8.711   3.033  15.426  1.00  0.00    -0.349 OA
ATOM     27  H1  UNL     1       8.686   2.126  15.143  1.00  0.00     0.219 HD
ENDBRANCH  22  26
ENDBRANCH   1  22
BRANCH   2  28
HETATM   28  C6  UNL     1       6.394   5.499  16.007  1.00  0.00     0.202 C
HETATM   29  O2  UNL     1       6.293   4.858  14.945  1.00  0.00    -0.646 OA
HETATM   30  O3  UNL     1       5.839   6.794  15.978  1.00  0.00    -0.646 OA
ENDBRANCH   2  28
TORSDOF 8
ENDMDL