MODEL 2
REMARK VINA RESULT: -9.477581453      1.339      1.635
REMARK  8 active torsions:
REMARK  status: ('A' for Active; 'I' for Inactive)
REMARK    1  A    between atoms: N2_5  and  O1_6
REMARK    2  A    between atoms: C4_9  and  C5_10
REMARK    3  A    between atoms: C5_10  and  C6_11
REMARK    4  A    between atoms: C6_11  and  N3_12
REMARK       I    between atoms: N3_12  and  C7_14
REMARK    5  A    between atoms: C7_14  and  C8_16
REMARK       I    between atoms: C8_16  and  N4_18
REMARK    6  A    between atoms: N4_18  and  C9_20
REMARK    7  A    between atoms: C9_20  and  C10_21
REMARK    8  A    between atoms: N5_32  and  O4_33
ROOT
HETATM    1  C5  UNL     1       6.584  11.051  21.923  1.00  0.00     0.085 C
ENDROOT
BRANCH   1   2
HETATM    2  C4  UNL     1       6.692  10.001  22.895  1.00  0.00    -0.020 A
HETATM    3  C3  UNL     1       7.782   9.707  23.665  1.00  0.00     0.117 A
HETATM    4  N2  UNL     1       8.850  10.514  23.647  1.00  0.00    -0.159 N
HETATM    5  C19 UNL     1       7.784   8.567  24.498  1.00  0.00     0.095 A
HETATM    6  N1  UNL     1       9.916  10.256  24.400  1.00  0.00    -0.261 N
HETATM    7  C2  UNL     1       9.927   9.176  25.192  1.00  0.00     0.122 A
ATOM      8  H1  UNL     1      10.724  10.879  24.375  1.00  0.00     0.191 HD
HETATM    9  C1  UNL     1      11.094   8.827  26.065  1.00  0.00     0.093 C
HETATM   10  N5  UNL     1       8.877   8.341  25.243  1.00  0.00    -0.209 N
HETATM   11  C18 UNL     1       6.699   7.725  24.564  1.00  0.00     0.034 A
HETATM   12  C17 UNL     1       5.595   7.994  23.811  1.00  0.00     0.003 A
HETATM   13  C16 UNL     1       5.603   9.098  23.006  1.00  0.00     0.010 A
BRANCH   4  14
HETATM   14  O1  UNL     1       8.824  11.645  22.878  1.00  0.00    -0.267 OA
ATOM     15  H1  UNL     1       8.567  11.586  21.966  1.00  0.00     0.247 HD
ENDBRANCH   4  14
BRANCH  10  16
HETATM   16  O4  UNL     1       8.858   7.222  26.049  1.00  0.00    -0.281 OA
ATOM     17  H4  UNL     1       8.395   6.427  25.809  1.00  0.00     0.245 HD
ENDBRANCH  10  16
ENDBRANCH   1   2
BRANCH   1  18
HETATM   18  C6  UNL     1       7.191  10.728  20.568  1.00  0.00     0.069 C
BRANCH  18  19
HETATM   19  N3  UNL     1       6.809   9.589  19.879  1.00  0.00    -0.332 N
HETATM   20  C7  UNL     1       7.479   8.364  19.805  1.00  0.00     0.312 C
HETATM   21  O2  UNL     1       8.557   8.190  20.404  1.00  0.00    -0.262 OA
ATOM     22  H3  UNL     1       5.932   9.653  19.361  1.00  0.00     0.168 HD
BRANCH  20  23
HETATM   23  C8  UNL     1       6.970   7.224  19.035  1.00  0.00     0.309 C
HETATM   24  O3  UNL     1       6.273   7.455  18.018  1.00  0.00    -0.262 OA
HETATM   25  N4  UNL     1       7.296   5.904  19.485  1.00  0.00    -0.349 N
ATOM     26  H4  UNL     1       7.865   5.757  20.319  1.00  0.00     0.163 HD
BRANCH  25  27
HETATM   27  C9  UNL     1       6.802   4.812  18.735  1.00  0.00     0.163 C
BRANCH  27  28
HETATM   28  C10 UNL     1       7.791   3.780  18.415  1.00  0.00    -0.023 A
HETATM   29  C11 UNL     1       8.627   3.786  17.331  1.00  0.00     0.010 A
HETATM   30  C12 UNL     1       9.546   2.755  17.106  1.00  0.00     0.001 A
HETATM   31  C13 UNL     1       9.644   1.695  17.964  1.00  0.00     0.001 A
HETATM   32  C14 UNL     1       8.826   1.664  19.047  1.00  0.00     0.019 A
HETATM   33  C15 UNL     1       7.930   2.666  19.271  1.00  0.00     0.018 A
HETATM   34 BR1  UNL     1       6.803   2.576  20.809  1.00  0.00    -0.051 Br
ENDBRANCH  27  28
ENDBRANCH  25  27
ENDBRANCH  20  23
ENDBRANCH  18  19
ENDBRANCH   1  18
TORSDOF 8
ENDMDL