MODEL 5
REMARK VINA RESULT: -7.813385766      2.217      2.964
REMARK  5 active torsions:
REMARK  status: ('A' for Active; 'I' for Inactive)
REMARK    1  A    between atoms: N2_5  and  C4_6
REMARK    2  A    between atoms: C4_6  and  C5_7
REMARK       I    between atoms: C5_7  and  N3_9
REMARK    3  A    between atoms: N3_9  and  C6_11
REMARK    4  A    between atoms: C11_16  and  C12_17
REMARK    5  A    between atoms: C17_25  and  C18_26
ROOT
HETATM    1  C18 UNL     1       9.042   9.418  24.090  1.00  0.00     0.150 C
HETATM    2  C19 UNL     1       9.506   8.477  25.109  1.00  0.00     0.061 C
HETATM    3  N5  UNL     1       9.886   7.737  25.940  1.00  0.00    -0.197 NA
ENDROOT
BRANCH   1   4
HETATM    4  C17 UNL     1       8.271   8.670  22.996  1.00  0.00     0.125 C
HETATM    5  N2  UNL     1       7.957   9.504  21.904  1.00  0.00    -0.376 N
HETATM    6  C3  UNL     1       6.657  10.043  21.844  1.00  0.00     0.089 C
HETATM    7  C2  UNL     1       5.889   9.987  23.130  1.00  0.00     0.316 C
HETATM    8  N1  UNL     1       5.917   8.697  23.731  1.00  0.00     0.090 N
HETATM    9  C1  UNL     1       5.430   8.788  25.103  1.00  0.00     0.310 C
HETATM   10  C20 UNL     1       7.114   7.953  23.621  1.00  0.00     0.298 C
BRANCH   5  11
HETATM   11  C4  UNL     1       8.645   9.294  20.685  1.00  0.00     0.225 C
BRANCH  11  12
HETATM   12  C5  UNL     1       7.817   8.562  19.706  1.00  0.00     0.235 C
HETATM   13  O1  UNL     1       7.331   9.147  18.704  1.00  0.00    -0.272 OA
HETATM   14  N3  UNL     1       7.542   7.182  19.863  1.00  0.00    -0.353 N
ATOM     15  H3  UNL     1       7.919   6.673  20.662  1.00  0.00     0.163 HD
BRANCH  14  16
HETATM   16  C6  UNL     1       6.738   6.506  18.899  1.00  0.00     0.107 C
HETATM   17  C7  UNL     1       7.607   5.542  18.088  1.00  0.00     0.011 C
HETATM   18  C8  UNL     1       6.740   5.042  16.958  1.00  0.00     0.011 C
HETATM   19  C13 UNL     1       8.057   4.424  18.985  1.00  0.00     0.025 C
HETATM   20  C9  UNL     1       5.518   4.376  17.518  1.00  0.00    -0.011 C
HETATM   21  C10 UNL     1       5.971   3.199  18.353  1.00  0.00     0.023 C
HETATM   22  C16 UNL     1       4.694   5.276  18.394  1.00  0.00     0.027 C
HETATM   23  C11 UNL     1       6.853   3.656  19.481  1.00  0.00     0.041 C
HETATM   24  C14 UNL     1       6.033   4.591  20.351  1.00  0.00     0.042 C
HETATM   25  C15 UNL     1       5.579   5.756  19.522  1.00  0.00     0.040 C
HETATM   26 BR1  UNL     1       4.565   6.972  20.608  1.00  0.00    -0.083 Br
BRANCH  23  27
HETATM   27  C12 UNL     1       7.330   2.486  20.230  1.00  0.00     0.239 C
HETATM   28  N4  UNL     1       6.969   2.282  21.580  1.00  0.00    -0.061 NA
HETATM   29  O2  UNL     1       8.085   1.638  19.648  1.00  0.00    -0.276 OA
ENDBRANCH  23  27
ENDBRANCH  14  16
ENDBRANCH  11  12
ENDBRANCH   5  11
ENDBRANCH   1   4
TORSDOF 5
ENDMDL