MODEL 2
REMARK VINA RESULT: -6.601955467      2.219      4.542
REMARK  7 active torsions:
REMARK  status: ('A' for Active; 'I' for Inactive)
REMARK    1  A    between atoms: C2_2  and  C3_3
REMARK    2  A    between atoms: C2_2  and  N2_13
REMARK       I    between atoms: C3_3  and  N1_5
REMARK    3  A    between atoms: N1_5  and  C4_7
REMARK    4  A    between atoms: C4_7  and  C6_9
REMARK    5  A    between atoms: C10_14  and  C11_15
REMARK       I    between atoms: C11_15  and  N3_17
REMARK    6  A    between atoms: N3_17  and  C12_19
REMARK    7  A    between atoms: C16_23  and  C17_25
REMARK       I    between atoms: C17_25  and  N4_27
ROOT
HETATM    1  N2  UNL     1       6.269   7.344  19.699  1.00  0.00    -0.347 N
HETATM    2  C10 UNL     1       6.579   8.739  19.490  1.00  0.00     0.235 C
HETATM    3  C16 UNL     1       5.182   9.373  19.462  1.00  0.00     0.274 C
HETATM    4  F1  UNL     1       4.547   9.017  18.312  1.00  0.00    -0.221 F
HETATM    5  C20 UNL     1       4.616   8.586  20.621  1.00  0.00     0.206 C
HETATM    6  O4  UNL     1       3.992   8.983  21.563  1.00  0.00    -0.291 OA
HETATM    7  C21 UNL     1       5.042   7.154  20.289  1.00  0.00     0.091 C
HETATM    8  C22 UNL     1       3.879   6.594  19.556  1.00  0.00     0.047 C
HETATM    9  C23 UNL     1       5.139   6.377  21.592  1.00  0.00     0.047 C
ENDROOT
BRANCH   1  10
HETATM   10  C2  UNL     1       7.307   6.421  19.624  1.00  0.00     0.073 C
HETATM   11  C1  UNL     1       7.970   5.965  20.903  1.00  0.00     0.074 C
BRANCH  10  12
HETATM   12  C3  UNL     1       7.316   5.420  18.541  1.00  0.00     0.263 C
HETATM   13  O1  UNL     1       7.021   5.792  17.356  1.00  0.00    -0.266 OA
HETATM   14  N1  UNL     1       7.619   4.049  18.648  1.00  0.00    -0.351 N
ATOM     15  H1  UNL     1       7.859   3.669  19.564  1.00  0.00     0.163 HD
BRANCH  14  16
HETATM   16  C4  UNL     1       7.603   3.151  17.499  1.00  0.00     0.088 C
HETATM   17  C5  UNL     1       6.269   2.421  17.392  1.00  0.00     0.033 C
BRANCH  16  18
HETATM   18  C6  UNL     1       8.674   2.113  17.728  1.00  0.00    -0.031 C
HETATM   19  C7  UNL     1       8.517   1.610  19.169  1.00  0.00     0.016 C
HETATM   20  C8  UNL     1      10.013   2.845  17.693  1.00  0.00     0.016 C
HETATM   21  C9  UNL     1       8.635   0.982  16.754  1.00  0.00     0.016 C
ENDBRANCH  16  18
ENDBRANCH  14  16
ENDBRANCH  10  12
ENDBRANCH   1  10
BRANCH   2  22
HETATM   22  C11 UNL     1       7.399   9.366  20.509  1.00  0.00     0.245 C
HETATM   23  O2  UNL     1       8.373  10.075  20.220  1.00  0.00    -0.271 OA
HETATM   24  N3  UNL     1       7.090   9.176  21.886  1.00  0.00    -0.351 N
ATOM     25  H3  UNL     1       6.287   8.590  22.115  1.00  0.00     0.163 HD
BRANCH  24  26
HETATM   26  C12 UNL     1       7.826   9.748  22.972  1.00  0.00     0.022 C
HETATM   27  C13 UNL     1       7.082   9.484  24.281  1.00  0.00     0.037 C
HETATM   28  C14 UNL     1       9.151   9.037  23.125  1.00  0.00     0.037 C
HETATM   29  C15 UNL     1       8.048  11.228  22.881  1.00  0.00     0.037 C
ENDBRANCH  24  26
ENDBRANCH   2  22
BRANCH   3  30
HETATM   30  C17 UNL     1       5.125  10.794  19.752  1.00  0.00     0.269 C
HETATM   31  O3  UNL     1       4.761  11.127  20.940  1.00  0.00    -0.269 OA
HETATM   32  N4  UNL     1       5.414  11.870  18.907  1.00  0.00    -0.358 N
HETATM   33  C18 UNL     1       5.296  13.229  19.368  1.00  0.00     0.152 C
HETATM   34  C19 UNL     1       5.827  11.660  17.550  1.00  0.00     0.152 C
ENDBRANCH   3  30
TORSDOF 7
ENDMDL