MODEL 3
REMARK VINA RESULT: -6.659068382      3.458      7.106
REMARK  7 active torsions:
REMARK  status: ('A' for Active; 'I' for Inactive)
REMARK    1  A    between atoms: N1_2  and  C2_4
REMARK       I    between atoms: N2_6  and  C4_8
REMARK       I    between atoms: C4_8  and  N6_24
REMARK       I    between atoms: N3_9  and  C5_11
REMARK    2  A    between atoms: C5_11  and  C6_13
REMARK    3  A    between atoms: C9_18  and  S1_19
REMARK    4  A    between atoms: N6_24  and  C11_26
REMARK    5  A    between atoms: C11_26  and  C12_27
REMARK    6  A    between atoms: C11_26  and  C14_31
REMARK    7  A    between atoms: C12_27  and  C13_29
ROOT
HETATM    1  C2  UNL     1       9.526   8.961  23.347  1.00  0.00     0.088 C
HETATM    2  C3  UNL     1       8.633   8.024  24.056  1.00  0.00     0.089 C
HETATM    3  N2  UNL     1       9.302   9.268  22.146  1.00  0.00    -0.181 N
ATOM      4  H2  UNL     1       9.967   9.922  21.733  1.00  0.00     0.185 HD
HETATM    5  C4  UNL     1       8.272   8.844  21.293  1.00  0.00     0.683 C
HETATM    6  N3  UNL     1       7.603   7.784  21.543  1.00  0.00    -0.154 N
ATOM      7  H3  UNL     1       7.857   7.270  22.387  1.00  0.00     0.187 HD
HETATM    8  C5  UNL     1       6.550   7.252  20.771  1.00  0.00     0.287 C
HETATM    9  O1  UNL     1       5.329   7.418  21.082  1.00  0.00    -0.265 OA
HETATM   10  N6  UNL     1       7.984   9.588  20.126  1.00  0.00    -0.214 N
ATOM     11  H6  UNL     1       8.623   9.442  19.344  1.00  0.00     0.178 HD
ENDROOT
BRANCH  10  12
HETATM   12  C11 UNL     1       6.933  10.508  19.889  1.00  0.00     0.173 C
BRANCH  12  13
HETATM   13  C12 UNL     1       6.481  10.378  18.452  1.00  0.00     0.160 C
HETATM   14  O3  UNL     1       7.294  10.527  17.559  1.00  0.00    -0.295 OA
BRANCH  13  15
HETATM   15  C13 UNL     1       5.087  10.075  18.095  1.00  0.00     0.165 C
HETATM   16 BR1  UNL     1       4.802   9.699  16.237  1.00  0.00    -0.088 Br
ENDBRANCH  13  15
ENDBRANCH  12  13
BRANCH  12  17
HETATM   17  C14 UNL     1       7.274  11.946  20.191  1.00  0.00     0.008 C
HETATM   18  C15 UNL     1       7.823  12.143  21.584  1.00  0.00     0.012 C
HETATM   19  C16 UNL     1       6.103  12.843  19.983  1.00  0.00     0.012 C
ENDBRANCH  12  17
ENDBRANCH  10  12
BRANCH   1  20
HETATM   20  N1  UNL     1      10.645   9.526  24.012  1.00  0.00    -0.384 N
HETATM   21  C1  UNL     1      11.012   9.189  25.379  1.00  0.00     0.147 C
ATOM     22  H1  UNL     1      11.219  10.201  23.508  1.00  0.00     0.160 HD
ENDBRANCH   1  20
BRANCH   8  23
HETATM   23  C6  UNL     1       6.817   6.480  19.567  1.00  0.00     0.118 A
HETATM   24  C7  UNL     1       6.243   6.808  18.357  1.00  0.00     0.122 A
HETATM   25  N4  UNL     1       6.484   6.093  17.232  1.00  0.00    -0.370 N
HETATM   26  C8  UNL     1       7.300   5.025  17.256  1.00  0.00     0.127 A
ATOM     27  H4  UNL     1       6.039   6.367  16.356  1.00  0.00     0.164 HD
HETATM   28  C9  UNL     1       7.880   4.688  18.458  1.00  0.00     0.116 A
HETATM   29  N5  UNL     1       7.631   5.410  19.572  1.00  0.00    -0.342 N
ATOM     30  H5  UNL     1       8.075   5.134  20.448  1.00  0.00     0.167 HD
BRANCH  28  31
HETATM   31  S1  UNL     1       8.939   3.296  18.477  1.00  0.00     0.064 S
HETATM   32  C10 UNL     1       9.368   2.742  16.862  1.00  0.00     0.134 C
HETATM   33  O2  UNL     1       8.152   2.052  19.284  1.00  0.00    -0.252 OA
ENDBRANCH  28  31
ENDBRANCH   8  23
TORSDOF 7
ENDMDL