MODEL 2
REMARK VINA RESULT: -7.582563381      4.278      6.548
REMARK  5 active torsions:
REMARK  status: ('A' for Active; 'I' for Inactive)
REMARK    1  A    between atoms: C2_2  and  N2_6
REMARK       I    between atoms: N2_6  and  C5_8
REMARK    2  A    between atoms: C5_8  and  C6_10
REMARK       I    between atoms: N3_16  and  C12_17
REMARK    3  A    between atoms: C12_17  and  C13_19
REMARK       I    between atoms: N4_23  and  C17_24
REMARK    4  A    between atoms: C17_24  and  C18_26
REMARK    5  A    between atoms: C22_31  and  C23_32
ROOT
HETATM    1  C1  UNL     1       6.579  12.580  13.798  1.00  0.00     0.055 C
HETATM    2  C2  UNL     1       6.765  11.083  13.908  1.00  0.00     0.114 C
HETATM    3  C3  UNL     1       5.601  10.409  13.244  1.00  0.00     0.055 C
HETATM    4  C4  UNL     1       7.970  10.702  13.180  1.00  0.00     0.090 C
HETATM    5  N1  UNL     1       8.915  10.387  12.612  1.00  0.00    -0.195 NA
ENDROOT
BRANCH   2   6
HETATM    6  N2  UNL     1       6.897  10.639  15.276  1.00  0.00    -0.339 N
HETATM    7  C5  UNL     1       5.846  10.764  16.229  1.00  0.00     0.225 C
HETATM    8  O1  UNL     1       4.773  11.283  15.835  1.00  0.00    -0.273 OA
ATOM      9  H2  UNL     1       7.778  10.218  15.572  1.00  0.00     0.164 HD
BRANCH   7  10
HETATM   10  C6  UNL     1       6.060  10.293  17.588  1.00  0.00     0.103 C
HETATM   11  C7  UNL     1       4.792   9.864  18.293  1.00  0.00     0.041 C
HETATM   12  C8  UNL     1       4.884  10.466  19.673  1.00  0.00     0.088 C
HETATM   13  C9  UNL     1       4.463  11.921  19.523  1.00  0.00     0.027 C
HETATM   14  N3  UNL     1       6.329  10.628  19.801  1.00  0.00    -0.340 N
HETATM   15  C10 UNL     1       5.629  12.486  18.723  1.00  0.00     0.028 C
HETATM   16  C11 UNL     1       6.584  11.352  18.533  1.00  0.00     0.101 C
HETATM   17  C12 UNL     1       7.233  10.236  20.778  1.00  0.00     0.243 C
HETATM   18  O2  UNL     1       8.444  10.512  20.645  1.00  0.00    -0.271 OA
BRANCH  17  19
HETATM   19  C13 UNL     1       6.775   9.493  21.970  1.00  0.00     0.179 C
HETATM   20  C14 UNL     1       7.411   9.932  23.240  1.00  0.00     0.037 C
HETATM   21  C15 UNL     1       8.246   8.792  23.719  1.00  0.00     0.022 C
HETATM   22  C16 UNL     1       8.317   7.879  22.493  1.00  0.00     0.127 C
HETATM   23  N4  UNL     1       7.023   8.075  21.863  1.00  0.00    -0.338 N
HETATM   24  C17 UNL     1       6.204   7.093  21.271  1.00  0.00     0.225 C
HETATM   25  O3  UNL     1       5.110   7.543  20.753  1.00  0.00    -0.273 OA
BRANCH  24  26
HETATM   26  C18 UNL     1       6.419   5.665  21.167  1.00  0.00     0.095 C
HETATM   27  C19 UNL     1       5.327   4.814  20.649  1.00  0.00     0.052 C
HETATM   28  C20 UNL     1       6.031   3.524  20.203  1.00  0.00     0.171 C
HETATM   29  F1  UNL     1       5.624   2.433  20.934  1.00  0.00    -0.249 F
HETATM   30  C21 UNL     1       7.505   3.739  20.483  1.00  0.00     0.053 C
HETATM   31  C22 UNL     1       7.634   5.275  20.368  1.00  0.00     0.102 C
BRANCH  31  32
HETATM   32  C23 UNL     1       7.561   5.558  18.936  1.00  0.00     0.177 C
HETATM   33  O4  UNL     1       7.022   6.512  18.363  1.00  0.00    -0.648 OA
HETATM   34  O5  UNL     1       8.188   4.617  18.096  1.00  0.00    -0.648 OA
ENDBRANCH  31  32
ENDBRANCH  24  26
ENDBRANCH  17  19
ENDBRANCH   7  10
ENDBRANCH   2   6
TORSDOF 5
ENDMDL