MODEL 4
REMARK VINA RESULT: -7.135131411      4.064      8.081
REMARK  7 active torsions:
REMARK  status: ('A' for Active; 'I' for Inactive)
REMARK    1  A    between atoms: C3_3  and  C4_4
REMARK    2  A    between atoms: C4_4  and  N1_5
REMARK    3  A    between atoms: C4_4  and  C7_10
REMARK       I    between atoms: N1_5  and  C5_7
REMARK       I    between atoms: C7_10  and  N2_12
REMARK    4  A    between atoms: C11_17  and  N3_18
REMARK    5  A    between atoms: N3_18  and  N4_19
REMARK    6  A    between atoms: N3_18  and  C16_25
REMARK    7  A    between atoms: N4_19  and  C12_21
ROOT
HETATM    1  C1  UNL     1      10.355   0.847  18.038  1.00  0.00     0.012 C
HETATM    2  C2  UNL     1       9.841   1.890  17.727  1.00  0.00    -0.115 C
HETATM    3  C3  UNL     1       9.230   3.160  17.357  1.00  0.00     0.128 C
ENDROOT
BRANCH   3   4
HETATM    4  C4  UNL     1       7.792   3.139  17.793  1.00  0.00     0.188 C
BRANCH   4   5
HETATM    5  N1  UNL     1       7.130   1.989  17.233  1.00  0.00    -0.347 N
HETATM    6  C5  UNL     1       6.469   1.997  15.978  1.00  0.00     0.214 C
HETATM    7  C6  UNL     1       5.807   0.777  15.461  1.00  0.00     0.117 C
HETATM    8  O1  UNL     1       6.472   3.074  15.336  1.00  0.00    -0.274 OA
ATOM      9  H1  UNL     1       7.137   1.121  17.769  1.00  0.00     0.163 HD
ENDBRANCH   4   5
BRANCH   4  10
HETATM   10  C7  UNL     1       7.647   3.231  19.249  1.00  0.00     0.245 C
HETATM   11  O2  UNL     1       7.237   2.248  19.917  1.00  0.00    -0.271 OA
HETATM   12  N2  UNL     1       7.963   4.420  19.940  1.00  0.00    -0.330 N
HETATM   13  C8  UNL     1       7.303   5.523  19.881  1.00  0.00     0.021 A
ATOM     14  H2  UNL     1       8.788   4.403  20.540  1.00  0.00     0.168 HD
HETATM   15  C9  UNL     1       6.151   6.309  19.340  1.00  0.00     0.060 A
HETATM   16  C11 UNL     1       7.169   6.904  20.321  1.00  0.00     0.164 A
HETATM   17  C10 UNL     1       6.160   6.815  17.940  1.00  0.00     0.018 C
BRANCH  16  18
HETATM   18  N3  UNL     1       6.533   7.260  21.577  1.00  0.00    -0.272 N
BRANCH  18  19
HETATM   19  N4  UNL     1       5.205   6.969  21.736  1.00  0.00    -0.323 N
ATOM     20  H4  UNL     1       4.889   6.003  21.817  1.00  0.00     0.181 HD
BRANCH  19  21
HETATM   21  C12 UNL     1       4.282   8.039  21.785  1.00  0.00     0.035 C
HETATM   22  C13 UNL     1       4.696   9.306  21.098  1.00  0.00     0.039 C
HETATM   23  C14 UNL     1       3.829   8.416  23.179  1.00  0.00     0.039 C
HETATM   24  C15 UNL     1       3.011   7.564  21.062  1.00  0.00     0.039 C
ENDBRANCH  19  21
ENDBRANCH  18  19
BRANCH  18  25
HETATM   25  C16 UNL     1       7.355   7.893  22.541  1.00  0.00     0.108 C
HETATM   26  N5  UNL     1       7.279   7.602  23.790  1.00  0.00    -0.271 N
HETATM   27  S1  UNL     1       8.247   8.331  25.014  1.00  0.00     0.249 S
ATOM     28  H5  UNL     1       6.603   6.893  24.075  1.00  0.00     0.180 HD
HETATM   29  O3  UNL     1       7.322   9.102  25.914  1.00  0.00    -0.204 OA
HETATM   30  O4  UNL     1       9.087   7.351  25.747  1.00  0.00    -0.204 OA
HETATM   31  C17 UNL     1       9.281   9.551  24.193  1.00  0.00     0.225 C
HETATM   32 CL1  UNL     1      10.744   9.848  25.131  1.00  0.00    -0.107 Cl
HETATM   33  C18 UNL     1       9.604   8.932  22.825  1.00  0.00     0.045 C
HETATM   34  C19 UNL     1       8.312   8.916  22.055  1.00  0.00     0.081 C
ENDBRANCH  18  25
ENDBRANCH  16  18
ENDBRANCH   4  10
ENDBRANCH   3   4
TORSDOF 7
ENDMDL