MODEL 2
REMARK VINA RESULT: -7.187113210      2.561      3.915
REMARK  8 active torsions:
REMARK  status: ('A' for Active; 'I' for Inactive)
REMARK    1  A    between atoms: C2_2  and  C3_3
REMARK    2  A    between atoms: C3_3  and  C4_4
REMARK    3  A    between atoms: C3_3  and  N1_6
REMARK    4  A    between atoms: C3_3  and  C12_18
REMARK       I    between atoms: N1_6  and  C6_8
REMARK       I    between atoms: C6_8  and  N2_10
REMARK    5  A    between atoms: C10_14  and  O2_16
REMARK    6  A    between atoms: C12_18  and  O3_19
REMARK    7  A    between atoms: C12_18  and  N3_21
REMARK    8  A    between atoms: C16_25  and  C17_26
REMARK       I    between atoms: C17_26  and  N4_28
ROOT
HETATM    1  C17 UNL     1       8.030   7.714  21.506  1.00  0.00     0.244 C
HETATM    2  O4  UNL     1       7.982   6.862  22.458  1.00  0.00    -0.271 OA
HETATM    3  N4  UNL     1       8.266   9.049  21.858  1.00  0.00    -0.330 N
HETATM    4  C18 UNL     1       8.386  10.165  20.969  1.00  0.00     0.164 C
HETATM    5  C19 UNL     1       7.897  11.381  21.734  1.00  0.00     0.191 C
HETATM    6  F1  UNL     1       6.646  11.778  21.307  1.00  0.00    -0.248 F
HETATM    7  C20 UNL     1       7.922  10.980  23.172  1.00  0.00     0.079 C
HETATM    8  C21 UNL     1       8.430   9.555  23.196  1.00  0.00     0.197 C
HETATM    9  C22 UNL     1       9.853   9.500  23.576  1.00  0.00     0.085 C
HETATM   10  N5  UNL     1      10.976   9.470  23.863  1.00  0.00    -0.195 NA
ENDROOT
BRANCH   1  11
HETATM   11  C16 UNL     1       7.840   7.242  20.083  1.00  0.00     0.178 C
HETATM   12  N3  UNL     1       7.129   6.023  20.017  1.00  0.00    -0.350 N
HETATM   13  C13 UNL     1       5.725   6.428  20.359  1.00  0.00     0.126 C
HETATM   14  C14 UNL     1       5.546   7.822  19.926  1.00  0.00     0.022 C
HETATM   15  C15 UNL     1       6.899   8.201  19.353  1.00  0.00     0.037 C
BRANCH  12  16
HETATM   16  C12 UNL     1       7.473   4.698  19.845  1.00  0.00     0.143 C
BRANCH  16  17
HETATM   17  C3  UNL     1       7.504   3.733  18.756  1.00  0.00     0.098 C
BRANCH  17  18
HETATM   18  C2  UNL     1       9.003   3.506  18.469  1.00  0.00     0.035 C
HETATM   19  C1  UNL     1       9.474   2.174  18.141  1.00  0.00     0.008 C
ENDBRANCH  17  18
BRANCH  17  20
HETATM   20  C4  UNL     1       6.963   2.403  19.035  1.00  0.00     0.035 C
HETATM   21  C5  UNL     1       5.517   2.440  19.457  1.00  0.00     0.008 C
ENDBRANCH  17  20
BRANCH  17  22
HETATM   22  N1  UNL     1       6.931   4.421  17.611  1.00  0.00    -0.326 N
HETATM   23  C6  UNL     1       6.512   3.998  16.366  1.00  0.00     0.321 C
HETATM   24  O1  UNL     1       6.558   2.799  16.023  1.00  0.00    -0.247 OA
HETATM   25  N2  UNL     1       5.994   4.910  15.385  1.00  0.00    -0.302 N
HETATM   26  C7  UNL     1       5.856   6.339  15.582  1.00  0.00     0.131 C
HETATM   27  C10 UNL     1       5.533   4.558  14.070  1.00  0.00     0.133 C
HETATM   28  C8  UNL     1       5.334   6.879  14.275  1.00  0.00     0.025 C
HETATM   29  C9  UNL     1       5.775   5.825  13.283  1.00  0.00     0.062 C
HETATM   30  C11 UNL     1       4.052   4.282  14.169  1.00  0.00     0.071 C
ATOM     31  H1  UNL     1       6.816   5.424  17.757  1.00  0.00     0.165 HD
BRANCH  27  32
HETATM   32  O2  UNL     1       6.231   3.476  13.548  1.00  0.00    -0.371 OA
ATOM     33  H2  UNL     1       7.067   3.351  13.980  1.00  0.00     0.212 HD
ENDBRANCH  27  32
ENDBRANCH  17  22
ENDBRANCH  16  17
BRANCH  16  34
HETATM   34  O3  UNL     1       7.904   4.159  21.012  1.00  0.00    -0.347 OA
ATOM     35  H3  UNL     1       8.346   4.799  21.557  1.00  0.00     0.219 HD
ENDBRANCH  16  34
ENDBRANCH  12  16
ENDBRANCH   1  11
TORSDOF 8
ENDMDL