MODEL 2
REMARK VINA RESULT: -8.789018354      2.571      2.774
REMARK  6 active torsions:
REMARK  status: ('A' for Active; 'I' for Inactive)
REMARK    1  A    between atoms: N1_2  and  C3_4
REMARK    2  A    between atoms: N3_16  and  C12_17
REMARK    3  A    between atoms: C12_17  and  C13_18
REMARK    4  A    between atoms: C13_18  and  N4_19
REMARK    5  A    between atoms: C17_23  and  S1_24
REMARK    6  A    between atoms: S1_24  and  N5_25
ROOT
HETATM    1  C3  UNL     1       4.768   3.844  22.316  1.00  0.00     0.680 A
HETATM    2  N2  UNL     1       5.012   2.510  22.389  1.00  0.00    -0.201 N
ATOM      3  H2  UNL     1       4.454   1.914  23.001  1.00  0.00     0.183 HD
HETATM    4  C4  UNL     1       6.001   1.985  21.641  1.00  0.00     0.122 A
HETATM    5  C5  UNL     1       6.759   2.773  20.813  1.00  0.00     0.037 A
HETATM    6  C6  UNL     1       7.807   2.512  19.957  1.00  0.00     0.007 A
HETATM    7  C7  UNL     1       8.481   1.360  19.617  1.00  0.00     0.033 A
HETATM    8  C8  UNL     1       9.510   1.405  18.712  1.00  0.00     0.011 A
HETATM    9 BR1  UNL     1      10.487  -0.130  18.191  1.00  0.00    -0.051 Br
HETATM   10  C9  UNL     1       9.843   2.635  18.160  1.00  0.00     0.021 A
HETATM   11  C10 UNL     1       9.178   3.779  18.494  1.00  0.00     0.032 A
HETATM   12  C11 UNL     1       8.131   3.751  19.410  1.00  0.00     0.047 A
HETATM   13  N3  UNL     1       7.326   4.707  19.907  1.00  0.00    -0.330 N
HETATM   14  C19 UNL     1       6.470   4.120  20.777  1.00  0.00     0.136 A
HETATM   15  N6  UNL     1       5.485   4.664  21.517  1.00  0.00    -0.175 N
ATOM     16  H6  UNL     1       5.287   5.664  21.476  1.00  0.00     0.186 HD
ENDROOT
BRANCH  13  17
HETATM   17  C12 UNL     1       7.377   6.124  19.559  1.00  0.00     0.151 C
BRANCH  17  18
HETATM   18  C13 UNL     1       8.289   6.803  20.554  1.00  0.00     0.148 C
BRANCH  18  19
HETATM   19  N4  UNL     1       7.727   8.004  21.098  1.00  0.00    -0.363 N
HETATM   20  C14 UNL     1       6.756   7.948  22.027  1.00  0.00     0.090 A
HETATM   21  C15 UNL     1       6.173   9.047  22.590  1.00  0.00     0.019 A
HETATM   22  C16 UNL     1       6.602  10.299  22.187  1.00  0.00     0.028 A
HETATM   23  C17 UNL     1       7.598  10.387  21.233  1.00  0.00     0.094 A
HETATM   24  C18 UNL     1       8.132   9.229  20.715  1.00  0.00     0.115 A
BRANCH  23  25
HETATM   25  S1  UNL     1       8.118  11.984  20.745  1.00  0.00     0.258 S
HETATM   26  O1  UNL     1       9.166  11.867  19.647  1.00  0.00    -0.201 OA
HETATM   27  O2  UNL     1       8.749  12.747  21.866  1.00  0.00    -0.201 OA
BRANCH  25  28
HETATM   28  N5  UNL     1       6.723  12.820  20.156  1.00  0.00    -0.324 N
ATOM     29  H52 UNL     1       6.025  13.291  20.732  1.00  0.00     0.169 HD
ATOM     30  H51 UNL     1       6.736  12.749  19.138  1.00  0.00     0.169 HD
ENDBRANCH  25  28
ENDBRANCH  23  25
ENDBRANCH  18  19
ENDBRANCH  17  18
ENDBRANCH  13  17
BRANCH   1  31
HETATM   31  N1  UNL     1       3.737   4.415  23.092  1.00  0.00    -0.226 N
HETATM   32  C1  UNL     1       3.709   5.825  23.385  1.00  0.00     0.168 C
HETATM   33  C2  UNL     1       2.687   3.567  23.608  1.00  0.00     0.168 C
ENDBRANCH   1  31
TORSDOF 6
ENDMDL