MODEL 4
REMARK VINA RESULT: -7.720843608      3.646      7.581
REMARK  7 active torsions:
REMARK  status: ('A' for Active; 'I' for Inactive)
REMARK    1  A    between atoms: O1_2  and  C2_3
REMARK    2  A    between atoms: C5_6  and  N1_7
REMARK    3  A    between atoms: N1_7  and  C6_8
REMARK       I    between atoms: N1_7  and  C13_22
REMARK    4  A    between atoms: C6_8  and  C7_9
REMARK    5  A    between atoms: C7_9  and  O2_10
REMARK    6  A    between atoms: N2_12  and  C8_14
REMARK    7  A    between atoms: C13_22  and  C14_24
ROOT
HETATM    1  N1  UNL     1       7.720   9.807  22.059  1.00  0.00    -0.305 N
HETATM    2  C13 UNL     1       8.616  10.221  23.050  1.00  0.00     0.276 C
HETATM    3  O3  UNL     1       9.015  11.451  23.047  1.00  0.00    -0.265 OA
ENDROOT
BRANCH   1   4
HETATM    4  C5  UNL     1       7.290   8.479  21.806  1.00  0.00     0.038 A
HETATM    5  C4  UNL     1       8.280   7.510  21.534  1.00  0.00     0.032 A
HETATM    6  C3  UNL     1       7.904   6.231  21.240  1.00  0.00     0.039 A
HETATM    7  C2  UNL     1       6.598   5.827  21.193  1.00  0.00     0.068 A
HETATM    8  C20 UNL     1       5.627   6.747  21.453  1.00  0.00     0.039 A
HETATM    9  C19 UNL     1       5.994   8.063  21.757  1.00  0.00     0.032 A
BRANCH   7  10
HETATM   10  O1  UNL     1       6.325   4.496  20.880  1.00  0.00    -0.356 OA
HETATM   11  C1  UNL     1       7.341   3.497  20.850  1.00  0.00     0.210 C
ENDBRANCH   7  10
ENDBRANCH   1   4
BRANCH   1  12
HETATM   12  C6  UNL     1       7.209  10.826  21.116  1.00  0.00     0.216 C
BRANCH  12  13
HETATM   13  C7  UNL     1       7.903  10.741  19.811  1.00  0.00     0.135 C
HETATM   14  N2  UNL     1       7.589  10.065  18.680  1.00  0.00    -0.325 N
ATOM     15  H2  UNL     1       8.288  10.241  17.958  1.00  0.00     0.169 HD
BRANCH  13  16
HETATM   16  O2  UNL     1       9.009  11.444  19.742  1.00  0.00    -0.348 OA
ATOM     17  H2  UNL     1       9.682  11.059  19.193  1.00  0.00     0.219 HD
ENDBRANCH  13  16
BRANCH  14  18
HETATM   18  C8  UNL     1       6.710   9.296  18.253  1.00  0.00     0.106 A
HETATM   19  C9  UNL     1       5.486   9.720  17.824  1.00  0.00     0.050 A
HETATM   20  C10 UNL     1       4.547   8.816  17.334  1.00  0.00     0.024 A
HETATM   21  C11 UNL     1       4.846   7.487  17.280  1.00  0.00     0.026 A
HETATM   22 BR1  UNL     1       3.564   6.254  16.609  1.00  0.00    -0.050 Br
HETATM   23  C12 UNL     1       6.075   7.095  17.715  1.00  0.00     0.108 A
HETATM   24  N3  UNL     1       6.983   7.936  18.184  1.00  0.00    -0.351 N
ATOM     25  H3  UNL     1       7.888   7.583  18.496  1.00  0.00     0.166 HD
ENDBRANCH  14  18
ENDBRANCH  12  13
ENDBRANCH   1  12
BRANCH   2  26
HETATM   26  C14 UNL     1       9.172   9.412  24.120  1.00  0.00     0.116 A
HETATM   27  C15 UNL     1       8.343   8.841  25.090  1.00  0.00     0.042 A
HETATM   28  C16 UNL     1       8.818   8.066  26.122  1.00  0.00     0.078 A
HETATM   29  C17 UNL     1      10.172   7.846  26.198  1.00  0.00     0.261 A
HETATM   30  O4  UNL     1      10.673   7.138  27.130  1.00  0.00    -0.267 OA
HETATM   31  N4  UNL     1      10.978   8.399  25.262  1.00  0.00    -0.262 N
HETATM   32  C18 UNL     1      12.423   8.142  25.356  1.00  0.00     0.181 C
HETATM   33  N5  UNL     1      10.471   9.135  24.289  1.00  0.00    -0.291 N
ATOM     34  H5  UNL     1      11.124   9.525  23.609  1.00  0.00     0.187 HD
ENDBRANCH   2  26
TORSDOF 7
ENDMDL