MODEL 3
REMARK VINA RESULT: -8.826109224      3.011      5.596
REMARK  7 active torsions:
REMARK  status: ('A' for Active; 'I' for Inactive)
REMARK    1  A    between atoms: C2_2  and  N1_3
REMARK    2  A    between atoms: N1_3  and  N2_4
REMARK    3  A    between atoms: N1_3  and  S1_26
REMARK    4  A    between atoms: N4_17  and  C11_18
REMARK    5  A    between atoms: C11_18  and  C12_19
REMARK    6  A    between atoms: S1_26  and  C18_29
REMARK    7  A    between atoms: N5_33  and  O4_34
ROOT
HETATM    1  N2  UNL     1       7.102   7.804  22.052  1.00  0.00    -0.120 N
ATOM      2  H2  UNL     1       6.359   8.482  22.220  1.00  0.00     0.206 HD
HETATM    3  C3  UNL     1       6.539   6.751  21.738  1.00  0.00     0.703 A
HETATM    4  N3  UNL     1       7.335   5.672  21.459  1.00  0.00    -0.189 N
ATOM      5  H3  UNL     1       8.345   5.807  21.453  1.00  0.00     0.184 HD
HETATM    6  C4  UNL     1       6.860   4.455  21.195  1.00  0.00     0.065 A
HETATM    7  C5  UNL     1       7.722   3.397  20.919  1.00  0.00     0.031 A
HETATM    8  C6  UNL     1       7.211   2.166  20.653  1.00  0.00     0.002 A
HETATM    9  C7  UNL     1       5.833   1.993  20.665  1.00  0.00     0.001 A
HETATM   10  C8  UNL     1       4.978   3.038  20.938  1.00  0.00     0.019 A
HETATM   11  C9  UNL     1       5.503   4.288  21.206  1.00  0.00     0.060 A
HETATM   12  C10 UNL     1       4.713   5.365  21.484  1.00  0.00     0.274 A
HETATM   13  O1  UNL     1       3.465   5.211  21.495  1.00  0.00    -0.266 OA
HETATM   14  N4  UNL     1       5.176   6.608  21.753  1.00  0.00    -0.141 N
ENDROOT
BRANCH   1  15
HETATM   15  N1  UNL     1       8.240   8.446  22.268  1.00  0.00    -0.200 N
BRANCH  15  16
HETATM   16  C2  UNL     1       9.481   8.441  21.498  1.00  0.00     0.158 C
HETATM   17  C1  UNL     1       9.191   8.547  20.027  1.00  0.00     0.029 C
ENDBRANCH  15  16
BRANCH  15  18
HETATM   18  S1  UNL     1       8.347   9.476  23.702  1.00  0.00     0.280 S
HETATM   19  O2  UNL     1       8.906  10.829  23.274  1.00  0.00    -0.199 OA
HETATM   20  O3  UNL     1       6.996   9.721  24.211  1.00  0.00    -0.199 OA
BRANCH  18  21
HETATM   21  C18 UNL     1       9.403   8.761  24.894  1.00  0.00     0.099 A
HETATM   22  C19 UNL     1      10.760   8.720  24.674  1.00  0.00     0.028 A
HETATM   23  C20 UNL     1      11.640   8.152  25.599  1.00  0.00     0.021 A
HETATM   24  C21 UNL     1      11.107   7.621  26.766  1.00  0.00     0.122 A
HETATM   25  N5  UNL     1       9.782   7.662  26.978  1.00  0.00    -0.246 N
HETATM   26  C22 UNL     1       8.935   8.219  26.071  1.00  0.00     0.147 A
BRANCH  25  27
HETATM   27  O4  UNL     1       9.295   7.130  28.139  1.00  0.00    -0.284 OA
ATOM     28  H4  UNL     1       8.480   7.475  28.485  1.00  0.00     0.245 HD
ENDBRANCH  25  27
ENDBRANCH  18  21
ENDBRANCH  15  18
ENDBRANCH   1  15
BRANCH  14  29
HETATM   29  C11 UNL     1       4.323   7.719  21.951  1.00  0.00     0.193 C
BRANCH  29  30
HETATM   30  C12 UNL     1       3.667   7.888  23.253  1.00  0.00    -0.001 A
HETATM   31  C13 UNL     1       2.368   8.447  23.241  1.00  0.00     0.012 A
HETATM   32  C14 UNL     1       1.624   8.649  24.375  1.00  0.00     0.001 A
HETATM   33  C15 UNL     1       2.105   8.314  25.616  1.00  0.00     0.003 A
HETATM   34  C16 UNL     1       3.360   7.771  25.662  1.00  0.00     0.043 A
HETATM   35  C17 UNL     1       4.120   7.566  24.493  1.00  0.00     0.124 A
HETATM   36  F1  UNL     1       5.341   7.025  24.661  1.00  0.00    -0.205 F
ENDBRANCH  29  30
ENDBRANCH  14  29
TORSDOF 7
ENDMDL