MODEL 2
REMARK VINA RESULT: -7.558405995      4.060      8.241
REMARK  6 active torsions:
REMARK  status: ('A' for Active; 'I' for Inactive)
REMARK    1  A    between atoms: C2_2  and  N1_3
REMARK       I    between atoms: N1_3  and  C3_5
REMARK    2  A    between atoms: C3_5  and  C4_7
REMARK    3  A    between atoms: C9_13  and  C10_14
REMARK    4  A    between atoms: C10_14  and  C11_15
REMARK    5  A    between atoms: C11_15  and  O3_17
REMARK    6  A    between atoms: O3_17  and  C12_18
ROOT
HETATM    1  C4  UNL     1       7.464   4.547  20.156  1.00  0.00     0.123 C
HETATM    2  C5  UNL     1       7.667   3.496  21.216  1.00  0.00     0.035 C
HETATM    3  C6  UNL     1       7.368   2.112  20.753  1.00  0.00     0.006 C
HETATM    4  C7  UNL     1       5.812   2.018  20.416  1.00  0.00     0.130 C
HETATM    5  N2  UNL     1       5.819   3.102  19.464  1.00  0.00    -0.350 N
HETATM    6  C8  UNL     1       6.157   2.671  18.124  1.00  0.00     0.135 C
HETATM    7  C9  UNL     1       7.720   2.763  18.333  1.00  0.00    -0.013 C
HETATM    8  C15 UNL     1       8.044   1.795  19.439  1.00  0.00     0.018 C
HETATM    9  C16 UNL     1       8.063   4.157  18.832  1.00  0.00     0.041 C
HETATM   10  C17 UNL     1       5.893   4.425  19.858  1.00  0.00     0.238 C
HETATM   11  O4  UNL     1       5.196   5.424  20.030  1.00  0.00    -0.272 OA
ENDROOT
BRANCH   1  12
HETATM   12  C3  UNL     1       7.779   5.899  20.535  1.00  0.00     0.236 C
HETATM   13  N1  UNL     1       7.729   7.037  19.692  1.00  0.00    -0.350 N
ATOM     14  H1  UNL     1       7.446   6.909  18.721  1.00  0.00     0.163 HD
HETATM   15  O1  UNL     1       8.137   6.112  21.741  1.00  0.00    -0.272 OA
BRANCH  13  16
HETATM   16  C2  UNL     1       8.059   8.365  20.141  1.00  0.00     0.043 C
HETATM   17  C1  UNL     1       9.442   8.363  20.755  1.00  0.00     0.039 C
HETATM   18  C18 UNL     1       7.020   8.843  21.094  1.00  0.00     0.046 C
HETATM   19  C19 UNL     1       7.272  10.308  21.358  1.00  0.00     0.143 C
HETATM   20  S1  UNL     1       7.742  10.862  19.713  1.00  0.00     0.146 S
HETATM   21  O5  UNL     1       9.019  11.637  19.786  1.00  0.00    -0.228 OA
HETATM   22  O6  UNL     1       6.630  11.620  19.063  1.00  0.00    -0.228 OA
HETATM   23  C20 UNL     1       7.987   9.271  18.918  1.00  0.00     0.170 C
ENDBRANCH  13  16
ENDBRANCH   1  12
BRANCH   7  24
HETATM   24  C10 UNL     1       8.426   2.538  17.077  1.00  0.00     0.122 C
BRANCH  24  25
HETATM   25  C11 UNL     1       7.789   2.857  15.818  1.00  0.00     0.261 C
HETATM   26  O2  UNL     1       7.288   2.010  15.071  1.00  0.00    -0.265 OA
BRANCH  25  27
HETATM   27  O3  UNL     1       7.735   4.190  15.428  1.00  0.00    -0.295 OA
BRANCH  27  28
HETATM   28  C12 UNL     1       6.521   4.827  15.089  1.00  0.00     0.139 C
HETATM   29  C13 UNL     1       6.702   5.609  13.804  1.00  0.00     0.064 C
HETATM   30  C14 UNL     1       6.048   5.741  16.209  1.00  0.00     0.064 C
HETATM   31 CL1  UNL     1       5.291   3.568  14.889  1.00  0.00    -0.088 Cl
ENDBRANCH  27  28
ENDBRANCH  25  27
ENDBRANCH  24  25
ENDBRANCH   7  24
TORSDOF 6
ENDMDL