MODEL 3
REMARK VINA RESULT: -7.997804055      2.636      5.311
REMARK  7 active torsions:
REMARK  status: ('A' for Active; 'I' for Inactive)
REMARK    1  A    between atoms: O1_2  and  C2_3
REMARK    2  A    between atoms: C2_3  and  C3_5
REMARK    3  A    between atoms: C3_5  and  C4_6
REMARK    4  A    between atoms: C4_6  and  C5_7
REMARK    5  A    between atoms: C8_11  and  O3_12
REMARK    6  A    between atoms: N3_21  and  N4_23
REMARK       I    between atoms: N4_23  and  C15_25
REMARK    7  A    between atoms: C15_25  and  C16_27
ROOT
HETATM    1  C3  UNL     1       4.600   6.928  23.864  1.00  0.00     0.105 C
HETATM    2  N3  UNL     1       4.464   5.992  23.066  1.00  0.00    -0.296 N
ATOM      3  H3  UNL     1       3.506   5.930  22.723  1.00  0.00     0.187 HD
ENDROOT
BRANCH   1   4
HETATM    4  C2  UNL     1       3.421   7.759  24.171  1.00  0.00     0.307 C
HETATM    5  O2  UNL     1       2.689   8.185  23.252  1.00  0.00    -0.258 OA
BRANCH   4   6
HETATM    6  O1  UNL     1       3.128   8.066  25.492  1.00  0.00    -0.322 OA
HETATM    7  C1  UNL     1       3.199   9.423  25.962  1.00  0.00     0.213 C
ENDBRANCH   4   6
ENDBRANCH   1   4
BRANCH   1   8
HETATM    8  C4  UNL     1       5.870   7.282  24.538  1.00  0.00     0.106 C
BRANCH   8   9
HETATM    9  C5  UNL     1       6.863   7.839  23.607  1.00  0.00    -0.024 A
HETATM   10  C6  UNL     1       6.559   8.175  22.299  1.00  0.00     0.101 A
HETATM   11  N1  UNL     1       7.487   8.679  21.467  1.00  0.00    -0.341 N
HETATM   12  C7  UNL     1       7.186   9.033  20.092  1.00  0.00     0.158 C
HETATM   13  C8  UNL     1       8.758   8.881  21.871  1.00  0.00     0.153 A
HETATM   14  C9  UNL     1       9.121   8.564  23.167  1.00  0.00     0.028 A
HETATM   15  C10 UNL     1      10.403   8.751  23.630  1.00  0.00     0.034 A
HETATM   16  C14 UNL     1       8.155   8.038  24.034  1.00  0.00     0.002 A
HETATM   17  C11 UNL     1      10.803   8.449  24.914  1.00  0.00     0.091 A
HETATM   18  N2  UNL     1       9.858   7.944  25.730  1.00  0.00    -0.370 N
HETATM   19  C12 UNL     1      10.162   7.589  27.116  1.00  0.00     0.154 C
HETATM   20  C13 UNL     1       8.588   7.742  25.322  1.00  0.00     0.102 A
BRANCH  13  21
HETATM   21  O3  UNL     1       9.738   9.404  21.024  1.00  0.00    -0.345 OA
ATOM     22  H3  UNL     1       9.920   9.035  20.169  1.00  0.00     0.219 HD
ENDBRANCH  13  21
ENDBRANCH   8   9
ENDBRANCH   1   8
BRANCH   2  23
HETATM   23  N4  UNL     1       5.245   5.030  22.526  1.00  0.00    -0.265 N
HETATM   24  C15 UNL     1       5.544   4.851  21.166  1.00  0.00     0.277 C
HETATM   25  O4  UNL     1       5.054   5.640  20.320  1.00  0.00    -0.265 OA
ATOM     26  H4  UNL     1       5.661   4.362  23.177  1.00  0.00     0.190 HD
BRANCH  24  27
HETATM   27  C16 UNL     1       6.433   3.746  20.715  1.00  0.00     0.075 A
HETATM   28  C17 UNL     1       6.501   2.484  21.258  1.00  0.00     0.026 A
HETATM   29  C18 UNL     1       7.393   1.647  20.683  1.00  0.00     0.028 A
HETATM   30  C19 UNL     1       8.129   2.098  19.650  1.00  0.00     0.052 A
HETATM   31 BR1  UNL     1       9.475   1.171  18.626  1.00  0.00    -0.043 Br
HETATM   32  S1  UNL     1       7.583   3.708  19.463  1.00  0.00    -0.077 SA
ENDBRANCH  24  27
ENDBRANCH   2  23
TORSDOF 7
ENDMDL