MODEL 1
REMARK VINA RESULT: -8.179356089      0.000      0.000
REMARK  7 active torsions:
REMARK  status: ('A' for Active; 'I' for Inactive)
REMARK    1  A    between atoms: N1_5  and  C3_6
REMARK    2  A    between atoms: C3_6  and  C4_7
REMARK    3  A    between atoms: N2_14  and  C9_15
REMARK    4  A    between atoms: C9_15  and  C10_16
REMARK    5  A    between atoms: C10_16  and  N3_17
REMARK    6  A    between atoms: C12_19  and  C13_20
REMARK    7  A    between atoms: C14_21  and  C15_22
ROOT
HETATM    1  C10 UNL     1       7.772  10.401  20.320  1.00  0.00     0.168 C
ENDROOT
BRANCH   1   2
HETATM    2  C9  UNL     1       7.026  10.882  21.512  1.00  0.00     0.159 C
BRANCH   2   3
HETATM    3  N2  UNL     1       7.052   9.999  22.641  1.00  0.00    -0.260 N
HETATM    4  C1  UNL     1       8.094   9.793  23.604  1.00  0.00     0.320 A
HETATM    5  O1  UNL     1       9.196  10.406  23.554  1.00  0.00    -0.262 OA
HETATM    6  C2  UNL     1       7.637   8.806  24.564  1.00  0.00     0.320 A
HETATM    7  O2  UNL     1       8.283   8.374  25.551  1.00  0.00    -0.262 OA
HETATM    8  N1  UNL     1       6.326   8.411  24.191  1.00  0.00    -0.255 N
HETATM    9  C8  UNL     1       5.968   9.136  23.023  1.00  0.00     0.335 A
HETATM   10  O4  UNL     1       4.870   9.056  22.389  1.00  0.00    -0.246 OA
BRANCH   8  11
HETATM   11  C3  UNL     1       5.460   7.458  24.835  1.00  0.00     0.202 C
BRANCH  11  12
HETATM   12  C4  UNL     1       4.134   8.053  25.166  1.00  0.00     0.071 A
HETATM   13  C5  UNL     1       2.897   7.470  25.027  1.00  0.00     0.036 A
HETATM   14  C6  UNL     1       1.964   8.389  25.459  1.00  0.00     0.027 A
HETATM   15  C7  UNL     1       2.690   9.496  25.843  1.00  0.00     0.142 A
HETATM   16  O3  UNL     1       3.963   9.262  25.657  1.00  0.00    -0.325 OA
ENDBRANCH  11  12
ENDBRANCH   8  11
ENDBRANCH   2   3
ENDBRANCH   1   2
BRANCH   1  17
HETATM   17  N3  UNL     1       7.384   9.085  19.879  1.00  0.00    -0.301 N
HETATM   18  C11 UNL     1       8.166   8.013  19.661  1.00  0.00     0.132 A
HETATM   19  C12 UNL     1       7.388   6.964  19.266  1.00  0.00     0.052 A
HETATM   20  C21 UNL     1       6.086   7.431  19.248  1.00  0.00     0.129 A
HETATM   21  N4  UNL     1       6.120   8.704  19.620  1.00  0.00    -0.309 N
ATOM     22  H4  UNL     1       5.302   9.309  19.699  1.00  0.00     0.186 HD
BRANCH  19  23
HETATM   23  C13 UNL     1       7.844   5.636  18.935  1.00  0.00    -0.059 C
HETATM   24  C14 UNL     1       8.245   4.531  18.653  1.00  0.00    -0.061 C
BRANCH  24  25
HETATM   25  C15 UNL     1       8.742   3.228  18.310  1.00  0.00     0.018 A
HETATM   26  C16 UNL     1       9.125   2.908  17.021  1.00  0.00     0.022 A
HETATM   27  C17 UNL     1       9.604   1.658  16.684  1.00  0.00     0.020 A
HETATM   28  C18 UNL     1       9.719   0.669  17.637  1.00  0.00     0.011 A
HETATM   29 BR1  UNL     1      10.386  -1.077  17.175  1.00  0.00    -0.051 Br
HETATM   30  C19 UNL     1       9.343   0.967  18.927  1.00  0.00     0.020 A
HETATM   31  C20 UNL     1       8.866   2.220  19.253  1.00  0.00     0.022 A
ENDBRANCH  24  25
ENDBRANCH  19  23
ENDBRANCH   1  17
TORSDOF 7
ENDMDL