MODEL 2
REMARK VINA RESULT: -7.706749012      0.177      1.305
REMARK  8 active torsions:
REMARK  status: ('A' for Active; 'I' for Inactive)
REMARK    1  A    between atoms: O1_2  and  C2_3
REMARK    2  A    between atoms: C2_3  and  C3_5
REMARK    3  A    between atoms: C5_7  and  C6_8
REMARK    4  A    between atoms: C6_8  and  N2_15
REMARK    5  A    between atoms: N1_9  and  S1_11
REMARK    6  A    between atoms: N3_18  and  C10_19
REMARK    7  A    between atoms: C21_30  and  C22_31
REMARK    8  A    between atoms: C22_31  and  N4_32
ROOT
HETATM    1  N2  UNL     1       6.433   7.232  20.713  1.00  0.00    -0.360 N
HETATM    2  C8  UNL     1       5.903   5.987  21.203  1.00  0.00     0.144 C
HETATM    3  C9  UNL     1       6.687   4.789  20.632  1.00  0.00     0.137 C
HETATM    4  N3  UNL     1       6.983   4.912  19.258  1.00  0.00    -0.400 N
HETATM    5  C20 UNL     1       7.236   6.210  18.759  1.00  0.00     0.144 C
HETATM    6  C21 UNL     1       7.624   7.063  19.983  1.00  0.00     0.128 C
ENDROOT
BRANCH   1   7
HETATM    7  C6  UNL     1       5.752   8.462  20.967  1.00  0.00     0.094 C
HETATM    8  N1  UNL     1       4.865   8.857  20.102  1.00  0.00    -0.274 N
ATOM      9  H1  UNL     1       4.751   8.230  19.306  1.00  0.00     0.179 HD
BRANCH   7  10
HETATM   10  C5  UNL     1       5.930   9.346  22.116  1.00  0.00     0.068 A
HETATM   11  C3  UNL     1       6.820   8.904  23.203  1.00  0.00     0.097 A
HETATM   12  C4  UNL     1       7.034  10.228  22.425  1.00  0.00     0.028 A
BRANCH  11  13
HETATM   13  C2  UNL     1       6.615   9.153  24.628  1.00  0.00     0.263 C
HETATM   14  O2  UNL     1       5.480   9.438  25.065  1.00  0.00    -0.265 OA
BRANCH  13  15
HETATM   15  O1  UNL     1       7.664   9.081  25.528  1.00  0.00    -0.326 OA
HETATM   16  C1  UNL     1       8.713   8.133  25.468  1.00  0.00     0.213 C
ENDBRANCH  13  15
ENDBRANCH  11  13
ENDBRANCH   7  10
BRANCH   8  17
HETATM   17  S1  UNL     1       3.875  10.209  20.056  1.00  0.00     0.228 S
HETATM   18  C7  UNL     1       2.451  10.165  21.096  1.00  0.00     0.186 C
HETATM   19  O3  UNL     1       3.296  10.270  18.624  1.00  0.00    -0.206 OA
HETATM   20  O4  UNL     1       4.617  11.538  20.158  1.00  0.00    -0.206 OA
ENDBRANCH   8  17
ENDBRANCH   1   7
BRANCH   6  21
HETATM   21  C22 UNL     1       8.500   8.172  19.621  1.00  0.00     0.256 C
BRANCH  21  22
HETATM   22  N4  UNL     1       9.552   8.401  20.587  1.00  0.00    -0.077 N
ATOM     23  H43 UNL     1       9.218   8.233  21.535  1.00  0.00     0.274 HD
ATOM     24  H42 UNL     1      10.264   7.674  20.528  1.00  0.00     0.274 HD
ATOM     25  H41 UNL     1       9.971   9.328  20.508  1.00  0.00     0.274 HD
ENDBRANCH  21  22
ENDBRANCH   6  21
BRANCH   4  26
HETATM   26  C10 UNL     1       7.634   3.819  18.650  1.00  0.00     0.029 C
HETATM   27  C11 UNL     1       7.471   3.899  17.150  1.00  0.00     0.035 C
HETATM   28  C12 UNL     1       8.098   2.719  16.431  1.00  0.00    -0.012 C
HETATM   29  C13 UNL     1       7.426   1.454  16.883  1.00  0.00     0.009 C
HETATM   30  C17 UNL     1       9.562   2.646  16.745  1.00  0.00     0.009 C
HETATM   31  C14 UNL     1       7.618   1.314  18.374  1.00  0.00    -0.012 C
HETATM   32  C15 UNL     1       9.067   1.244  18.729  1.00  0.00     0.009 C
HETATM   33  C19 UNL     1       6.956   2.493  19.042  1.00  0.00     0.035 C
HETATM   34  C16 UNL     1       9.701   2.526  18.231  1.00  0.00    -0.012 C
HETATM   35  C18 UNL     1       9.103   3.718  18.962  1.00  0.00     0.035 C
ENDBRANCH   4  26
TORSDOF 8
ENDMDL