MODEL 5
REMARK VINA RESULT: -9.672140877      2.025      3.846
REMARK  5 active torsions:
REMARK  status: ('A' for Active; 'I' for Inactive)
REMARK    1  A    between atoms: N1_2  and  C2_3
REMARK       I    between atoms: N1_2  and  C10_15
REMARK    2  A    between atoms: C2_3  and  C3_4
REMARK       I    between atoms: C3_4  and  N2_6
REMARK    3  A    between atoms: N2_6  and  C4_8
REMARK    4  A    between atoms: C10_15  and  C11_17
REMARK    5  A    between atoms: C11_17  and  N3_18
ROOT
HETATM    1  N3  UNL     1       4.812   6.069  21.403  1.00  0.00    -0.304 N
HETATM    2  C12 UNL     1       5.630   6.344  20.279  1.00  0.00     0.279 A
HETATM    3  O3  UNL     1       5.842   7.468  19.786  1.00  0.00    -0.268 OA
HETATM    4  C13 UNL     1       6.180   5.077  19.804  1.00  0.00     0.221 A
HETATM    5  N4  UNL     1       5.923   4.808  18.422  1.00  0.00    -0.349 N
ATOM      6  H4  UNL     1       5.122   5.132  17.879  1.00  0.00     0.163 HD
HETATM    7  C14 UNL     1       6.997   4.005  17.948  1.00  0.00     0.073 A
HETATM    8  C15 UNL     1       7.117   3.187  16.846  1.00  0.00     0.119 A
HETATM    9  N5  UNL     1       8.276   2.545  16.662  1.00  0.00    -0.373 N
ATOM     10  H5  UNL     1       8.363   1.940  15.846  1.00  0.00     0.164 HD
HETATM   11  C16 UNL     1       9.332   2.648  17.483  1.00  0.00     0.090 A
HETATM   12  C17 UNL     1       9.220   3.464  18.586  1.00  0.00     0.049 A
HETATM   13  C18 UNL     1       8.044   4.156  18.834  1.00  0.00     0.062 A
HETATM   14  N6  UNL     1       7.641   5.051  19.863  1.00  0.00    -0.345 N
HETATM   15  C19 UNL     1       8.505   5.769  20.764  1.00  0.00     0.153 C
HETATM   16  C20 UNL     1       5.640   4.044  20.707  1.00  0.00     0.027 A
HETATM   17  C21 UNL     1       5.824   2.677  20.726  1.00  0.00     0.014 A
HETATM   18  C22 UNL     1       5.212   1.880  21.680  1.00  0.00     0.001 A
HETATM   19  C23 UNL     1       4.416   2.525  22.599  1.00  0.00     0.002 A
HETATM   20  C24 UNL     1       4.232   3.885  22.580  1.00  0.00     0.030 A
HETATM   21  C25 UNL     1       4.842   4.672  21.631  1.00  0.00     0.049 A
ENDROOT
BRANCH   1  22
HETATM   22  C11 UNL     1       4.067   7.064  22.190  1.00  0.00     0.235 C
BRANCH  22  23
HETATM   23  C10 UNL     1       4.743   7.269  23.493  1.00  0.00     0.238 C
HETATM   24  N1  UNL     1       5.643   8.346  23.692  1.00  0.00    -0.346 N
HETATM   25  C1  UNL     1       5.960   9.305  22.653  1.00  0.00     0.153 C
HETATM   26  O2  UNL     1       4.512   6.476  24.433  1.00  0.00    -0.272 OA
BRANCH  24  27
HETATM   27  C2  UNL     1       6.292   8.527  24.974  1.00  0.00     0.228 C
BRANCH  27  28
HETATM   28  C3  UNL     1       7.727   8.066  24.928  1.00  0.00     0.240 C
HETATM   29  O1  UNL     1       8.102   7.346  23.984  1.00  0.00    -0.271 OA
HETATM   30  N2  UNL     1       8.589   8.463  25.951  1.00  0.00    -0.326 N
ATOM     31  H2  UNL     1       8.185   9.047  26.682  1.00  0.00     0.169 HD
BRANCH  30  32
HETATM   32  C4  UNL     1       9.943   8.149  26.084  1.00  0.00     0.035 A
HETATM   33  C5  UNL     1      10.904   8.555  25.216  1.00  0.00     0.032 A
HETATM   34  C6  UNL     1      12.235   8.182  25.408  1.00  0.00     0.044 A
HETATM   35  C7  UNL     1      12.594   7.397  26.479  1.00  0.00     0.116 A
HETATM   36  F1  UNL     1      13.872   7.014  26.702  1.00  0.00    -0.206 F
HETATM   37  C8  UNL     1      11.609   6.997  27.347  1.00  0.00     0.044 A
HETATM   38  C9  UNL     1      10.316   7.358  27.162  1.00  0.00     0.032 A
ENDBRANCH  30  32
ENDBRANCH  27  28
ENDBRANCH  24  27
ENDBRANCH  22  23
ENDBRANCH   1  22
TORSDOF 5
ENDMDL