MODEL 5
REMARK VINA RESULT: -8.481351367      2.059      2.680
REMARK  8 active torsions:
REMARK  status: ('A' for Active; 'I' for Inactive)
REMARK       I    between atoms: C2_4  and  N2_5
REMARK       I    between atoms: C2_4  and  N3_16
REMARK       I    between atoms: N2_5  and  C3_7
REMARK    1  A    between atoms: C3_7  and  C4_9
REMARK    2  A    between atoms: N3_16  and  C10_17
REMARK    3  A    between atoms: N3_16  and  C13_21
REMARK    4  A    between atoms: C10_17  and  C11_18
REMARK    5  A    between atoms: C11_18  and  O2_19
REMARK    6  A    between atoms: C13_21  and  O3_22
REMARK    7  A    between atoms: C13_21  and  C14_24
REMARK    8  A    between atoms: N5_31  and  O5_32
ROOT
HETATM    1  C1  UNL     1       3.491   6.259  19.878  1.00  0.00     0.165 C
HETATM    2  N1  UNL     1       4.099   7.046  20.882  1.00  0.00    -0.230 N
ATOM      3  H1  UNL     1       3.566   7.832  21.255  1.00  0.00     0.177 HD
HETATM    4  C2  UNL     1       5.332   6.834  21.381  1.00  0.00     0.684 C
HETATM    5  N2  UNL     1       5.986   5.756  20.830  1.00  0.00    -0.155 N
ATOM      6  H2  UNL     1       5.369   5.207  20.232  1.00  0.00     0.187 HD
HETATM    7  C3  UNL     1       7.281   5.216  20.875  1.00  0.00     0.271 C
HETATM    8  O1  UNL     1       8.245   5.747  21.490  1.00  0.00    -0.267 OA
HETATM    9  N3  UNL     1       5.676   7.832  22.317  1.00  0.00    -0.159 N
ENDROOT
BRANCH   9  10
HETATM   10  C10 UNL     1       5.331   9.192  21.983  1.00  0.00     0.176 C
BRANCH  10  11
HETATM   11  C11 UNL     1       6.196   9.858  20.975  1.00  0.00     0.188 C
BRANCH  11  12
HETATM   12  O2  UNL     1       6.998  10.898  21.347  1.00  0.00    -0.394 OA
HETATM   13  C12 UNL     1       8.090  11.165  20.576  1.00  0.00     0.201 C
ENDBRANCH  11  12
ENDBRANCH  10  11
ENDBRANCH   9  10
BRANCH   9  14
HETATM   14  C13 UNL     1       6.348   7.502  23.492  1.00  0.00     0.168 C
BRANCH  14  15
HETATM   15  O3  UNL     1       5.627   6.670  24.244  1.00  0.00    -0.345 OA
ATOM     16  H3  UNL     1       5.321   5.925  23.739  1.00  0.00     0.219 HD
ENDBRANCH  14  15
BRANCH  14  17
HETATM   17  C14 UNL     1       7.595   7.822  24.094  1.00  0.00     0.018 A
HETATM   18  C15 UNL     1       8.589   8.409  23.273  1.00  0.00     0.018 A
HETATM   19  C16 UNL     1       9.843   8.738  23.733  1.00  0.00     0.035 A
HETATM   20  C17 UNL     1      10.184   8.500  25.043  1.00  0.00     0.088 A
HETATM   21  N4  UNL     1      11.287   8.687  25.811  1.00  0.00    -0.237 N
HETATM   22  C18 UNL     1       9.263   7.932  25.889  1.00  0.00     0.119 A
HETATM   23  O4  UNL     1      11.041   8.263  27.020  1.00  0.00    -0.128 OA
ATOM     24  H4  UNL     1      12.167   9.094  25.495  1.00  0.00     0.197 HD
HETATM   25  N5  UNL     1       9.835   7.803  27.104  1.00  0.00    -0.100 N
HETATM   26  C19 UNL     1       8.001   7.614  25.380  1.00  0.00     0.052 A
BRANCH  25  27
HETATM   27  O5  UNL     1       9.274   7.285  28.238  1.00  0.00    -0.261 OA
ATOM     28  H5  UNL     1       8.978   6.388  28.336  1.00  0.00     0.247 HD
ENDBRANCH  25  27
ENDBRANCH  14  17
ENDBRANCH   9  14
BRANCH   7  29
HETATM   29  C4  UNL     1       7.643   3.954  20.193  1.00  0.00     0.050 A
HETATM   30  C5  UNL     1       8.624   4.050  19.204  1.00  0.00     0.018 A
HETATM   31  C6  UNL     1       8.975   2.949  18.468  1.00  0.00     0.001 A
HETATM   32  C7  UNL     1       8.387   1.724  18.669  1.00  0.00     0.001 A
HETATM   33  C8  UNL     1       7.428   1.634  19.638  1.00  0.00     0.020 A
HETATM   34  C9  UNL     1       7.071   2.763  20.391  1.00  0.00     0.026 A
HETATM   35 BR1  UNL     1       5.783   2.513  21.801  1.00  0.00    -0.050 Br
ENDBRANCH   7  29
TORSDOF 8
ENDMDL