MODEL 4
REMARK VINA RESULT: -6.709711850      2.611      6.485
REMARK  6 active torsions:
REMARK  status: ('A' for Active; 'I' for Inactive)
REMARK    1  A    between atoms: C2_2  and  C3_3
REMARK    2  A    between atoms: C3_3  and  S1_5
REMARK    3  A    between atoms: S1_5  and  N1_8
REMARK    4  A    between atoms: N1_8  and  C5_10
REMARK    5  A    between atoms: C6_13  and  N3_14
REMARK    6  A    between atoms: C9_23  and  C10_24
ROOT
HETATM    1  C5  UNL     1      -2.736  -7.323  30.680  1.00  0.00     0.145 A
HETATM    2  N2  UNL     1      -2.313  -7.337  29.405  1.00  0.00    -0.175 N
ATOM      3  H2  UNL     1      -1.375  -7.684  29.203  1.00  0.00     0.186 HD
HETATM    4  C6  UNL     1      -3.079  -6.912  28.386  1.00  0.00     0.679 A
HETATM    5  N4  UNL     1      -4.310  -6.457  28.651  1.00  0.00    -0.176 N
ATOM      6  H4  UNL     1      -4.887  -6.134  27.875  1.00  0.00     0.186 HD
HETATM    7  C7  UNL     1      -4.821  -6.406  29.897  1.00  0.00     0.136 A
HETATM    8  N5  UNL     1      -6.006  -5.997  30.397  1.00  0.00    -0.350 N
ATOM      9  H5  UNL     1      -6.781  -5.625  29.849  1.00  0.00     0.166 HD
HETATM   10  C8  UNL     1      -6.003  -6.157  31.716  1.00  0.00     0.106 A
HETATM   11  C9  UNL     1      -4.752  -6.695  32.086  1.00  0.00     0.050 A
HETATM   12  C13 UNL     1      -4.000  -6.854  30.938  1.00  0.00     0.070 A
ENDROOT
BRANCH  11  13
HETATM   13  C10 UNL     1      -4.415  -6.995  33.464  1.00  0.00     0.178 A
HETATM   14  N6  UNL     1      -3.659  -6.231  34.300  1.00  0.00    -0.276 N
HETATM   15  N7  UNL     1      -3.549  -6.794  35.484  1.00  0.00    -0.263 N
ATOM     16  H6  UNL     1      -3.235  -5.341  34.042  1.00  0.00     0.189 HD
HETATM   17  C11 UNL     1      -4.254  -7.943  35.390  1.00  0.00     0.240 A
ATOM     18  H7  UNL     1      -3.042  -6.441  36.295  1.00  0.00     0.190 HD
HETATM   19  N8  UNL     1      -4.429  -8.830  36.312  1.00  0.00    -0.359 N
HETATM   20  O3  UNL     1      -4.742  -8.012  34.182  1.00  0.00    -0.259 OA
HETATM   21  C12 UNL     1      -3.849  -8.675  37.630  1.00  0.00     0.150 C
ATOM     22  H8  UNL     1      -4.989  -9.657  36.107  1.00  0.00     0.162 HD
ENDBRANCH  11  13
BRANCH   1  23
HETATM   23  N1  UNL     1      -1.966  -7.740  31.607  1.00  0.00    -0.268 N
ATOM     24  H1  UNL     1      -2.066  -8.720  31.871  1.00  0.00     0.180 HD
BRANCH  23  25
HETATM   25  S1  UNL     1      -0.793  -6.851  32.453  1.00  0.00     0.235 S
HETATM   26  O1  UNL     1      -0.769  -7.204  33.912  1.00  0.00    -0.205 OA
HETATM   27  O2  UNL     1      -1.193  -5.383  32.355  1.00  0.00    -0.205 OA
BRANCH  25  28
HETATM   28  C3  UNL     1       0.836  -6.995  31.715  1.00  0.00     0.125 C
HETATM   29  C4  UNL     1       1.638  -8.010  32.489  1.00  0.00     0.028 C
BRANCH  28  30
HETATM   30  C2  UNL     1       1.462  -5.617  31.779  1.00  0.00     0.017 C
HETATM   31  C1  UNL     1       1.809  -5.097  30.414  1.00  0.00     0.006 C
ENDBRANCH  28  30
ENDBRANCH  25  28
ENDBRANCH  23  25
ENDBRANCH   1  23
BRANCH   4  32
HETATM   32  N3  UNL     1      -2.630  -6.942  27.156  1.00  0.00    -0.234 N
ATOM     33  H32 UNL     1      -2.386  -6.078  26.672  1.00  0.00     0.174 HD
ATOM     34  H31 UNL     1      -2.517  -7.829  26.665  1.00  0.00     0.174 HD
ENDBRANCH   4  32
TORSDOF 6
ENDMDL