MODEL 2
REMARK VINA RESULT: -7.725518154      1.906      7.636
REMARK  8 active torsions:
REMARK  status: ('A' for Active; 'I' for Inactive)
REMARK    1  A    between atoms: C2_2  and  N1_3
REMARK    2  A    between atoms: C3_4  and  C4_5
REMARK    3  A    between atoms: C5_6  and  N3_9
REMARK    4  A    between atoms: N3_9  and  N4_11
REMARK    5  A    between atoms: C8_15  and  C9_16
REMARK    6  A    between atoms: C9_16  and  N5_17
REMARK    7  A    between atoms: N5_17  and  C10_19
REMARK    8  A    between atoms: C11_22  and  N7_23
ROOT
HETATM    1  C4  UNL     1       1.391  -6.640  34.148  1.00  0.00     0.072 C
HETATM    2  C5  UNL     1       2.450  -7.402  34.075  1.00  0.00     0.130 C
HETATM    3  C6  UNL     1       2.701  -8.285  32.985  1.00  0.00     0.119 C
HETATM    4  N2  UNL     1       2.928  -9.012  32.092  1.00  0.00    -0.190 NA
ENDROOT
BRANCH   2   5
HETATM    5  N3  UNL     1       3.388  -7.344  35.132  1.00  0.00    -0.297 N
ATOM      6  H3  UNL     1       3.731  -6.437  35.445  1.00  0.00     0.187 HD
BRANCH   5   7
HETATM    7  N4  UNL     1       3.852  -8.491  35.751  1.00  0.00    -0.344 N
ATOM      8  H42 UNL     1       3.559  -8.674  36.710  1.00  0.00     0.176 HD
ATOM      9  H41 UNL     1       4.471  -9.143  35.270  1.00  0.00     0.176 HD
ENDBRANCH   5   7
ENDBRANCH   2   5
BRANCH   1  10
HETATM   10  C3  UNL     1       0.306  -6.559  33.163  1.00  0.00     0.038 A
HETATM   11  N1  UNL     1       0.161  -5.818  32.062  1.00  0.00    -0.350 N
HETATM   12  C16 UNL     1      -1.053  -6.034  31.493  1.00  0.00     0.016 A
HETATM   13  C8  UNL     1      -1.708  -6.955  32.266  1.00  0.00    -0.016 A
HETATM   14  C17 UNL     1      -1.577  -5.382  30.249  1.00  0.00     0.069 C
HETATM   15  C7  UNL     1      -0.882  -7.289  33.300  1.00  0.00     0.040 A
BRANCH  11  16
HETATM   16  C2  UNL     1       1.145  -4.937  31.466  1.00  0.00     0.124 C
HETATM   17  C1  UNL     1       1.994  -5.739  30.460  1.00  0.00     0.027 C
ENDBRANCH  11  16
BRANCH  13  18
HETATM   18  C9  UNL     1      -3.087  -7.520  32.050  1.00  0.00     0.162 C
BRANCH  18  19
HETATM   19  N5  UNL     1      -3.248  -7.798  30.663  1.00  0.00    -0.370 N
ATOM     20  H5  UNL     1      -3.164  -7.002  30.032  1.00  0.00     0.161 HD
BRANCH  19  21
HETATM   21  C10 UNL     1      -3.486  -8.927  30.116  1.00  0.00     0.141 A
HETATM   22  N6  UNL     1      -3.745 -10.034  30.829  1.00  0.00    -0.176 N
HETATM   23  C11 UNL     1      -3.995 -11.219  30.260  1.00  0.00     0.678 A
ATOM     24  H6  UNL     1      -3.752  -9.970  31.847  1.00  0.00     0.186 HD
HETATM   25  N8  UNL     1      -3.987 -11.299  28.916  1.00  0.00    -0.180 N
HETATM   26  C12 UNL     1      -3.732 -10.214  28.168  1.00  0.00     0.154 A
ATOM     27  H8  UNL     1      -4.176 -12.193  28.462  1.00  0.00     0.185 HD
HETATM   28  C13 UNL     1      -3.714 -10.263  26.729  1.00  0.00     0.120 C
HETATM   29  C14 UNL     1      -3.470  -8.976  28.731  1.00  0.00     0.126 A
HETATM   30  N9  UNL     1      -3.684 -10.308  25.575  1.00  0.00    -0.190 NA
HETATM   31  C15 UNL     1      -3.196  -7.805  27.942  1.00  0.00     0.106 C
HETATM   32  N10 UNL     1      -2.962  -6.850  27.316  1.00  0.00    -0.191 NA
BRANCH  23  33
HETATM   33  N7  UNL     1      -4.242 -12.277  30.973  1.00  0.00    -0.234 N
ATOM     34  H72 UNL     1      -5.144 -12.379  31.440  1.00  0.00     0.174 HD
ATOM     35  H71 UNL     1      -3.552 -13.020  31.082  1.00  0.00     0.174 HD
ENDBRANCH  23  33
ENDBRANCH  19  21
ENDBRANCH  18  19
ENDBRANCH  13  18
ENDBRANCH   1  10
TORSDOF 8
ENDMDL