MODEL 2
REMARK VINA RESULT: -8.041050150      1.455      1.688
REMARK  6 active torsions:
REMARK  status: ('A' for Active; 'I' for Inactive)
REMARK    1  A    between atoms: N1_1  and  C1_4
REMARK    2  A    between atoms: N3_10  and  C5_12
REMARK    3  A    between atoms: C5_12  and  C6_13
REMARK    4  A    between atoms: C8_17  and  C9_18
REMARK    5  A    between atoms: C9_18  and  N5_19
REMARK    6  A    between atoms: N5_19  and  C10_21
ROOT
HETATM    1  C1  UNL     1      -1.340  -6.416  29.965  1.00  0.00     0.677 A
HETATM    2  N2  UNL     1      -0.050  -6.791  29.976  1.00  0.00    -0.195 N
ATOM      3  H2  UNL     1       0.463  -6.813  29.094  1.00  0.00     0.184 HD
HETATM    4  C2  UNL     1       0.601  -7.146  31.122  1.00  0.00     0.038 A
HETATM    5  C3  UNL     1      -0.066  -7.125  32.309  1.00  0.00     0.011 A
HETATM    6  C4  UNL     1      -1.399  -6.738  32.299  1.00  0.00     0.125 A
HETATM    7  N3  UNL     1      -2.015  -6.723  33.433  1.00  0.00    -0.369 N
ATOM      8  H3  UNL     1      -1.539  -6.986  34.296  1.00  0.00     0.161 HD
HETATM    9  N8  UNL     1      -1.995  -6.396  31.140  1.00  0.00    -0.177 N
ATOM     10  H8  UNL     1      -2.976  -6.114  31.154  1.00  0.00     0.186 HD
HETATM   11  C14 UNL     1       0.387  -7.452  33.663  1.00  0.00     0.072 C
HETATM   12  C15 UNL     1       1.848  -7.288  33.900  1.00  0.00     0.237 C
HETATM   13  N9  UNL     1       2.391  -6.351  32.926  1.00  0.00    -0.074 N
ATOM     14  H91 UNL     1       3.045  -5.680  33.332  1.00  0.00     0.277 HD
ATOM     15  H92 UNL     1       1.706  -5.674  32.591  1.00  0.00     0.277 HD
HETATM   16  C16 UNL     1       2.975  -7.151  31.866  1.00  0.00     0.238 C
HETATM   17  C17 UNL     1       1.988  -7.501  30.798  1.00  0.00     0.085 C
ENDROOT
BRANCH   7  18
HETATM   18  C5  UNL     1      -3.394  -6.324  33.435  1.00  0.00     0.187 C
BRANCH  18  19
HETATM   19  C6  UNL     1      -4.013  -6.415  34.775  1.00  0.00     0.088 A
HETATM   20  C7  UNL     1      -5.246  -5.997  35.203  1.00  0.00     0.124 A
HETATM   21  N4  UNL     1      -5.331  -6.308  36.506  1.00  0.00    -0.346 N
HETATM   22  C8  UNL     1      -4.192  -6.891  36.847  1.00  0.00     0.142 A
ATOM     23  H4  UNL     1      -6.126  -6.129  37.120  1.00  0.00     0.167 HD
HETATM   24  O1  UNL     1      -3.409  -6.951  35.807  1.00  0.00    -0.297 OA
BRANCH  22  25
HETATM   25  C9  UNL     1      -3.829  -7.407  38.192  1.00  0.00     0.222 C
BRANCH  25  26
HETATM   26  N5  UNL     1      -3.227  -8.712  38.116  1.00  0.00    -0.218 N
ATOM     27  H5  UNL     1      -2.726  -9.005  37.277  1.00  0.00     0.178 HD
BRANCH  26  28
HETATM   28  C10 UNL     1      -3.334  -9.510  39.135  1.00  0.00     0.678 A
HETATM   29  N6  UNL     1      -3.005 -10.814  39.075  1.00  0.00    -0.202 N
HETATM   30  C11 UNL     1      -3.115 -11.639  40.131  1.00  0.00     0.107 A
ATOM     31  H6  UNL     1      -2.658 -11.191  38.193  1.00  0.00     0.183 HD
HETATM   32  C12 UNL     1      -3.586 -11.129  41.328  1.00  0.00     0.035 A
HETATM   33  C13 UNL     1      -3.924  -9.803  41.395  1.00  0.00     0.107 A
HETATM   34  N7  UNL     1      -3.789  -9.019  40.290  1.00  0.00    -0.202 N
ATOM     35  H7  UNL     1      -4.043  -8.032  40.346  1.00  0.00     0.183 HD
ENDBRANCH  26  28
ENDBRANCH  25  26
ENDBRANCH  22  25
ENDBRANCH  18  19
ENDBRANCH   7  18
BRANCH   1  36
HETATM   36  N1  UNL     1      -1.951  -6.080  28.868  1.00  0.00    -0.234 N
ATOM     37  H12 UNL     1      -2.644  -5.332  28.874  1.00  0.00     0.174 HD
ATOM     38  H11 UNL     1      -1.762  -6.544  27.980  1.00  0.00     0.174 HD
ENDBRANCH   1  36
TORSDOF 6
ENDMDL