MODEL 5
REMARK VINA RESULT: -7.182484870      2.081      6.989
REMARK  7 active torsions:
REMARK  status: ('A' for Active; 'I' for Inactive)
REMARK    1  A    between atoms: N1_2  and  N2_4
REMARK    2  A    between atoms: C2_6  and  C3_7
REMARK    3  A    between atoms: C4_8  and  N3_9
REMARK    4  A    between atoms: C10_18  and  N5_19
REMARK    5  A    between atoms: N5_19  and  C11_21
REMARK    6  A    between atoms: C14_24  and  N6_25
REMARK    7  A    between atoms: C17_33  and  N8_34
ROOT
HETATM    1  C3  UNL     1      -2.875  -6.557  31.444  1.00  0.00     0.069 A
HETATM    2  C4  UNL     1      -1.679  -6.659  30.810  1.00  0.00     0.134 A
HETATM    3  N4  UNL     1      -1.664  -6.849  29.470  1.00  0.00    -0.176 N
ATOM      4  H4  UNL     1      -0.758  -6.925  29.010  1.00  0.00     0.186 HD
HETATM    5  C10 UNL     1      -2.779  -6.945  28.698  1.00  0.00     0.681 A
HETATM    6  N7  UNL     1      -3.936  -6.841  29.353  1.00  0.00    -0.176 N
ATOM      7  H7  UNL     1      -4.802  -6.908  28.818  1.00  0.00     0.186 HD
HETATM    8  C17 UNL     1      -4.023  -6.652  30.686  1.00  0.00     0.130 A
ENDROOT
BRANCH   5   9
HETATM    9  N5  UNL     1      -2.646  -7.124  27.435  1.00  0.00    -0.221 N
ATOM     10  H5  UNL     1      -2.391  -6.308  26.878  1.00  0.00     0.178 HD
BRANCH   9  11
HETATM   11  C11 UNL     1      -2.820  -8.354  26.737  1.00  0.00     0.099 C
HETATM   12  C12 UNL     1      -3.613  -8.141  25.444  1.00  0.00     0.027 C
HETATM   13  C13 UNL     1      -4.977  -7.609  25.730  1.00  0.00     0.035 C
HETATM   14  C14 UNL     1      -5.596  -8.467  26.812  1.00  0.00     0.183 C
HETATM   15  C15 UNL     1      -4.849  -9.731  27.081  1.00  0.00     0.035 C
HETATM   16  C16 UNL     1      -3.468  -9.445  27.582  1.00  0.00     0.027 C
BRANCH  14  17
HETATM   17  N6  UNL     1      -6.946  -8.789  26.404  1.00  0.00    -0.075 N
ATOM     18  H63 UNL     1      -7.627  -8.654  27.152  1.00  0.00     0.274 HD
ATOM     19  H62 UNL     1      -7.332  -8.113  25.745  1.00  0.00     0.274 HD
ATOM     20  H61 UNL     1      -6.943  -9.741  26.038  1.00  0.00     0.274 HD
ENDBRANCH  14  17
ENDBRANCH   9  11
ENDBRANCH   5   9
BRANCH   2  21
HETATM   21  N3  UNL     1      -0.412  -6.576  31.423  1.00  0.00    -0.365 N
HETATM   22  C5  UNL     1       0.173  -7.694  32.182  1.00  0.00     0.132 C
HETATM   23  C6  UNL     1       1.445  -8.154  31.459  1.00  0.00     0.098 C
HETATM   24  C7  UNL     1       2.291  -6.980  31.209  1.00  0.00     0.130 C
HETATM   25  O1  UNL     1       3.477  -6.896  31.548  1.00  0.00    -0.298 OA
HETATM   26  C8  UNL     1       1.705  -5.793  30.501  1.00  0.00     0.098 C
HETATM   27  C9  UNL     1       0.474  -5.411  31.347  1.00  0.00     0.132 C
ENDBRANCH   2  21
BRANCH   8  28
HETATM   28  N8  UNL     1      -5.200  -6.570  31.207  1.00  0.00    -0.384 N
ATOM     29  H82 UNL     1      -5.424  -5.736  31.749  1.00  0.00     0.157 HD
ATOM     30  H81 UNL     1      -5.900  -7.303  31.088  1.00  0.00     0.157 HD
ENDBRANCH   8  28
BRANCH   1  31
HETATM   31  C2  UNL     1      -2.982  -6.357  32.857  1.00  0.00     0.125 C
HETATM   32  N2  UNL     1      -3.014  -7.203  33.796  1.00  0.00    -0.316 N
ATOM     33  H2  UNL     1      -2.959  -8.193  33.560  1.00  0.00     0.185 HD
BRANCH  32  34
HETATM   34  N1  UNL     1      -3.121  -6.847  35.137  1.00  0.00    -0.341 N
HETATM   35  C1  UNL     1      -4.361  -6.610  35.835  1.00  0.00     0.167 C
ATOM     36  H1  UNL     1      -2.256  -6.745  35.668  1.00  0.00     0.179 HD
ENDBRANCH  32  34
ENDBRANCH   1  31
TORSDOF 7
ENDMDL