MODEL 1
REMARK VINA RESULT: -8.241427032      0.000      0.000
REMARK  8 active torsions:
REMARK  status: ('A' for Active; 'I' for Inactive)
REMARK    1  A    between atoms: N1_2  and  C2_4
REMARK    2  A    between atoms: C3_7  and  N3_8
REMARK    3  A    between atoms: N3_8  and  C4_10
REMARK    4  A    between atoms: C7_15  and  N5_16
REMARK    5  A    between atoms: N5_16  and  C8_18
REMARK    6  A    between atoms: C13_23  and  N6_24
REMARK    7  A    between atoms: N6_24  and  C14_26
REMARK    8  A    between atoms: C15_33  and  O1_34
ROOT
HETATM    1  N5  UNL     1      -1.915  -6.159  30.641  1.00  0.00    -0.218 N
ATOM      2  H5  UNL     1      -2.253  -6.219  31.602  1.00  0.00     0.178 HD
ENDROOT
BRANCH   1   3
HETATM    3  C7  UNL     1      -2.755  -6.340  29.668  1.00  0.00     0.707 A
HETATM    4  N4  UNL     1      -2.421  -7.025  28.561  1.00  0.00    -0.021 N
HETATM    5  C3  UNL     1      -3.270  -7.233  27.528  1.00  0.00     0.707 A
ATOM      6  H4  UNL     1      -1.478  -7.409  28.497  1.00  0.00     0.203 HD
HETATM    7  N2  UNL     1      -4.495  -6.722  27.636  1.00  0.00    -0.022 N
HETATM    8  C2  UNL     1      -4.897  -6.022  28.717  1.00  0.00     0.706 A
ATOM      9  H2  UNL     1      -5.155  -6.864  26.871  1.00  0.00     0.203 HD
HETATM   10  N10 UNL     1      -4.009  -5.850  29.709  1.00  0.00    -0.022 N
ATOM     11  H10 UNL     1      -4.298  -5.323  30.534  1.00  0.00     0.203 HD
BRANCH   5  12
HETATM   12  N3  UNL     1      -2.913  -7.898  26.483  1.00  0.00    -0.221 N
ATOM     13  H3  UNL     1      -2.409  -7.415  25.739  1.00  0.00     0.178 HD
BRANCH  12  14
HETATM   14  C4  UNL     1      -3.201  -9.293  26.332  1.00  0.00     0.091 C
HETATM   15  C5  UNL     1      -4.353  -9.516  25.349  1.00  0.00     0.032 C
HETATM   16  C6  UNL     1      -3.627  -9.959  27.625  1.00  0.00     0.032 C
ENDBRANCH  12  14
ENDBRANCH   5  12
BRANCH   8  17
HETATM   17  N1  UNL     1      -6.098  -5.553  28.758  1.00  0.00    -0.229 N
HETATM   18  C1  UNL     1      -6.748  -4.948  27.637  1.00  0.00     0.165 C
ATOM     19  H1  UNL     1      -6.611  -5.615  29.637  1.00  0.00     0.177 HD
ENDBRANCH   8  17
ENDBRANCH   1   3
BRANCH   1  20
HETATM   20  C8  UNL     1      -0.541  -5.883  30.415  1.00  0.00     0.122 C
HETATM   21  C9  UNL     1      -0.022  -4.672  31.156  1.00  0.00     0.028 C
HETATM   22  C10 UNL     1       1.281  -4.315  30.436  1.00  0.00     0.002 C
HETATM   23  C11 UNL     1       2.257  -5.417  30.554  1.00  0.00     0.002 C
HETATM   24  C12 UNL     1       1.759  -6.806  30.480  1.00  0.00     0.027 C
HETATM   25  C13 UNL     1       0.334  -7.049  30.866  1.00  0.00     0.106 C
BRANCH  25  26
HETATM   26  N6  UNL     1       0.118  -7.317  32.264  1.00  0.00    -0.365 N
ATOM     27  H6  UNL     1      -0.813  -7.225  32.670  1.00  0.00     0.161 HD
BRANCH  26  28
HETATM   28  C14 UNL     1       1.217  -7.711  33.068  1.00  0.00     0.171 A
HETATM   29  N7  UNL     1       1.909  -8.860  33.121  1.00  0.00    -0.268 N
HETATM   30  N8  UNL     1       2.859  -8.771  34.055  1.00  0.00    -0.239 N
ATOM     31  H7  UNL     1       1.734  -9.677  32.536  1.00  0.00     0.190 HD
HETATM   32  N9  UNL     1       2.830  -7.605  34.631  1.00  0.00    -0.262 N
ATOM     33  H8  UNL     1       3.517  -9.514  34.285  1.00  0.00     0.208 HD
HETATM   34  C15 UNL     1       1.833  -6.922  34.052  1.00  0.00     0.202 A
ATOM     35  H9  UNL     1       3.444  -7.277  35.375  1.00  0.00     0.190 HD
BRANCH  34  36
HETATM   36  O1  UNL     1       1.455  -5.634  34.366  1.00  0.00    -0.342 OA
ATOM     37  H1  UNL     1       1.526  -4.895  33.773  1.00  0.00     0.219 HD
ENDBRANCH  34  36
ENDBRANCH  26  28
ENDBRANCH  25  26
ENDBRANCH   1  20
TORSDOF 8
ENDMDL