MODEL 1
REMARK VINA RESULT: -7.409735460      0.000      0.000
REMARK  7 active torsions:
REMARK  status: ('A' for Active; 'I' for Inactive)
REMARK    1  A    between atoms: C2_2  and  C4_4
REMARK    2  A    between atoms: C4_4  and  C5_5
REMARK    3  A    between atoms: C5_5  and  N1_6
REMARK    4  A    between atoms: C5_5  and  N2_10
REMARK    5  A    between atoms: N2_10  and  C6_12
REMARK    6  A    between atoms: C7_15  and  N4_16
REMARK    7  A    between atoms: C8_21  and  N6_22
ROOT
HETATM    1  C6  UNL     1      -2.131  -7.219  33.114  1.00  0.00     0.143 A
HETATM    2  N3  UNL     1      -2.660  -8.050  33.998  1.00  0.00    -0.175 N
ATOM      3  H3  UNL     1      -2.165  -8.210  34.875  1.00  0.00     0.186 HD
HETATM    4  C7  UNL     1      -3.810  -8.686  33.793  1.00  0.00     0.679 A
HETATM    5  N5  UNL     1      -4.478  -8.494  32.654  1.00  0.00    -0.175 N
ATOM      6  H5  UNL     1      -5.360  -8.981  32.496  1.00  0.00     0.186 HD
HETATM    7  C8  UNL     1      -3.988  -7.650  31.697  1.00  0.00     0.150 A
HETATM    8  C16 UNL     1      -2.805  -6.991  31.901  1.00  0.00     0.133 A
HETATM    9  C17 UNL     1      -2.306  -6.121  30.905  1.00  0.00     0.107 C
HETATM   10  N8  UNL     1      -1.875  -5.402  30.092  1.00  0.00    -0.191 NA
ENDROOT
BRANCH   1  11
HETATM   11  N2  UNL     1      -1.044  -6.589  33.264  1.00  0.00    -0.347 N
ATOM     12  H2  UNL     1      -1.107  -5.630  33.607  1.00  0.00     0.163 HD
BRANCH  11  13
HETATM   13  C5  UNL     1       0.279  -7.102  32.995  1.00  0.00     0.283 C
BRANCH  13  14
HETATM   14  C4  UNL     1       1.146  -5.901  32.689  1.00  0.00     0.058 C
BRANCH  14  15
HETATM   15  C2  UNL     1       1.843  -5.962  31.372  1.00  0.00    -0.019 C
HETATM   16  C1  UNL     1       1.611  -4.739  30.510  1.00  0.00     0.009 C
HETATM   17  C3  UNL     1       1.293  -7.207  30.656  1.00  0.00     0.009 C
ENDBRANCH  14  15
ENDBRANCH  13  14
BRANCH  13  18
HETATM   18  N1  UNL     1       0.795  -7.863  34.115  1.00  0.00    -0.058 N
ATOM     19  H13 UNL     1       1.011  -7.259  34.908  1.00  0.00     0.276 HD
ATOM     20  H12 UNL     1       0.067  -8.434  34.545  1.00  0.00     0.276 HD
ATOM     21  H11 UNL     1       1.601  -8.428  33.848  1.00  0.00     0.276 HD
ENDBRANCH  13  18
ENDBRANCH  11  13
ENDBRANCH   1  11
BRANCH   7  22
HETATM   22  N6  UNL     1      -4.712  -7.464  30.495  1.00  0.00    -0.301 N
HETATM   23  C9  UNL     1      -5.809  -6.534  30.308  1.00  0.00     0.135 C
HETATM   24  C10 UNL     1      -5.510  -5.992  28.940  1.00  0.00     0.041 C
HETATM   25  C11 UNL     1      -5.041  -7.197  28.152  1.00  0.00     0.068 C
HETATM   26  C12 UNL     1      -6.111  -7.785  27.301  1.00  0.00     0.048 C
HETATM   27  C14 UNL     1      -3.901  -6.845  27.224  1.00  0.00     0.251 C
HETATM   28  C15 UNL     1      -4.557  -8.103  29.235  1.00  0.00     0.236 C
HETATM   29  C13 UNL     1      -5.740  -7.334  25.903  1.00  0.00     0.233 C
HETATM   30  N7  UNL     1      -4.300  -7.160  25.888  1.00  0.00    -0.074 N
ATOM     31  H72 UNL     1      -3.804  -7.963  25.501  1.00  0.00     0.277 HD
ATOM     32  H71 UNL     1      -3.988  -6.471  25.204  1.00  0.00     0.277 HD
HETATM   33  O1  UNL     1      -4.089  -9.246  29.051  1.00  0.00    -0.272 OA
ENDBRANCH   7  22
BRANCH   4  34
HETATM   34  N4  UNL     1      -4.314  -9.499  34.675  1.00  0.00    -0.234 N
ATOM     35  H42 UNL     1      -3.853 -10.396  34.826  1.00  0.00     0.174 HD
ATOM     36  H41 UNL     1      -5.148  -9.263  35.212  1.00  0.00     0.174 HD
ENDBRANCH   4  34
TORSDOF 7
ENDMDL