MODEL 4
REMARK VINA RESULT: -7.691497145      1.496      3.075
REMARK  6 active torsions:
REMARK  status: ('A' for Active; 'I' for Inactive)
REMARK    1  A    between atoms: C5_8  and  C6_9
REMARK    2  A    between atoms: C6_9  and  C7_10
REMARK    3  A    between atoms: C9_14  and  N4_15
REMARK    4  A    between atoms: N4_15  and  C10_17
REMARK    5  A    between atoms: C10_17  and  C11_18
REMARK    6  A    between atoms: C11_18  and  N5_19
ROOT
HETATM    1  N1  UNL     1       4.224  -8.037  36.230  1.00  0.00    -0.191 NA
HETATM    2  C1  UNL     1       3.573  -7.719  35.331  1.00  0.00     0.107 C
HETATM    3  C2  UNL     1       2.771  -7.322  34.177  1.00  0.00     0.089 A
HETATM    4  C3  UNL     1       1.495  -6.819  34.183  1.00  0.00     0.062 A
HETATM    5  C4  UNL     1       0.948  -6.520  32.989  1.00  0.00     0.069 A
HETATM    6  N2  UNL     1      -0.229  -6.021  32.504  1.00  0.00    -0.343 N
ATOM      7  H2  UNL     1      -1.025  -5.747  33.081  1.00  0.00     0.167 HD
HETATM    8  C5  UNL     1      -0.194  -5.942  31.170  1.00  0.00     0.089 A
HETATM    9  N9  UNL     1       0.998  -6.384  30.762  1.00  0.00    -0.338 N
ATOM     10  H9  UNL     1       1.322  -6.445  29.797  1.00  0.00     0.168 HD
HETATM   11  C14 UNL     1       1.702  -6.739  31.876  1.00  0.00     0.103 A
HETATM   12  S1  UNL     1       3.158  -7.359  32.518  1.00  0.00    -0.059 SA
ENDROOT
BRANCH   8  13
HETATM   13  C6  UNL     1      -1.274  -5.452  30.252  1.00  0.00     0.153 C
BRANCH  13  14
HETATM   14  C7  UNL     1      -2.025  -6.585  29.687  1.00  0.00     0.090 A
HETATM   15  N3  UNL     1      -2.265  -6.846  28.398  1.00  0.00    -0.339 N
HETATM   16  C8  UNL     1      -2.980  -7.963  28.295  1.00  0.00     0.122 A
ATOM     17  H3  UNL     1      -1.948  -6.276  27.614  1.00  0.00     0.167 HD
HETATM   18  C9  UNL     1      -3.507  -8.699  27.244  1.00  0.00     0.136 A
HETATM   19  C13 UNL     1      -3.190  -8.411  29.571  1.00  0.00     0.141 A
HETATM   20  N6  UNL     1      -4.195  -9.813  27.546  1.00  0.00    -0.293 N
HETATM   21  C12 UNL     1      -4.395 -10.243  28.800  1.00  0.00     0.327 A
ATOM     22  H6  UNL     1      -4.587 -10.361  26.780  1.00  0.00     0.172 HD
HETATM   23  O1  UNL     1      -5.052 -11.300  29.034  1.00  0.00    -0.247 OA
HETATM   24  N7  UNL     1      -3.890  -9.537  29.819  1.00  0.00    -0.292 N
ATOM     25  H7  UNL     1      -4.033  -9.850  30.780  1.00  0.00     0.172 HD
HETATM   26  N8  UNL     1      -2.598  -7.555  30.410  1.00  0.00    -0.330 N
ATOM     27  H8  UNL     1      -2.585  -7.628  31.427  1.00  0.00     0.168 HD
BRANCH  18  28
HETATM   28  N4  UNL     1      -3.309  -8.278  26.040  1.00  0.00    -0.373 N
ATOM     29  H4  UNL     1      -2.348  -8.091  25.754  1.00  0.00     0.161 HD
BRANCH  28  30
HETATM   30  C10 UNL     1      -4.347  -8.056  25.074  1.00  0.00     0.148 C
BRANCH  30  31
HETATM   31  C11 UNL     1      -5.308  -6.988  25.562  1.00  0.00     0.249 C
BRANCH  31  32
HETATM   32  N5  UNL     1      -6.638  -7.530  25.741  1.00  0.00    -0.078 N
ATOM     33  H53 UNL     1      -6.960  -7.427  26.703  1.00  0.00     0.274 HD
ATOM     34  H52 UNL     1      -7.343  -6.956  25.279  1.00  0.00     0.274 HD
ATOM     35  H51 UNL     1      -6.681  -8.501  25.431  1.00  0.00     0.274 HD
ENDBRANCH  31  32
ENDBRANCH  30  31
ENDBRANCH  28  30
ENDBRANCH  18  28
ENDBRANCH  13  14
ENDBRANCH   8  13
TORSDOF 6
ENDMDL