MODEL 4
REMARK VINA RESULT: -7.658235040      2.309      3.577
REMARK  7 active torsions:
REMARK  status: ('A' for Active; 'I' for Inactive)
REMARK    1  A    between atoms: C7_11  and  N3_12
REMARK    2  A    between atoms: N3_12  and  C8_14
REMARK    3  A    between atoms: C12_22  and  N7_23
REMARK    4  A    between atoms: N7_23  and  C13_24
REMARK    5  A    between atoms: C13_24  and  C14_25
REMARK    6  A    between atoms: C13_24  and  C15_28
REMARK    7  A    between atoms: C14_25  and  O2_26
ROOT
HETATM    1  C1  UNL     1      -4.639  -7.650  36.629  1.00  0.00     0.070 C
HETATM    2  C2  UNL     1      -4.496  -8.579  35.484  1.00  0.00     0.035 A
HETATM    3  N1  UNL     1      -5.127  -9.790  35.569  1.00  0.00    -0.324 N
ATOM      4  H1  UNL     1      -5.674 -10.007  36.401  1.00  0.00     0.169 HD
HETATM    5  C3  UNL     1      -5.045 -10.702  34.581  1.00  0.00     0.266 A
HETATM    6  O1  UNL     1      -5.627 -11.819  34.655  1.00  0.00    -0.267 OA
HETATM    7  C4  UNL     1      -4.311 -10.436  33.440  1.00  0.00     0.114 A
HETATM    8  C5  UNL     1      -4.225 -11.412  32.390  1.00  0.00     0.105 C
HETATM    9  N2  UNL     1      -4.156 -12.193  31.518  1.00  0.00    -0.191 NA
HETATM   10  C6  UNL     1      -3.688  -9.207  33.383  1.00  0.00     0.060 A
HETATM   11  C7  UNL     1      -3.754  -8.258  34.374  1.00  0.00     0.073 A
ENDROOT
BRANCH  11  12
HETATM   12  N3  UNL     1      -3.120  -7.011  34.277  1.00  0.00    -0.190 N
ATOM     13  H3  UNL     1      -3.489  -6.225  34.812  1.00  0.00     0.184 HD
BRANCH  12  14
HETATM   14  C8  UNL     1      -2.067  -6.826  33.521  1.00  0.00     0.686 A
HETATM   15  N4  UNL     1      -2.123  -6.018  32.455  1.00  0.00    -0.177 N
HETATM   16  C9  UNL     1      -1.054  -5.798  31.660  1.00  0.00     0.157 A
ATOM     17  H4  UNL     1      -3.004  -5.552  32.235  1.00  0.00     0.185 HD
HETATM   18  N5  UNL     1      -1.148  -4.930  30.533  1.00  0.00    -0.080 NA
HETATM   19  C10 UNL     1       0.131  -6.406  31.932  1.00  0.00     0.144 A
HETATM   20  C11 UNL     1       1.316  -6.204  31.114  1.00  0.00     0.108 C
HETATM   21  C12 UNL     1       0.226  -7.270  33.057  1.00  0.00     0.212 A
HETATM   22  N6  UNL     1       2.274  -6.037  30.475  1.00  0.00    -0.191 NA
HETATM   23  N8  UNL     1      -0.912  -7.433  33.806  1.00  0.00    -0.163 N
ATOM     24  H8  UNL     1      -0.874  -8.047  34.620  1.00  0.00     0.187 HD
BRANCH  21  25
HETATM   25  N7  UNL     1       1.291  -7.771  33.265  1.00  0.00    -0.420 NA
BRANCH  25  26
HETATM   26  C13 UNL     1       2.315  -8.317  33.904  1.00  0.00     0.192 C
BRANCH  26  27
HETATM   27  C14 UNL     1       3.557  -8.573  33.008  1.00  0.00     0.203 C
BRANCH  27  28
HETATM   28  O2  UNL     1       3.127  -9.001  31.763  1.00  0.00    -0.398 OA
ATOM     29  H2  UNL     1       3.176  -9.949  31.734  1.00  0.00     0.209 HD
ENDBRANCH  27  28
ENDBRANCH  26  27
BRANCH  26  30
HETATM   30  C15 UNL     1       2.829  -7.727  35.210  1.00  0.00     0.015 C
HETATM   31  C16 UNL     1       3.351  -6.323  34.941  1.00  0.00     0.012 C
HETATM   32  C17 UNL     1       4.051  -8.501  35.714  1.00  0.00     0.012 C
ENDBRANCH  26  30
ENDBRANCH  25  26
ENDBRANCH  21  25
ENDBRANCH  12  14
ENDBRANCH  11  12
TORSDOF 7
ENDMDL