MODEL 2
REMARK VINA RESULT: -6.555956359      0.874      1.137
REMARK  5 active torsions:
REMARK  status: ('A' for Active; 'I' for Inactive)
REMARK    1  A    between atoms: C2_2  and  O1_3
REMARK    2  A    between atoms: C2_2  and  C3_5
REMARK    3  A    between atoms: C3_5  and  C4_6
REMARK    4  A    between atoms: C7_10  and  N1_11
REMARK    5  A    between atoms: N1_11  and  C8_13
ROOT
HETATM    1  C4  UNL     1      -3.870  -6.892  29.367  1.00  0.00     0.198 C
HETATM    2  C5  UNL     1      -2.758  -5.910  29.189  1.00  0.00     0.107 C
HETATM    3  S1  UNL     1      -1.352  -6.542  30.195  1.00  0.00    -0.163 SA
HETATM    4  C6  UNL     1      -1.667  -6.299  31.944  1.00  0.00     0.128 C
HETATM    5  C7  UNL     1      -1.361  -7.576  32.685  1.00  0.00     0.289 C
HETATM    6  N2  UNL     1      -2.605  -8.274  33.027  1.00  0.00    -0.052 N
ATOM      7  H21 UNL     1      -2.423  -9.253  33.249  1.00  0.00     0.279 HD
ATOM      8  H22 UNL     1      -3.192  -8.396  32.203  1.00  0.00     0.279 HD
HETATM    9  C13 UNL     1      -3.335  -7.636  34.087  1.00  0.00     0.254 C
HETATM   10  C14 UNL     1      -4.795  -8.035  34.027  1.00  0.00     0.150 C
HETATM   11  N3  UNL     1      -5.549  -6.902  33.543  1.00  0.00    -0.358 N
ATOM     12  H3  UNL     1      -5.658  -6.106  34.172  1.00  0.00     0.162 HD
HETATM   13  C15 UNL     1      -6.146  -6.811  32.267  1.00  0.00     0.243 C
HETATM   14  O3  UNL     1      -7.252  -6.212  32.186  1.00  0.00    -0.272 OA
HETATM   15  C16 UNL     1      -5.566  -7.365  31.027  1.00  0.00     0.335 C
HETATM   16  N4  UNL     1      -4.725  -6.359  30.442  1.00  0.00    -0.062 N
ATOM     17  H41 UNL     1      -5.276  -5.566  30.113  1.00  0.00     0.278 HD
ATOM     18  H42 UNL     1      -4.167  -5.889  31.155  1.00  0.00     0.278 HD
ENDROOT
BRANCH   5  19
HETATM   19  N1  UNL     1      -0.443  -7.528  33.729  1.00  0.00    -0.389 N
ATOM     20  H1  UNL     1      -0.805  -7.614  34.679  1.00  0.00     0.155 HD
BRANCH  19  21
HETATM   21  C8  UNL     1       0.926  -7.374  33.574  1.00  0.00     0.102 C
HETATM   22  C9  UNL     1       1.868  -7.842  34.624  1.00  0.00     0.029 C
HETATM   23  C10 UNL     1       3.266  -7.891  34.046  1.00  0.00     0.028 C
HETATM   24  C11 UNL     1       3.283  -7.062  32.784  1.00  0.00     0.167 C
HETATM   25  O2  UNL     1       2.450  -7.568  31.792  1.00  0.00    -0.389 OA
HETATM   26  C12 UNL     1       1.329  -8.175  32.300  1.00  0.00     0.192 C
ENDBRANCH  19  21
ENDBRANCH   5  19
BRANCH   1  27
HETATM   27  C3  UNL     1      -4.742  -7.087  28.188  1.00  0.00     0.065 C
BRANCH  27  28
HETATM   28  C2  UNL     1      -4.285  -8.117  27.208  1.00  0.00     0.116 C
HETATM   29  C1  UNL     1      -3.649  -9.284  27.932  1.00  0.00     0.039 C
BRANCH  28  30
HETATM   30  O1  UNL     1      -3.401  -7.671  26.260  1.00  0.00    -0.396 OA
ATOM     31  H1  UNL     1      -3.508  -6.731  26.176  1.00  0.00     0.210 HD
ENDBRANCH  28  30
ENDBRANCH  27  28
ENDBRANCH   1  27
TORSDOF 5
ENDMDL