MODEL 2
REMARK VINA RESULT: -6.727012062      1.657      1.910
REMARK  7 active torsions:
REMARK  status: ('A' for Active; 'I' for Inactive)
REMARK    1  A    between atoms: C2_2  and  C3_3
REMARK    2  A    between atoms: C3_3  and  C4_4
REMARK    3  A    between atoms: C4_4  and  N1_5
REMARK    4  A    between atoms: N5_24  and  C14_25
REMARK    5  A    between atoms: C14_25  and  C15_26
REMARK    6  A    between atoms: C16_27  and  C17_28
REMARK    7  A    between atoms: C17_28  and  O1_30
ROOT
HETATM    1  C17 UNL     1       2.671  -7.360  32.648  1.00  0.00     0.207 C
HETATM    2  C18 UNL     1       2.553  -8.741  32.045  1.00  0.00     0.077 C
HETATM    3  C19 UNL     1       2.927  -7.539  34.078  1.00  0.00     0.111 C
HETATM    4  N6  UNL     1       3.142  -7.698  35.208  1.00  0.00    -0.193 NA
ENDROOT
BRANCH   1   5
HETATM    5  C16 UNL     1       1.382  -6.697  32.398  1.00  0.00    -0.051 C
HETATM    6  C15 UNL     1       0.321  -6.151  32.211  1.00  0.00    -0.081 C
BRANCH   6   7
HETATM    7  C14 UNL     1      -0.981  -5.473  32.007  1.00  0.00     0.236 C
BRANCH   7   8
HETATM    8  N5  UNL     1      -1.891  -6.337  31.296  1.00  0.00    -0.310 N
HETATM    9  N1  UNL     1      -3.000  -6.672  31.979  1.00  0.00    -0.288 N
HETATM   10  C5  UNL     1      -4.262  -6.423  31.423  1.00  0.00     0.089 C
HETATM   11  C6  UNL     1      -5.422  -7.187  31.921  1.00  0.00     0.074 C
HETATM   12  C7  UNL     1      -6.093  -8.056  30.860  1.00  0.00     0.237 C
HETATM   13  N2  UNL     1      -6.578  -7.234  29.766  1.00  0.00    -0.073 N
HETATM   14  C8  UNL     1      -7.142  -8.101  28.748  1.00  0.00     0.259 C
ATOM     15  H22 UNL     1      -7.234  -6.518  30.077  1.00  0.00     0.277 HD
ATOM     16  H21 UNL     1      -5.857  -6.614  29.396  1.00  0.00     0.277 HD
HETATM   17  C9  UNL     1      -6.813  -7.498  27.400  1.00  0.00     0.259 C
HETATM   18  N3  UNL     1      -5.716  -6.571  27.512  1.00  0.00    -0.072 N
HETATM   19  C10 UNL     1      -4.689  -6.798  26.526  1.00  0.00     0.259 C
ATOM     20  H32 UNL     1      -6.048  -5.608  27.479  1.00  0.00     0.277 HD
ATOM     21  H31 UNL     1      -5.326  -6.580  28.455  1.00  0.00     0.277 HD
HETATM   22  C11 UNL     1      -3.588  -7.593  27.196  1.00  0.00     0.259 C
HETATM   23  N4  UNL     1      -2.533  -6.725  27.677  1.00  0.00    -0.072 N
HETATM   24  C12 UNL     1      -2.030  -7.139  28.965  1.00  0.00     0.253 C
ATOM     25  H42 UNL     1      -1.779  -6.649  26.994  1.00  0.00     0.277 HD
ATOM     26  H41 UNL     1      -2.836  -5.752  27.694  1.00  0.00     0.277 HD
HETATM   27  C13 UNL     1      -2.064  -5.965  29.922  1.00  0.00     0.171 C
BRANCH   9  28
HETATM   28  C4  UNL     1      -2.876  -7.304  33.211  1.00  0.00     0.088 C
BRANCH  28  29
HETATM   29  C3  UNL     1      -3.236  -6.525  34.430  1.00  0.00     0.046 C
BRANCH  29  30
HETATM   30  C2  UNL     1      -4.076  -7.362  35.405  1.00  0.00     0.001 C
HETATM   31  C1  UNL     1      -4.413  -6.614  36.644  1.00  0.00     0.005 C
ENDBRANCH  29  30
ENDBRANCH  28  29
ENDBRANCH   9  28
ENDBRANCH   7   8
ENDBRANCH   6   7
ENDBRANCH   1   5
BRANCH   1  32
HETATM   32  O1  UNL     1       3.721  -6.665  32.048  1.00  0.00    -0.366 OA
ATOM     33  H1  UNL     1       3.521  -6.455  31.143  1.00  0.00     0.212 HD
ENDBRANCH   1  32
TORSDOF 7
ENDMDL