MODEL 4
REMARK VINA RESULT: -7.439261660      1.472      1.928
REMARK  4 active torsions:
REMARK  status: ('A' for Active; 'I' for Inactive)
REMARK       I    between atoms: C1_4  and  N3_6
REMARK    1  A    between atoms: N3_6  and  N4_7
REMARK    2  A    between atoms: N3_6  and  N5_11
REMARK    3  A    between atoms: N4_7  and  O1_9
REMARK    4  A    between atoms: C2_13  and  C3_14
ROOT
HETATM    1  N5  UNL     1      -2.946  -5.756  30.758  1.00  0.00    -0.286 N
ATOM      2  H5  UNL     1      -2.790  -6.505  31.432  1.00  0.00     0.188 HD
HETATM    3  C2  UNL     1      -2.003  -4.914  30.491  1.00  0.00     0.120 C
ENDROOT
BRANCH   3   4
HETATM    4  C3  UNL     1      -0.707  -5.031  31.156  1.00  0.00    -0.017 A
HETATM    5  C4  UNL     1       0.361  -4.254  30.695  1.00  0.00     0.015 A
HETATM    6  C5  UNL     1       1.594  -4.363  31.327  1.00  0.00     0.033 A
HETATM    7  C6  UNL     1       1.771  -5.223  32.392  1.00  0.00     0.068 A
HETATM    8  C7  UNL     1       0.709  -5.981  32.833  1.00  0.00     0.097 A
HETATM    9  N6  UNL     1       3.012  -5.369  33.069  1.00  0.00    -0.323 N
HETATM   10  C8  UNL     1      -0.546  -5.900  32.226  1.00  0.00     0.052 A
HETATM   11  O2  UNL     1       0.866  -6.849  33.898  1.00  0.00    -0.340 OA
HETATM   12  C9  UNL     1       2.145  -7.372  34.241  1.00  0.00     0.278 C
HETATM   13  C10 UNL     1       3.139  -6.270  34.162  1.00  0.00     0.246 C
HETATM   14  O3  UNL     1       4.065  -6.137  35.031  1.00  0.00    -0.271 OA
ATOM     15  H6  UNL     1       3.819  -4.823  32.768  1.00  0.00     0.169 HD
ENDBRANCH   3   4
BRANCH   1  16
HETATM   16  N3  UNL     1      -4.177  -5.633  30.117  1.00  0.00    -0.146 N
HETATM   17  C1  UNL     1      -4.400  -6.397  28.943  1.00  0.00     0.225 C
HETATM   18  N1  UNL     1      -4.822  -7.595  29.043  1.00  0.00    -0.371 N
HETATM   19  N2  UNL     1      -4.149  -5.808  27.682  1.00  0.00    -0.060 NA
ATOM     20  H12 UNL     1      -4.982  -8.143  28.198  1.00  0.00     0.158 HD
ATOM     21  H11 UNL     1      -5.003  -8.019  29.952  1.00  0.00     0.158 HD
BRANCH  16  22
HETATM   22  N4  UNL     1      -5.138  -4.765  30.657  1.00  0.00    -0.186 N
ATOM     23  H4  UNL     1      -5.785  -5.113  31.364  1.00  0.00     0.218 HD
BRANCH  22  24
HETATM   24  O1  UNL     1      -5.220  -3.558  30.285  1.00  0.00    -0.273 OA
ATOM     25  H1  UNL     1      -5.988  -3.033  30.472  1.00  0.00     0.246 HD
ENDBRANCH  22  24
ENDBRANCH  16  22
ENDBRANCH   1  16
TORSDOF 4
ENDMDL