MODEL 4
REMARK VINA RESULT: -7.393282762      1.950      6.618
REMARK  3 active torsions:
REMARK  status: ('A' for Active; 'I' for Inactive)
REMARK    1  A    between atoms: C4_11  and  N4_12
REMARK    2  A    between atoms: N5_14  and  C5_16
REMARK    3  A    between atoms: N6_21  and  O3_22
ROOT
HETATM    1  N4  UNL     1       0.391  -6.538  33.459  1.00  0.00    -0.291 N
ATOM      2  H4  UNL     1       0.294  -7.398  33.996  1.00  0.00     0.187 HD
HETATM    3  N5  UNL     1       1.418  -5.805  33.565  1.00  0.00    -0.283 N
ATOM      4  H5  UNL     1       1.501  -4.946  33.021  1.00  0.00     0.188 HD
ENDROOT
BRANCH   1   5
HETATM    5  C4  UNL     1      -0.619  -6.109  32.558  1.00  0.00     0.158 A
HETATM    6  C1  UNL     1      -0.361  -5.879  31.234  1.00  0.00     0.154 A
HETATM    7  N1  UNL     1       0.954  -6.066  30.718  1.00  0.00    -0.080 NA
HETATM    8  N2  UNL     1      -1.363  -5.475  30.430  1.00  0.00    -0.295 N
HETATM    9  C2  UNL     1      -2.616  -5.283  30.858  1.00  0.00     0.328 A
ATOM     10  H2  UNL     1      -1.157  -5.307  29.445  1.00  0.00     0.172 HD
HETATM   11  O1  UNL     1      -3.561  -4.905  30.111  1.00  0.00    -0.247 OA
HETATM   12  N3  UNL     1      -2.890  -5.503  32.153  1.00  0.00    -0.273 N
HETATM   13  C3  UNL     1      -1.925  -5.907  32.994  1.00  0.00     0.281 A
ATOM     14  H3  UNL     1      -3.839  -5.363  32.500  1.00  0.00     0.173 HD
HETATM   15  O2  UNL     1      -2.201  -6.108  34.201  1.00  0.00    -0.265 OA
ENDBRANCH   1   5
BRANCH   3  16
HETATM   16  C5  UNL     1       2.445  -6.197  34.452  1.00  0.00     0.146 A
HETATM   17  C6  UNL     1       3.103  -5.249  35.205  1.00  0.00     0.052 A
HETATM   18  C7  UNL     1       4.108  -5.626  36.071  1.00  0.00     0.005 A
HETATM   19  C8  UNL     1       4.454  -6.960  36.183  1.00  0.00     0.020 A
HETATM   20  C9  UNL     1       3.770  -7.875  35.411  1.00  0.00     0.125 A
HETATM   21  N6  UNL     1       2.790  -7.493  34.568  1.00  0.00    -0.218 N
BRANCH  21  22
HETATM   22  O3  UNL     1       2.147  -8.481  33.822  1.00  0.00    -0.282 OA
ATOM     23  H3  UNL     1       1.635  -9.161  34.245  1.00  0.00     0.245 HD
ENDBRANCH  21  22
ENDBRANCH   3  16
TORSDOF 3
ENDMDL