MODEL 2
REMARK VINA RESULT: -7.162310602      2.018      2.964
REMARK  3 active torsions:
REMARK  status: ('A' for Active; 'I' for Inactive)
REMARK    1  A    between atoms: O1_2  and  C2_3
REMARK    2  A    between atoms: C4_5  and  N1_6
REMARK    3  A    between atoms: N1_6  and  N2_8
ROOT
HETATM    1  N1  UNL     1      -1.321  -6.779  33.269  1.00  0.00    -0.300 N
ATOM      2  H1  UNL     1      -1.735  -7.490  33.872  1.00  0.00     0.187 HD
ENDROOT
BRANCH   1   3
HETATM    3  C4  UNL     1      -1.885  -6.518  31.995  1.00  0.00     0.050 A
HETATM    4  C3  UNL     1      -2.712  -7.416  31.346  1.00  0.00     0.069 A
HETATM    5  C2  UNL     1      -3.264  -7.167  30.106  1.00  0.00     0.094 A
HETATM    6  C11 UNL     1      -2.975  -5.963  29.483  1.00  0.00     0.079 A
HETATM    7  C10 UNL     1      -2.146  -5.026  30.099  1.00  0.00     0.032 A
HETATM    8  N4  UNL     1      -3.530  -5.688  28.212  1.00  0.00    -0.100 NA
HETATM    9  C9  UNL     1      -1.627  -5.325  31.327  1.00  0.00     0.033 A
BRANCH   5  10
HETATM   10  O1  UNL     1      -4.084  -8.054  29.459  1.00  0.00    -0.354 OA
HETATM   11  C1  UNL     1      -3.682  -9.265  28.892  1.00  0.00     0.210 C
ENDBRANCH   5  10
ENDBRANCH   1   3
BRANCH   1  12
HETATM   12  N2  UNL     1      -0.206  -6.069  33.698  1.00  0.00    -0.299 N
HETATM   13  C5  UNL     1       0.990  -6.300  33.293  1.00  0.00     0.102 C
HETATM   14  C6  UNL     1       1.502  -7.306  32.326  1.00  0.00     0.167 C
HETATM   15  C8  UNL     1       2.161  -5.556  33.742  1.00  0.00     0.272 C
HETATM   16  C7  UNL     1       2.621  -6.558  31.687  1.00  0.00     0.230 C
HETATM   17  O2  UNL     1       3.020  -6.628  30.480  1.00  0.00    -0.273 OA
HETATM   18  N3  UNL     1       3.157  -5.736  32.724  1.00  0.00    -0.292 N
ATOM     19  H3  UNL     1       4.096  -5.340  32.739  1.00  0.00     0.172 HD
HETATM   20  O3  UNL     1       2.269  -4.893  34.810  1.00  0.00    -0.266 OA
ATOM     21  H2  UNL     1      -0.346  -5.320  34.375  1.00  0.00     0.186 HD
ENDBRANCH   1  12
TORSDOF 3
ENDMDL