MODEL 3
REMARK VINA RESULT: -6.374190593      4.930      6.919
REMARK  2 active torsions:
REMARK  status: ('A' for Active; 'I' for Inactive)
REMARK    1  A    between atoms: C1_4  and  C2_6
REMARK    2  A    between atoms: C4_8  and  N3_9
ROOT
HETATM    1  C2  UNL     1      -3.615  -7.816  27.877  1.00  0.00     0.008 A
HETATM    2  C3  UNL     1      -3.497  -6.518  28.334  1.00  0.00     0.053 A
HETATM    3  C4  UNL     1      -3.481  -6.232  29.672  1.00  0.00     0.138 A
HETATM    4  C5  UNL     1      -3.587  -7.282  30.560  1.00  0.00     0.129 A
HETATM    5  O3  UNL     1      -3.571  -7.001  31.848  1.00  0.00    -0.258 OA
HETATM    6  C6  UNL     1      -3.669  -7.946  32.761  1.00  0.00     0.372 A
HETATM    7  O4  UNL     1      -3.652  -7.656  34.005  1.00  0.00    -0.238 OA
HETATM    8  N4  UNL     1      -3.788  -9.237  32.416  1.00  0.00    -0.268 N
ATOM      9  H4  UNL     1      -3.861  -9.964  33.128  1.00  0.00     0.174 HD
HETATM   10  C7  UNL     1      -3.807  -9.548  31.111  1.00  0.00     0.262 A
HETATM   11  O5  UNL     1      -3.917 -10.750  30.705  1.00  0.00    -0.267 OA
HETATM   12  C8  UNL     1      -3.706  -8.582  30.129  1.00  0.00     0.070 A
HETATM   13  C9  UNL     1      -3.721  -8.849  28.786  1.00  0.00     0.035 A
ENDROOT
BRANCH   1  14
HETATM   14  C1  UNL     1      -3.632  -8.112  26.445  1.00  0.00     0.120 C
HETATM   15  N1  UNL     1      -3.974  -7.178  25.597  1.00  0.00    -0.387 N
ATOM     16  H12 UNL     1      -3.986  -7.385  24.598  1.00  0.00     0.157 HD
ATOM     17  H11 UNL     1      -4.228  -6.250  25.935  1.00  0.00     0.157 HD
HETATM   18  N2  UNL     1      -3.281  -9.396  25.979  1.00  0.00    -0.082 NA
ENDBRANCH   1  14
BRANCH   3  19
HETATM   19  N3  UNL     1      -3.360  -4.906  30.164  1.00  0.00    -0.113 N
HETATM   20  O1  UNL     1      -2.236  -4.407  30.372  1.00  0.00    -0.532 OA
HETATM   21  O2  UNL     1      -4.532  -4.221  30.391  1.00  0.00    -0.532 OA
ENDBRANCH   3  19
TORSDOF 2
ENDMDL