MODEL 3
REMARK VINA RESULT: -7.497218915      1.038      1.684
REMARK  3 active torsions:
REMARK  status: ('A' for Active; 'I' for Inactive)
REMARK    1  A    between atoms: C5_10  and  N3_11
REMARK    2  A    between atoms: N3_11  and  S1_13
REMARK    3  A    between atoms: S1_13  and  C6_16
ROOT
HETATM    1  N3  UNL     1       0.631  -6.740  32.871  1.00  0.00    -0.274 N
ATOM      2  H3  UNL     1       0.588  -7.672  33.284  1.00  0.00     0.179 HD
ENDROOT
BRANCH   1   3
HETATM    3  C5  UNL     1      -0.503  -6.309  32.174  1.00  0.00     0.086 A
HETATM    4  C1  UNL     1      -0.526  -5.899  30.858  1.00  0.00     0.126 A
HETATM    5  N1  UNL     1       0.570  -5.892  30.200  1.00  0.00    -0.384 N
HETATM    6  N2  UNL     1      -1.676  -5.504  30.254  1.00  0.00    -0.351 N
ATOM      7  H12 UNL     1       0.553  -5.589  29.227  1.00  0.00     0.157 HD
ATOM      8  H11 UNL     1       1.434  -6.189  30.654  1.00  0.00     0.157 HD
HETATM    9  C2  UNL     1      -2.838  -5.496  30.909  1.00  0.00     0.090 A
ATOM     10  H2  UNL     1      -1.651  -5.208  29.278  1.00  0.00     0.166 HD
HETATM   11  C3  UNL     1      -2.907  -5.884  32.210  1.00  0.00     0.019 A
HETATM   12  C4  UNL     1      -1.727  -6.293  32.840  1.00  0.00     0.035 A
ENDBRANCH   1   3
BRANCH   1  13
HETATM   13  S1  UNL     1       2.073  -5.870  33.100  1.00  0.00     0.296 S
HETATM   14  O1  UNL     1       3.003  -5.887  31.924  1.00  0.00    -0.197 OA
HETATM   15  O2  UNL     1       1.815  -4.410  33.400  1.00  0.00    -0.197 OA
BRANCH  13  16
HETATM   16  C6  UNL     1       2.943  -6.501  34.481  1.00  0.00     0.239 A
HETATM   17  N4  UNL     1       3.771  -5.790  35.279  1.00  0.00    -0.325 N
HETATM   18  C7  UNL     1       4.273  -6.563  36.231  1.00  0.00     0.199 A
ATOM     19  H4  UNL     1       3.980  -4.798  35.164  1.00  0.00     0.169 HD
HETATM   20  N5  UNL     1       3.758  -7.802  36.045  1.00  0.00    -0.294 N
HETATM   21  N6  UNL     1       2.963  -7.745  34.989  1.00  0.00    -0.274 N
ATOM     22  H5  UNL     1       3.948  -8.627  36.613  1.00  0.00     0.187 HD
ATOM     23  H6  UNL     1       2.438  -8.536  34.613  1.00  0.00     0.189 HD
ENDBRANCH  13  16
ENDBRANCH   1  13
TORSDOF 3
ENDMDL