MODEL 3
REMARK VINA RESULT: -7.087402684      4.055      6.316
REMARK  4 active torsions:
REMARK  status: ('A' for Active; 'I' for Inactive)
REMARK    1  A    between atoms: N1_1  and  C1_4
REMARK    2  A    between atoms: N4_11  and  N5_12
REMARK    3  A    between atoms: C3_14  and  C4_15
REMARK    4  A    between atoms: C7_18  and  N6_19
ROOT
HETATM    1  N5  UNL     1       1.772  -5.740  33.394  1.00  0.00    -0.286 N
ATOM      2  H5  UNL     1       1.982  -4.829  33.800  1.00  0.00     0.187 HD
HETATM    3  C3  UNL     1       2.323  -6.794  33.862  1.00  0.00     0.119 C
ENDROOT
BRANCH   1   4
HETATM    4  N4  UNL     1       0.883  -5.843  32.327  1.00  0.00    -0.030 N
HETATM    5  C1  UNL     1      -0.412  -6.190  32.383  1.00  0.00     0.716 A
HETATM    6  N2  UNL     1      -0.866  -6.154  31.118  1.00  0.00    -0.127 N
HETATM    7  N3  UNL     1       0.095  -5.801  30.297  1.00  0.00    -0.235 N
ATOM      8  H2  UNL     1      -1.822  -6.371  30.837  1.00  0.00     0.206 HD
HETATM    9  C2  UNL     1       1.205  -5.602  31.049  1.00  0.00     0.375 A
ATOM     10  H3  UNL     1       0.020  -5.696  29.286  1.00  0.00     0.192 HD
HETATM   11  O1  UNL     1       2.337  -5.256  30.646  1.00  0.00    -0.243 OA
BRANCH   5  12
HETATM   12  N1  UNL     1      -1.059  -6.490  33.446  1.00  0.00    -0.231 N
ATOM     13  H12 UNL     1      -0.647  -6.688  34.358  1.00  0.00     0.174 HD
ATOM     14  H11 UNL     1      -2.069  -6.580  33.563  1.00  0.00     0.174 HD
ENDBRANCH   5  12
ENDBRANCH   1   4
BRANCH   3  15
HETATM   15  C4  UNL     1       3.247  -6.685  34.973  1.00  0.00    -0.019 A
HETATM   16  C5  UNL     1       3.662  -5.454  35.460  1.00  0.00     0.015 A
HETATM   17  C6  UNL     1       4.529  -5.378  36.503  1.00  0.00     0.037 A
HETATM   18  C7  UNL     1       5.050  -6.486  37.139  1.00  0.00     0.102 A
HETATM   19  C8  UNL     1       4.633  -7.706  36.649  1.00  0.00     0.037 A
HETATM   20  C9  UNL     1       3.754  -7.812  35.593  1.00  0.00     0.015 A
BRANCH  18  21
HETATM   21  N6  UNL     1       5.955  -6.359  38.226  1.00  0.00    -0.116 N
HETATM   22  O2  UNL     1       5.688  -5.688  39.222  1.00  0.00    -0.532 OA
HETATM   23  O3  UNL     1       7.165  -7.000  38.172  1.00  0.00    -0.532 OA
ENDBRANCH  18  21
ENDBRANCH   3  15
TORSDOF 4
ENDMDL