MODEL 2
REMARK VINA RESULT: -6.366496852      2.928      3.961
REMARK  5 active torsions:
REMARK  status: ('A' for Active; 'I' for Inactive)
REMARK    1  A    between atoms: O1_2  and  N1_3
REMARK    2  A    between atoms: C2_5  and  C3_6
REMARK    3  A    between atoms: C4_7  and  N2_8
REMARK    4  A    between atoms: N2_8  and  C5_10
REMARK    5  A    between atoms: C10_16  and  N4_17
ROOT
HETATM    1  C3  UNL     1      -1.880  -6.092  31.429  1.00  0.00     0.094 A
HETATM    2  C4  UNL     1      -2.679  -7.162  30.981  1.00  0.00     0.137 A
HETATM    3  N3  UNL     1      -3.160  -7.108  29.733  1.00  0.00    -0.172 N
HETATM    4  C9  UNL     1      -4.027  -8.100  29.126  1.00  0.00     0.177 C
HETATM    5  C10 UNL     1      -2.887  -6.049  28.900  1.00  0.00     0.682 A
HETATM    6  N5  UNL     1      -2.131  -5.012  29.287  1.00  0.00    -0.155 N
ATOM      7  H5  UNL     1      -1.933  -4.229  28.664  1.00  0.00     0.187 HD
HETATM    8  C11 UNL     1      -1.655  -5.058  30.519  1.00  0.00     0.275 A
HETATM    9  O2  UNL     1      -0.935  -4.084  30.907  1.00  0.00    -0.267 OA
ENDROOT
BRANCH   2  10
HETATM   10  N2  UNL     1      -2.935  -8.192  31.884  1.00  0.00    -0.366 N
ATOM     11  H2  UNL     1      -2.098  -8.738  32.083  1.00  0.00     0.162 HD
BRANCH  10  12
HETATM   12  C5  UNL     1      -4.067  -8.676  32.598  1.00  0.00     0.028 A
HETATM   13  C6  UNL     1      -4.216 -10.207  32.704  1.00  0.00     0.038 C
HETATM   14  C7  UNL     1      -5.215  -7.874  33.046  1.00  0.00     0.033 A
HETATM   15  C8  UNL     1      -4.139  -8.061  34.038  1.00  0.00     0.033 A
ENDBRANCH  10  12
ENDBRANCH   2  10
BRANCH   1  16
HETATM   16  C2  UNL     1      -1.283  -6.028  32.751  1.00  0.00     0.135 C
HETATM   17  N1  UNL     1      -0.027  -6.367  32.860  1.00  0.00    -0.277 N
ATOM     18  H1  UNL     1       0.474  -6.659  32.020  1.00  0.00     0.193 HD
BRANCH  17  19
HETATM   19  O1  UNL     1       0.649  -6.347  34.052  1.00  0.00    -0.286 OA
HETATM   20  C1  UNL     1       1.841  -5.628  34.203  1.00  0.00     0.237 C
ENDBRANCH  17  19
ENDBRANCH   1  16
BRANCH   5  21
HETATM   21  N4  UNL     1      -3.349  -6.007  27.699  1.00  0.00    -0.234 N
ATOM     22  H42 UNL     1      -4.363  -6.050  27.599  1.00  0.00     0.174 HD
ATOM     23  H41 UNL     1      -2.726  -5.933  26.895  1.00  0.00     0.174 HD
ENDBRANCH   5  21
TORSDOF 5
ENDMDL