MODEL 5
REMARK VINA RESULT: -6.474370667      2.113      4.914
REMARK  3 active torsions:
REMARK  status: ('A' for Active; 'I' for Inactive)
REMARK    1  A    between atoms: O1_2  and  N1_3
REMARK    2  A    between atoms: C2_5  and  C3_7
REMARK    3  A    between atoms: C5_9  and  N3_10
ROOT
HETATM    1  C3  UNL     1      -3.572  -9.144  27.778  1.00  0.00     0.038 A
HETATM    2  C4  UNL     1      -3.973  -9.988  28.825  1.00  0.00     0.053 A
HETATM    3  C5  UNL     1      -4.003  -9.553  30.128  1.00  0.00     0.104 A
HETATM    4  C6  UNL     1      -3.618  -8.239  30.360  1.00  0.00     0.055 A
HETATM    5  C7  UNL     1      -3.217  -7.388  29.337  1.00  0.00     0.065 A
HETATM    6  C8  UNL     1      -2.797  -6.079  29.289  1.00  0.00     0.272 A
HETATM    7  O4  UNL     1      -2.683  -5.317  30.273  1.00  0.00    -0.266 OA
HETATM    8  N4  UNL     1      -2.531  -5.748  28.022  1.00  0.00    -0.265 N
ATOM      9  H4  UNL     1      -2.202  -4.841  27.691  1.00  0.00     0.190 HD
HETATM   10  N5  UNL     1      -2.773  -6.821  27.272  1.00  0.00    -0.296 N
ATOM     11  H5  UNL     1      -2.655  -6.858  26.260  1.00  0.00     0.187 HD
HETATM   12  C9  UNL     1      -3.195  -7.847  28.030  1.00  0.00     0.077 A
ENDROOT
BRANCH   1  13
HETATM   13  C2  UNL     1      -3.574  -9.694  26.439  1.00  0.00     0.148 C
HETATM   14  N1  UNL     1      -3.341 -10.909  26.230  1.00  0.00    -0.253 N
ATOM     15  H1  UNL     1      -3.152 -11.476  27.057  1.00  0.00     0.195 HD
HETATM   16  N2  UNL     1      -3.844  -8.852  25.329  1.00  0.00    -0.080 NA
BRANCH  14  17
HETATM   17  O1  UNL     1      -3.309 -11.560  25.049  1.00  0.00    -0.284 OA
HETATM   18  C1  UNL     1      -2.099 -11.899  24.419  1.00  0.00     0.237 C
ENDBRANCH  14  17
ENDBRANCH   1  13
BRANCH   3  19
HETATM   19  N3  UNL     1      -4.404 -10.386  31.206  1.00  0.00    -0.116 N
HETATM   20  O2  UNL     1      -3.608 -10.663  32.108  1.00  0.00    -0.532 OA
HETATM   21  O3  UNL     1      -5.673 -10.881  31.250  1.00  0.00    -0.532 OA
ENDBRANCH   3  19
TORSDOF 3
ENDMDL