MODEL 4
REMARK VINA RESULT: -5.468373037      3.463      5.396
REMARK  4 active torsions:
REMARK  status: ('A' for Active; 'I' for Inactive)
REMARK    1  A    between atoms: O1_2  and  C2_3
REMARK    2  A    between atoms: C6_7  and  N1_8
REMARK    3  A    between atoms: C8_15  and  N4_16
REMARK    4  A    between atoms: C9_19  and  N5_20
ROOT
HETATM    1  C2  UNL     1      -4.444  -6.677  28.647  1.00  0.00     0.103 A
HETATM    2  C3  UNL     1      -4.621  -7.968  28.236  1.00  0.00     0.039 A
HETATM    3  C4  UNL     1      -4.139  -8.972  29.043  1.00  0.00     0.005 A
HETATM    4  C5  UNL     1      -3.489  -8.729  30.237  1.00  0.00     0.035 A
HETATM    5  C6  UNL     1      -3.307  -7.424  30.657  1.00  0.00     0.110 A
HETATM    6  C9  UNL     1      -3.794  -6.414  29.843  1.00  0.00     0.165 A
ENDROOT
BRANCH   5   7
HETATM    7  N1  UNL     1      -2.650  -7.055  31.863  1.00  0.00    -0.080 N
HETATM    8  N2  UNL     1      -1.364  -6.677  31.971  1.00  0.00    -0.229 N
HETATM    9  C7  UNL     1      -1.119  -6.408  33.264  1.00  0.00     0.354 A
ATOM     10  H2  UNL     1      -0.693  -6.606  31.205  1.00  0.00     0.193 HD
HETATM   11  O2  UNL     1      -0.001  -6.018  33.744  1.00  0.00    -0.245 OA
HETATM   12  N3  UNL     1      -2.243  -6.612  33.984  1.00  0.00    -0.139 N
HETATM   13  C8  UNL     1      -3.182  -7.013  33.095  1.00  0.00     0.702 A
ATOM     14  H3  UNL     1      -2.360  -6.489  34.990  1.00  0.00     0.189 HD
BRANCH  13  15
HETATM   15  N4  UNL     1      -4.395  -7.305  33.400  1.00  0.00    -0.233 N
ATOM     16  H42 UNL     1      -5.180  -7.264  32.750  1.00  0.00     0.174 HD
ATOM     17  H41 UNL     1      -4.722  -7.613  34.315  1.00  0.00     0.174 HD
ENDBRANCH  13  15
ENDBRANCH   5   7
BRANCH   6  18
HETATM   18  N5  UNL     1      -3.612  -5.081  30.269  1.00  0.00    -0.110 N
HETATM   19  O3  UNL     1      -4.542  -4.479  30.808  1.00  0.00    -0.532 OA
HETATM   20  O4  UNL     1      -2.401  -4.486  30.072  1.00  0.00    -0.532 OA
ENDBRANCH   6  18
BRANCH   1  21
HETATM   21  O1  UNL     1      -4.888  -5.584  27.916  1.00  0.00    -0.353 OA
HETATM   22  C1  UNL     1      -5.247  -5.656  26.555  1.00  0.00     0.210 C
ENDBRANCH   1  21
TORSDOF 4
ENDMDL