MODEL 1
REMARK VINA RESULT: -6.372132356      0.000      0.000
REMARK  3 active torsions:
REMARK  status: ('A' for Active; 'I' for Inactive)
REMARK    1  A    between atoms: C1_2  and  C2_4
REMARK    2  A    between atoms: C4_8  and  C5_9
REMARK    3  A    between atoms: N3_10  and  N4_12
ROOT
HETATM    1  C5  UNL     1      -1.678  -5.173  30.796  1.00  0.00     0.156 C
HETATM    2  N3  UNL     1      -2.083  -5.524  29.629  1.00  0.00    -0.298 N
ATOM      3  H3  UNL     1      -1.385  -5.679  28.902  1.00  0.00     0.186 HD
ENDROOT
BRANCH   1   4
HETATM    4  C4  UNL     1      -0.240  -5.019  31.002  1.00  0.00     0.122 A
HETATM    5  N2  UNL     1       0.562  -4.052  30.534  1.00  0.00    -0.349 N
HETATM    6  C3  UNL     1       1.830  -4.237  30.928  1.00  0.00     0.124 A
ATOM      7  H2  UNL     1       0.247  -3.276  29.952  1.00  0.00     0.167 HD
HETATM    8  C2  UNL     1       1.841  -5.383  31.690  1.00  0.00     0.115 A
HETATM    9  N7  UNL     1       0.560  -5.829  31.711  1.00  0.00    -0.336 N
ATOM     10  H7  UNL     1       0.247  -6.669  32.200  1.00  0.00     0.168 HD
BRANCH   8  11
HETATM   11  C1  UNL     1       2.995  -5.975  32.331  1.00  0.00     0.282 C
HETATM   12  N1  UNL     1       3.280  -5.665  33.682  1.00  0.00    -0.056 NA
HETATM   13  O1  UNL     1       3.737  -6.759  31.692  1.00  0.00    -0.269 OA
ENDBRANCH   8  11
ENDBRANCH   1   4
BRANCH   2  14
HETATM   14  N4  UNL     1      -3.432  -5.704  29.306  1.00  0.00    -0.224 N
HETATM   15  C6  UNL     1      -4.490  -5.134  29.915  1.00  0.00     0.226 A
HETATM   16  N5  UNL     1      -5.609  -5.563  29.307  1.00  0.00    -0.292 N
HETATM   17  N6  UNL     1      -5.298  -6.396  28.322  1.00  0.00    -0.274 N
ATOM     18  H5  UNL     1      -6.557  -5.289  29.565  1.00  0.00     0.187 HD
HETATM   19  C7  UNL     1      -3.955  -6.473  28.333  1.00  0.00     0.213 A
ATOM     20  H6  UNL     1      -5.940  -6.876  27.690  1.00  0.00     0.189 HD
HETATM   21  S1  UNL     1      -3.032  -7.372  27.316  1.00  0.00    -0.037 SA
ENDBRANCH   2  14
TORSDOF 3
ENDMDL