MODEL 1
REMARK VINA RESULT: -7.481447320      0.000      0.000
REMARK  7 active torsions:
REMARK  status: ('A' for Active; 'I' for Inactive)
REMARK    1  A    between atoms: C7_7  and  C8_8
REMARK    2  A    between atoms: N2_11  and  C9_12
REMARK    3  A    between atoms: C9_12  and  O2_13
REMARK    4  A    between atoms: C9_12  and  C10_15
REMARK    5  A    between atoms: C10_15  and  C11_16
REMARK    6  A    between atoms: C10_15  and  C12_19
REMARK    7  A    between atoms: N4_21  and  N5_23
ROOT
HETATM    1  C1  UNL     1      38.614  11.456   0.564  1.00  0.00     0.038 C
HETATM    2  C2  UNL     1      39.873  11.987  -0.015  1.00  0.00     0.025 C
HETATM    3  C3  UNL     1      40.593  10.980  -0.864  1.00  0.00     0.038 C
HETATM    4  C4  UNL     1      40.760  12.427   1.197  1.00  0.00     0.042 C
HETATM    5  C5  UNL     1      41.650  13.356   0.446  1.00  0.00     0.058 C
HETATM    6  C6  UNL     1      42.225  14.526   1.153  1.00  0.00     0.047 C
HETATM    7  C7  UNL     1      42.571  15.449  -0.104  1.00  0.00     0.178 C
HETATM    8  N2  UNL     1      41.283  15.335  -0.775  1.00  0.00    -0.330 N
HETATM    9  C13 UNL     1      40.724  14.037  -0.529  1.00  0.00     0.083 C
HETATM   10  N6  UNL     1      39.724  13.220  -0.768  1.00  0.00    -0.371 N
ATOM     11  H6  UNL     1      38.948  13.422  -1.398  1.00  0.00     0.161 HD
ENDROOT
BRANCH   8  12
HETATM   12  C9  UNL     1      40.608  16.358  -1.510  1.00  0.00     0.243 C
BRANCH  12  13
HETATM   13  O2  UNL     1      40.477  17.514  -0.701  1.00  0.00    -0.375 OA
ATOM     14  H2  UNL     1      39.598  17.865  -0.789  1.00  0.00     0.212 HD
ENDBRANCH  12  13
BRANCH  12  15
HETATM   15  C10 UNL     1      41.075  16.757  -2.852  1.00  0.00     0.201 C
BRANCH  15  16
HETATM   16  C11 UNL     1      40.753  18.139  -3.247  1.00  0.00     0.188 C
HETATM   17  O3  UNL     1      41.232  19.161  -2.711  1.00  0.00    -0.647 OA
HETATM   18  O4  UNL     1      39.851  18.373  -4.293  1.00  0.00    -0.647 OA
ENDBRANCH  15  16
BRANCH  15  19
HETATM   19  C12 UNL     1      40.835  15.770  -3.933  1.00  0.00     0.126 C
HETATM   20  N3  UNL     1      40.009  14.643  -3.704  1.00  0.00    -0.085 NA
HETATM   21  N4  UNL     1      41.383  15.910  -5.080  1.00  0.00    -0.297 N
ATOM     22  H4  UNL     1      41.991  16.714  -5.243  1.00  0.00     0.187 HD
BRANCH  21  23
HETATM   23  N5  UNL     1      41.177  15.001  -6.112  1.00  0.00    -0.344 N
ATOM     24  H52 UNL     1      40.810  14.081  -5.872  1.00  0.00     0.176 HD
ATOM     25  H51 UNL     1      41.382  15.231  -7.084  1.00  0.00     0.176 HD
ENDBRANCH  21  23
ENDBRANCH  15  19
ENDBRANCH  12  15
ENDBRANCH   8  12
BRANCH   7  26
HETATM   26  C8  UNL     1      43.709  14.839  -0.761  1.00  0.00     0.254 C
HETATM   27  N1  UNL     1      44.850  14.514   0.018  1.00  0.00    -0.060 NA
HETATM   28  O1  UNL     1      43.765  14.572  -1.973  1.00  0.00    -0.275 OA
ENDBRANCH   7  26
TORSDOF 7
ENDMDL