MODEL 4
REMARK VINA RESULT: -7.000974087      2.546      6.944
REMARK  9 active torsions:
REMARK  status: ('A' for Active; 'I' for Inactive)
REMARK    1  A    between atoms: O1_2  and  C2_3
REMARK    2  A    between atoms: C3_4  and  O2_5
REMARK    3  A    between atoms: C4_7  and  C5_8
REMARK    4  A    between atoms: C12_19  and  C13_20
REMARK    5  A    between atoms: C13_20  and  N3_21
REMARK    6  A    between atoms: C13_20  and  N5_25
REMARK    7  A    between atoms: N5_25  and  C15_27
REMARK    8  A    between atoms: C15_27  and  N6_28
REMARK    9  A    between atoms: C15_27  and  O3_32
ROOT
HETATM    1  C2  UNL     1      41.310  13.596   0.093  1.00  0.00     0.118 A
HETATM    2  C3  UNL     1      41.360  14.992  -0.063  1.00  0.00     0.127 A
HETATM    3  C4  UNL     1      40.808  15.633  -1.151  1.00  0.00     0.069 A
HETATM    4  N2  UNL     1      40.210  14.860  -2.073  1.00  0.00    -0.363 N
ATOM      5  H2  UNL     1      39.791  15.303  -2.891  1.00  0.00     0.165 HD
HETATM    6  C11 UNL     1      40.146  13.519  -1.952  1.00  0.00     0.106 A
HETATM    7  C12 UNL     1      40.703  12.845  -0.851  1.00  0.00     0.059 A
ENDROOT
BRANCH   7   8
HETATM    8  C13 UNL     1      40.651  11.536  -0.816  1.00  0.00     0.119 C
BRANCH   8   9
HETATM    9  N3  UNL     1      41.304  10.754  -1.771  1.00  0.00    -0.340 N
HETATM   10  C14 UNL     1      42.559  10.761  -2.011  1.00  0.00     0.191 C
HETATM   11  N4  UNL     1      43.124   9.929  -2.998  1.00  0.00    -0.097 NA
ATOM     12  H3  UNL     1      40.728  10.121  -2.326  1.00  0.00     0.167 HD
ENDBRANCH   8   9
BRANCH   8  13
HETATM   13  N5  UNL     1      39.916  10.853   0.219  1.00  0.00    -0.327 N
ATOM     14  H5  UNL     1      40.347  10.760   1.139  1.00  0.00     0.165 HD
BRANCH  13  15
HETATM   15  C15 UNL     1      38.618  10.303   0.021  1.00  0.00     0.425 C
BRANCH  15  16
HETATM   16  N6  UNL     1      37.587  11.192   0.577  1.00  0.00    -0.035 N
ATOM     17  H63 UNL     1      37.459  11.042   1.578  1.00  0.00     0.279 HD
ATOM     18  H62 UNL     1      37.900  12.163   0.606  1.00  0.00     0.279 HD
ATOM     19  H61 UNL     1      36.711  11.093   0.064  1.00  0.00     0.279 HD
ENDBRANCH  15  16
BRANCH  15  20
HETATM   20  O3  UNL     1      38.290  10.119  -1.310  1.00  0.00    -0.355 OA
ATOM     21  H3  UNL     1      37.561  10.654  -1.600  1.00  0.00     0.213 HD
ENDBRANCH  15  20
ENDBRANCH  13  15
ENDBRANCH   8  13
ENDBRANCH   7   8
BRANCH   1  22
HETATM   22  O1  UNL     1      41.887  13.048   1.219  1.00  0.00    -0.352 OA
HETATM   23  C1  UNL     1      43.293  12.737   1.150  1.00  0.00     0.210 C
ENDBRANCH   1  22
BRANCH   2  24
HETATM   24  O2  UNL     1      41.980  15.762   0.893  1.00  0.00    -0.356 OA
ATOM     25  H2  UNL     1      41.828  16.700   0.914  1.00  0.00     0.218 HD
ENDBRANCH   2  24
BRANCH   3  26
HETATM   26  C5  UNL     1      40.859  16.947  -1.291  1.00  0.00     0.045 C
HETATM   27  C6  UNL     1      41.358  17.614  -2.465  1.00  0.00    -0.018 A
HETATM   28  C7  UNL     1      42.669  17.542  -2.860  1.00  0.00     0.014 A
HETATM   29  C10 UNL     1      40.494  18.361  -3.236  1.00  0.00     0.099 A
HETATM   30  C8  UNL     1      43.041  18.221  -4.005  1.00  0.00     0.018 A
HETATM   31  C9  UNL     1      42.132  18.948  -4.731  1.00  0.00     0.087 A
HETATM   32  N1  UNL     1      40.863  19.018  -4.346  1.00  0.00    -0.374 N
ATOM     33  H1  UNL     1      40.185  19.558  -4.883  1.00  0.00     0.164 HD
ENDBRANCH   3  26
TORSDOF 9
ENDMDL