MODEL 5
REMARK VINA RESULT: -6.458120971      1.343      1.381
REMARK  7 active torsions:
REMARK  status: ('A' for Active; 'I' for Inactive)
REMARK    1  A    between atoms: C2_2  and  N1_3
REMARK    2  A    between atoms: C2_2  and  C3_7
REMARK       I    between atoms: C3_7  and  N2_9
REMARK    3  A    between atoms: N2_9  and  C4_11
REMARK    4  A    between atoms: C4_11  and  C11_29
REMARK    5  A    between atoms: C5_12  and  C7_15
REMARK    6  A    between atoms: C9_22  and  N7_23
REMARK    7  A    between atoms: C11_29  and  N9_32
ROOT
HETATM    1  C4  UNL     1      42.741  13.152  -1.718  1.00  0.00     0.069 C
HETATM    2  C5  UNL     1      41.318  13.341  -1.582  1.00  0.00     0.085 C
HETATM    3  C6  UNL     1      40.646  14.093  -2.675  1.00  0.00     0.102 C
HETATM    4  N3  UNL     1      40.099  14.663  -3.520  1.00  0.00    -0.191 NA
ENDROOT
BRANCH   2   5
HETATM    5  C7  UNL     1      40.537  12.935  -0.630  1.00  0.00     0.052 A
HETATM    6  C8  UNL     1      40.279  13.444   0.600  1.00  0.00     0.126 A
HETATM    7  N4  UNL     1      39.363  12.659   1.272  1.00  0.00    -0.288 N
HETATM    8  N5  UNL     1      39.041  11.664   0.481  1.00  0.00    -0.164 N
ATOM      9  H4  UNL     1      39.003  12.822   2.212  1.00  0.00     0.188 HD
HETATM   10  N6  UNL     1      38.285  10.591   0.426  1.00  0.00    -0.109 N
HETATM   11  C10 UNL     1      39.712  11.777  -0.669  1.00  0.00     0.174 A
HETATM   12  C9  UNL     1      38.481  10.021  -0.771  1.00  0.00     0.693 A
ATOM     13  H6  UNL     1      37.663  10.254   1.160  1.00  0.00     0.208 HD
HETATM   14  N8  UNL     1      39.367  10.749  -1.462  1.00  0.00    -0.171 N
ATOM     15  H8  UNL     1      39.711  10.560  -2.404  1.00  0.00     0.186 HD
BRANCH  12  16
HETATM   16  N7  UNL     1      37.879   8.920  -1.164  1.00  0.00    -0.233 N
ATOM     17  H72 UNL     1      36.886   8.701  -1.089  1.00  0.00     0.174 HD
ATOM     18  H71 UNL     1      38.361   8.136  -1.604  1.00  0.00     0.174 HD
ENDBRANCH  12  16
ENDBRANCH   2   5
BRANCH   1  19
HETATM   19  N2  UNL     1      43.373  12.112  -0.947  1.00  0.00    -0.325 N
HETATM   20  C3  UNL     1      43.257  10.717  -1.231  1.00  0.00     0.252 C
HETATM   21  O1  UNL     1      42.579  10.285  -2.198  1.00  0.00    -0.271 OA
ATOM     22  H2  UNL     1      43.940  12.389  -0.146  1.00  0.00     0.168 HD
BRANCH  20  23
HETATM   23  C2  UNL     1      43.946   9.735  -0.377  1.00  0.00     0.271 C
HETATM   24  C1  UNL     1      45.009  10.380   0.487  1.00  0.00     0.050 C
BRANCH  23  25
HETATM   25  N1  UNL     1      44.525   8.650  -1.108  1.00  0.00    -0.067 N
ATOM     26  H13 UNL     1      45.375   8.925  -1.598  1.00  0.00     0.275 HD
ATOM     27  H12 UNL     1      44.933   7.945  -0.495  1.00  0.00     0.275 HD
ATOM     28  H11 UNL     1      43.826   8.257  -1.738  1.00  0.00     0.275 HD
ENDBRANCH  23  25
ENDBRANCH  20  23
ENDBRANCH   1  19
BRANCH   1  29
HETATM   29  C11 UNL     1      43.618  14.351  -1.690  1.00  0.00     0.160 C
HETATM   30  C12 UNL     1      43.966  14.959  -3.021  1.00  0.00     0.052 C
HETATM   31  C13 UNL     1      44.972  13.981  -1.057  1.00  0.00     0.052 C
BRANCH  29  32
HETATM   32  N9  UNL     1      43.095  15.394  -0.787  1.00  0.00    -0.066 N
ATOM     33  H93 UNL     1      42.265  15.072  -0.289  1.00  0.00     0.275 HD
ATOM     34  H92 UNL     1      43.714  15.539   0.011  1.00  0.00     0.275 HD
ATOM     35  H91 UNL     1      42.915  16.269  -1.281  1.00  0.00     0.275 HD
ENDBRANCH  29  32
ENDBRANCH   1  29
TORSDOF 7
ENDMDL