MODEL 5
REMARK VINA RESULT: -6.117896190      2.307      4.990
REMARK  8 active torsions:
REMARK  status: ('A' for Active; 'I' for Inactive)
REMARK    1  A    between atoms: O1_2  and  C2_3
REMARK    2  A    between atoms: C3_4  and  N1_5
REMARK    3  A    between atoms: C4_9  and  O2_10
REMARK    4  A    between atoms: C6_12  and  N2_13
REMARK       I    between atoms: N2_13  and  C8_15
REMARK    5  A    between atoms: C9_18  and  C10_19
REMARK    6  A    between atoms: C10_19  and  O4_20
REMARK    7  A    between atoms: C10_19  and  C11_22
REMARK    8  A    between atoms: C11_22  and  O5_24
ROOT
HETATM    1  C2  UNL     1      41.251  13.986  -1.469  1.00  0.00     0.172 C
HETATM    2  C3  UNL     1      42.329  13.878  -0.442  1.00  0.00     0.247 C
HETATM    3  C4  UNL     1      43.574  14.661  -0.613  1.00  0.00     0.200 C
HETATM    4  C6  UNL     1      43.664  15.621  -1.740  1.00  0.00     0.032 C
HETATM    5  C9  UNL     1      42.307  16.096  -2.282  1.00  0.00     0.086 C
HETATM    6  C13 UNL     1      41.641  14.826  -2.652  1.00  0.00     0.136 C
HETATM    7  C14 UNL     1      40.630  14.915  -3.658  1.00  0.00     0.067 C
HETATM    8  N4  UNL     1      39.819  14.961  -4.514  1.00  0.00    -0.197 NA
ENDROOT
BRANCH   1   9
HETATM    9  O1  UNL     1      40.933  12.724  -1.967  1.00  0.00    -0.387 OA
HETATM   10  C1  UNL     1      39.811  12.168  -1.375  1.00  0.00     0.202 C
ENDBRANCH   1   9
BRANCH   5  11
HETATM   11  C10 UNL     1      41.638  17.139  -1.543  1.00  0.00     0.157 C
BRANCH  11  12
HETATM   12  O4  UNL     1      40.749  16.851  -0.551  1.00  0.00    -0.392 OA
ATOM     13  H4  UNL     1      39.812  16.845  -0.711  1.00  0.00     0.210 HD
ENDBRANCH  11  12
BRANCH  11  14
HETATM   14  C11 UNL     1      41.046  18.319  -2.313  1.00  0.00     0.143 C
HETATM   15  C12 UNL     1      41.785  18.635  -3.589  1.00  0.00     0.042 C
BRANCH  14  16
HETATM   16  O5  UNL     1      39.754  17.920  -2.807  1.00  0.00    -0.393 OA
ATOM     17  H5  UNL     1      39.603  18.373  -3.628  1.00  0.00     0.210 HD
ENDBRANCH  14  16
ENDBRANCH  11  14
ENDBRANCH   5  11
BRANCH   2  18
HETATM   18  N1  UNL     1      42.604  12.459  -0.209  1.00  0.00    -0.070 N
ATOM     19  H13 UNL     1      43.560  12.291   0.105  1.00  0.00     0.274 HD
ATOM     20  H12 UNL     1      42.121  12.096   0.614  1.00  0.00     0.274 HD
ATOM     21  H11 UNL     1      42.374  11.943  -1.058  1.00  0.00     0.274 HD
ENDBRANCH   2  18
BRANCH   4  22
HETATM   22  N2  UNL     1      44.725  16.528  -1.743  1.00  0.00    -0.311 N
HETATM   23  C7  UNL     1      45.840  16.174  -2.699  1.00  0.00     0.160 C
HETATM   24  C8  UNL     1      44.961  17.699  -1.041  1.00  0.00     0.334 C
HETATM   25  N3  UNL     1      46.172  18.453  -1.315  1.00  0.00    -0.040 NA
HETATM   26  O3  UNL     1      44.228  18.189  -0.180  1.00  0.00    -0.251 OA
ENDBRANCH   4  22
BRANCH   3  27
HETATM   27  O2  UNL     1      44.026  15.175   0.627  1.00  0.00    -0.383 OA
HETATM   28  C5  UNL     1      43.034  15.369   1.550  1.00  0.00     0.202 C
ENDBRANCH   3  27
TORSDOF 8
ENDMDL