MODEL 3
REMARK VINA RESULT: -6.757544749      2.215      5.862
REMARK  6 active torsions:
REMARK  status: ('A' for Active; 'I' for Inactive)
REMARK       I    between atoms: C1_4  and  N3_6
REMARK       I    between atoms: N3_6  and  C2_8
REMARK    1  A    between atoms: C2_8  and  C3_10
REMARK    2  A    between atoms: C4_14  and  C5_15
REMARK    3  A    between atoms: C5_15  and  C6_16
REMARK    4  A    between atoms: C6_16  and  N5_17
REMARK    5  A    between atoms: C6_16  and  C7_21
REMARK    6  A    between atoms: C7_21  and  N7_25
ROOT
HETATM    1  C3  UNL     1      40.527  10.210   0.324  1.00  0.00     0.182 A
HETATM    2  N4  UNL     1      41.069   9.108   0.855  1.00  0.00    -0.306 N
ATOM      3  H4  UNL     1      40.746   8.143   0.786  1.00  0.00     0.176 HD
HETATM    4  S1  UNL     1      42.416   9.710   1.665  1.00  0.00     0.001 SA
HETATM    5  C4  UNL     1      42.218  11.358   1.282  1.00  0.00     0.071 A
HETATM    6  N8  UNL     1      41.118  11.342   0.548  1.00  0.00    -0.334 N
ATOM      7  H8  UNL     1      40.740  12.209   0.163  1.00  0.00     0.168 HD
ENDROOT
BRANCH   5   8
HETATM    8  C5  UNL     1      43.048  12.565   1.653  1.00  0.00     0.107 C
BRANCH   8   9
HETATM    9  C6  UNL     1      43.080  13.438   0.414  1.00  0.00     0.256 C
BRANCH   9  10
HETATM   10  N5  UNL     1      44.235  13.079  -0.349  1.00  0.00    -0.068 N
ATOM     11  H53 UNL     1      45.098  13.138   0.190  1.00  0.00     0.275 HD
ATOM     12  H52 UNL     1      44.273  12.082  -0.561  1.00  0.00     0.275 HD
ATOM     13  H51 UNL     1      44.252  13.661  -1.186  1.00  0.00     0.275 HD
ENDBRANCH   9  10
BRANCH   9  14
HETATM   14  C7  UNL     1      42.985  14.866   0.718  1.00  0.00     0.104 C
HETATM   15  N6  UNL     1      43.317  15.306   1.883  1.00  0.00    -0.387 N
ATOM     16  H62 UNL     1      43.643  14.628   2.573  1.00  0.00     0.157 HD
ATOM     17  H61 UNL     1      43.251  16.302   2.095  1.00  0.00     0.157 HD
BRANCH  14  18
HETATM   18  N7  UNL     1      42.533  15.809  -0.240  1.00  0.00    -0.365 N
HETATM   19  C8  UNL     1      42.921  17.203  -0.149  1.00  0.00     0.150 C
HETATM   20  C9  UNL     1      41.938  18.018  -0.935  1.00  0.00     0.187 C
HETATM   21  O2  UNL     1      40.649  17.537  -0.767  1.00  0.00    -0.388 OA
HETATM   22  C10 UNL     1      40.451  16.326  -1.426  1.00  0.00     0.187 C
HETATM   23  C11 UNL     1      41.672  15.437  -1.346  1.00  0.00     0.150 C
ENDBRANCH  14  18
ENDBRANCH   9  14
ENDBRANCH   8   9
ENDBRANCH   5   8
BRANCH   1  24
HETATM   24  C2  UNL     1      39.287  10.124  -0.493  1.00  0.00     0.292 C
HETATM   25  N3  UNL     1      38.641   8.882  -0.699  1.00  0.00    -0.295 N
HETATM   26  C1  UNL     1      37.470   8.831  -1.477  1.00  0.00     0.188 C
ATOM     27  H3  UNL     1      39.022   8.030  -0.288  1.00  0.00     0.171 HD
HETATM   28  N1  UNL     1      36.892   7.695  -1.658  1.00  0.00    -0.373 N
HETATM   29  N2  UNL     1      36.882   9.976  -2.082  1.00  0.00    -0.064 NA
ATOM     30  H12 UNL     1      36.043   7.659  -2.221  1.00  0.00     0.158 HD
ATOM     31  H11 UNL     1      37.314   6.874  -1.224  1.00  0.00     0.158 HD
HETATM   32  O1  UNL     1      38.790  11.153  -1.016  1.00  0.00    -0.264 OA
ENDBRANCH   1  24
TORSDOF 6
ENDMDL