MODEL 2
REMARK VINA RESULT: -7.586534187      2.418      2.456
REMARK  7 active torsions:
REMARK  status: ('A' for Active; 'I' for Inactive)
REMARK    1  A    between atoms: C5_14  and  C6_15
REMARK       I    between atoms: C6_15  and  N5_17
REMARK    2  A    between atoms: N5_17  and  C7_19
REMARK    3  A    between atoms: N10_27  and  C8_28
REMARK    4  A    between atoms: C8_28  and  C9_29
REMARK    5  A    between atoms: C9_29  and  N11_30
REMARK    6  A    between atoms: C9_29  and  C10_34
REMARK    7  A    between atoms: C10_34  and  C11_35
ROOT
HETATM    1  N1  UNL     1      44.282   9.090  -4.028  1.00  0.00    -0.383 N
ATOM      2  H11 UNL     1      43.522   8.524  -3.648  1.00  0.00     0.157 HD
ATOM      3  H12 UNL     1      44.983   8.614  -4.595  1.00  0.00     0.157 HD
HETATM    4  C1  UNL     1      44.316  10.348  -3.779  1.00  0.00     0.131 A
HETATM    5  N2  UNL     1      45.312  11.092  -4.278  1.00  0.00    -0.337 N
ATOM      6  H2  UNL     1      46.035  10.654  -4.850  1.00  0.00     0.168 HD
HETATM    7  C2  UNL     1      45.365  12.417  -4.026  1.00  0.00     0.183 A
HETATM    8  N3  UNL     1      44.416  13.032  -3.266  1.00  0.00    -0.336 N
ATOM      9  H3  UNL     1      44.482  14.036  -3.095  1.00  0.00     0.168 HD
HETATM   10  C3  UNL     1      43.396  12.340  -2.738  1.00  0.00     0.141 A
HETATM   11  C4  UNL     1      43.360  10.997  -3.006  1.00  0.00     0.122 A
HETATM   12  N4  UNL     1      42.284  10.515  -2.421  1.00  0.00    -0.332 N
ATOM     13  H4  UNL     1      41.985   9.540  -2.439  1.00  0.00     0.168 HD
HETATM   14  C5  UNL     1      41.631  11.540  -1.781  1.00  0.00     0.180 A
HETATM   15  N10 UNL     1      42.326  12.682  -1.974  1.00  0.00    -0.311 N
ENDROOT
BRANCH  14  16
HETATM   16  C6  UNL     1      40.382  11.294  -1.091  1.00  0.00     0.304 C
HETATM   17  O1  UNL     1      39.321  11.819  -1.442  1.00  0.00    -0.263 OA
HETATM   18  N5  UNL     1      40.365  10.420   0.033  1.00  0.00    -0.150 N
ATOM     19  H5  UNL     1      40.686  10.730   0.951  1.00  0.00     0.188 HD
BRANCH  18  20
HETATM   20  C7  UNL     1      39.931   9.224  -0.155  1.00  0.00     0.713 A
HETATM   21  N6  UNL     1      40.378   8.040   0.257  1.00  0.00    -0.113 N
HETATM   22  N7  UNL     1      39.599   7.067  -0.186  1.00  0.00     0.009 NA
ATOM     23  H6  UNL     1      41.207   7.903   0.835  1.00  0.00     0.203 HD
HETATM   24  N8  UNL     1      38.648   7.664  -0.888  1.00  0.00    -0.212 N
HETATM   25  N9  UNL     1      38.819   8.961  -0.888  1.00  0.00    -0.118 N
ATOM     26  H8  UNL     1      37.887   7.179  -1.364  1.00  0.00     0.206 HD
ATOM     27  H9  UNL     1      38.227   9.648  -1.354  1.00  0.00     0.207 HD
ENDBRANCH  18  20
ENDBRANCH  14  16
BRANCH  15  28
HETATM   28  C8  UNL     1      42.022  13.997  -1.477  1.00  0.00     0.165 C
BRANCH  28  29
HETATM   29  C9  UNL     1      41.085  14.830  -2.248  1.00  0.00     0.211 C
BRANCH  29  30
HETATM   30  N11 UNL     1      39.692  14.786  -1.870  1.00  0.00    -0.073 N
ATOM     31 3H11 UNL     1      39.612  14.901  -0.860  1.00  0.00     0.274 HD
ATOM     32 2H11 UNL     1      39.227  15.633  -2.197  1.00  0.00     0.274 HD
ATOM     33 1H11 UNL     1      39.153  13.970  -2.160  1.00  0.00     0.274 HD
ENDBRANCH  29  30
BRANCH  29  34
HETATM   34  C10 UNL     1      41.496  16.259  -2.512  1.00  0.00     0.147 C
BRANCH  34  35
HETATM   35  C11 UNL     1      40.502  17.191  -1.863  1.00  0.00     0.174 C
HETATM   36  O2  UNL     1      40.569  17.442  -0.630  1.00  0.00    -0.648 OA
HETATM   37  O3  UNL     1      39.522  17.758  -2.667  1.00  0.00    -0.648 OA
ENDBRANCH  34  35
ENDBRANCH  29  34
ENDBRANCH  28  29
ENDBRANCH  15  28
TORSDOF 7
ENDMDL