MODEL 3
REMARK VINA RESULT: -6.591127447      2.337      3.039
REMARK  8 active torsions:
REMARK  status: ('A' for Active; 'I' for Inactive)
REMARK    1  A    between atoms: C2_2  and  C5_5
REMARK    2  A    between atoms: C5_5  and  N1_6
REMARK    3  A    between atoms: C5_5  and  C6_10
REMARK    4  A    between atoms: C6_10  and  N2_11
REMARK    5  A    between atoms: C6_10  and  C7_15
REMARK       I    between atoms: C7_15  and  N3_17
REMARK    6  A    between atoms: N3_17  and  C8_19
REMARK    7  A    between atoms: C9_24  and  S1_25
REMARK    8  A    between atoms: S1_25  and  N6_26
ROOT
HETATM    1  C7  UNL     1      39.834  12.884  -0.066  1.00  0.00     0.256 C
HETATM    2  O1  UNL     1      38.808  13.350   0.474  1.00  0.00    -0.271 OA
HETATM    3  N3  UNL     1      40.846  13.731  -0.493  1.00  0.00    -0.304 N
ATOM      4  H3  UNL     1      41.788  13.531  -0.157  1.00  0.00     0.171 HD
ENDROOT
BRANCH   1   5
HETATM    5  C6  UNL     1      39.947  11.423  -0.240  1.00  0.00     0.305 C
BRANCH   5   6
HETATM    6  C5  UNL     1      40.577  10.702   0.911  1.00  0.00     0.230 C
BRANCH   6   7
HETATM    7  C2  UNL     1      42.057  10.643   0.927  1.00  0.00    -0.021 C
HETATM    8  C1  UNL     1      42.434   9.415   1.772  1.00  0.00     0.016 C
HETATM    9  C3  UNL     1      42.685  11.823   1.664  1.00  0.00     0.016 C
HETATM   10  C4  UNL     1      42.733  10.472  -0.391  1.00  0.00     0.016 C
ENDBRANCH   6   7
BRANCH   6  11
HETATM   11  N1  UNL     1      39.987   9.410   1.041  1.00  0.00    -0.072 N
ATOM     12  H13 UNL     1      40.584   8.689   0.635  1.00  0.00     0.274 HD
ATOM     13  H12 UNL     1      39.993   9.097   2.011  1.00  0.00     0.274 HD
ATOM     14  H11 UNL     1      39.047   9.375   0.647  1.00  0.00     0.274 HD
ENDBRANCH   6  11
ENDBRANCH   5   6
BRANCH   5  15
HETATM   15  N2  UNL     1      38.716  10.813  -0.706  1.00  0.00    -0.064 N
ATOM     16  H23 UNL     1      38.831  10.444  -1.650  1.00  0.00     0.275 HD
ATOM     17  H22 UNL     1      38.532   9.944  -0.205  1.00  0.00     0.275 HD
ATOM     18  H21 UNL     1      37.908  11.434  -0.658  1.00  0.00     0.275 HD
ENDBRANCH   5  15
ENDBRANCH   1   5
BRANCH   3  19
HETATM   19  C8  UNL     1      40.707  14.749  -1.275  1.00  0.00     0.168 A
HETATM   20  N4  UNL     1      39.698  15.099  -2.075  1.00  0.00    -0.278 N
HETATM   21  N5  UNL     1      39.796  16.164  -2.758  1.00  0.00    -0.281 N
ATOM     22  H4  UNL     1      38.861  14.519  -2.138  1.00  0.00     0.189 HD
HETATM   23  C9  UNL     1      40.881  16.917  -2.680  1.00  0.00     0.208 A
ATOM     24  H5  UNL     1      39.032  16.442  -3.372  1.00  0.00     0.188 HD
HETATM   25  S2  UNL     1      41.815  16.024  -1.545  1.00  0.00    -0.020 SA
BRANCH  23  26
HETATM   26  S1  UNL     1      41.253  18.428  -3.520  1.00  0.00     0.280 S
HETATM   27  O2  UNL     1      40.013  18.749  -4.343  1.00  0.00    -0.199 OA
HETATM   28  O3  UNL     1      41.551  19.529  -2.578  1.00  0.00    -0.199 OA
BRANCH  26  29
HETATM   29  N6  UNL     1      42.527  18.096  -4.616  1.00  0.00    -0.323 N
ATOM     30  H62 UNL     1      43.387  17.592  -4.394  1.00  0.00     0.169 HD
ATOM     31  H61 UNL     1      42.261  18.494  -5.516  1.00  0.00     0.169 HD
ENDBRANCH  26  29
ENDBRANCH  23  26
ENDBRANCH   3  19
TORSDOF 8
ENDMDL