MODEL 1
REMARK VINA RESULT: -7.954362792      0.000      0.000
REMARK  10 active torsions:
REMARK  status: ('A' for Active; 'I' for Inactive)
REMARK    1  A    between atoms: C1_4  and  O1_5
REMARK    2  A    between atoms: C1_4  and  N2_7
REMARK    3  A    between atoms: N2_7  and  N3_9
REMARK       I    between atoms: N3_9  and  C2_11
REMARK    4  A    between atoms: C2_11  and  C3_13
REMARK    5  A    between atoms: C3_13  and  C4_14
REMARK    6  A    between atoms: C4_14  and  C5_15
REMARK    7  A    between atoms: C5_15  and  O3_16
REMARK    8  A    between atoms: N4_18  and  C6_20
REMARK    9  A    between atoms: C7_25  and  S1_26
REMARK   10  A    between atoms: S1_26  and  N7_27
ROOT
HETATM    1  C5  UNL     1      41.503  12.217   0.609  1.00  0.00     0.117 C
HETATM    2  N4  UNL     1      41.797  13.414   0.050  1.00  0.00    -0.320 N
ATOM      3  H4  UNL     1      42.548  13.918   0.521  1.00  0.00     0.169 HD
ENDROOT
BRANCH   1   4
HETATM    4  C4  UNL     1      40.472  11.267   0.154  1.00  0.00     0.093 C
BRANCH   4   5
HETATM    5  C3  UNL     1      39.127  11.738   0.700  1.00  0.00     0.112 C
BRANCH   5   6
HETATM    6  C2  UNL     1      38.020  10.990   0.024  1.00  0.00     0.236 C
HETATM    7  N3  UNL     1      38.289  10.335  -1.198  1.00  0.00    -0.267 N
ATOM      8  H3  UNL     1      39.222  10.374  -1.610  1.00  0.00     0.190 HD
HETATM    9  O2  UNL     1      36.877  10.949   0.541  1.00  0.00    -0.272 OA
BRANCH   7  10
HETATM   10  N2  UNL     1      37.256   9.628  -1.842  1.00  0.00    -0.263 N
ATOM     11  H2  UNL     1      36.565  10.121  -2.407  1.00  0.00     0.190 HD
BRANCH  10  12
HETATM   12  C1  UNL     1      37.191   8.219  -1.695  1.00  0.00     0.229 C
HETATM   13  N1  UNL     1      38.213   7.571  -1.244  1.00  0.00    -0.364 N
ATOM     14  H12 UNL     1      38.165   6.558  -1.138  1.00  0.00     0.159 HD
ATOM     15  H11 UNL     1      39.063   8.076  -0.995  1.00  0.00     0.159 HD
BRANCH  12  16
HETATM   16  O1  UNL     1      36.048   7.540  -2.029  1.00  0.00    -0.332 OA
ATOM     17  H1  UNL     1      35.224   8.009  -2.100  1.00  0.00     0.221 HD
ENDBRANCH  12  16
ENDBRANCH  10  12
ENDBRANCH   7  10
ENDBRANCH   5   6
ENDBRANCH   4   5
ENDBRANCH   1   4
BRANCH   1  18
HETATM   18  O3  UNL     1      42.212  11.888   1.654  1.00  0.00    -0.349 OA
ATOM     19  H3  UNL     1      43.159  11.896   1.565  1.00  0.00     0.219 HD
ENDBRANCH   1  18
BRANCH   2  20
HETATM   20  C6  UNL     1      41.315  14.028  -0.950  1.00  0.00     0.167 A
HETATM   21  N5  UNL     1      40.313  14.879  -1.151  1.00  0.00    -0.278 N
HETATM   22  N6  UNL     1      40.085  15.327  -2.319  1.00  0.00    -0.281 N
ATOM     23  H5  UNL     1      39.727  15.172  -0.368  1.00  0.00     0.189 HD
HETATM   24  C7  UNL     1      40.830  14.961  -3.338  1.00  0.00     0.208 A
ATOM     25  H6  UNL     1      39.314  15.979  -2.467  1.00  0.00     0.188 HD
HETATM   26  S2  UNL     1      41.932  13.907  -2.601  1.00  0.00    -0.020 SA
BRANCH  24  27
HETATM   27  S1  UNL     1      40.650  15.485  -5.012  1.00  0.00     0.280 S
HETATM   28  O4  UNL     1      39.434  14.772  -5.550  1.00  0.00    -0.199 OA
HETATM   29  O5  UNL     1      40.503  16.965  -5.108  1.00  0.00    -0.199 OA
BRANCH  27  30
HETATM   30  N7  UNL     1      42.066  14.983  -5.886  1.00  0.00    -0.323 N
ATOM     31  H72 UNL     1      42.225  14.049  -6.263  1.00  0.00     0.169 HD
ATOM     32  H71 UNL     1      42.696  15.783  -5.951  1.00  0.00     0.169 HD
ENDBRANCH  27  30
ENDBRANCH  24  27
ENDBRANCH   2  20
TORSDOF 10
ENDMDL