MODEL 5
REMARK VINA RESULT: -6.552038952      3.056      5.107
REMARK  6 active torsions:
REMARK  status: ('A' for Active; 'I' for Inactive)
REMARK    1  A    between atoms: C2_3  and  N2_4
REMARK    2  A    between atoms: C2_3  and  N3_8
REMARK    3  A    between atoms: C2_3  and  C12_29
REMARK       I    between atoms: N3_8  and  C3_10
REMARK    4  A    between atoms: C3_10  and  C4_12
REMARK    5  A    between atoms: C5_13  and  N4_14
REMARK    6  A    between atoms: C11_25  and  N7_26
ROOT
HETATM    1  N1  UNL     1      43.914  15.158  -2.193  1.00  0.00    -0.192 NA
HETATM    2  C1  UNL     1      43.083  14.858  -1.444  1.00  0.00     0.131 C
HETATM    3  C2  UNL     1      42.032  14.452  -0.481  1.00  0.00     0.364 C
ENDROOT
BRANCH   3   4
HETATM    4  N2  UNL     1      42.503  14.670   0.859  1.00  0.00    -0.030 N
ATOM      5  H23 UNL     1      43.420  15.116   0.878  1.00  0.00     0.279 HD
ATOM      6  H22 UNL     1      41.977  15.400   1.340  1.00  0.00     0.279 HD
ATOM      7  H21 UNL     1      42.493  13.787   1.368  1.00  0.00     0.279 HD
ENDBRANCH   3   4
BRANCH   3   8
HETATM    8  N3  UNL     1      41.632  13.082  -0.752  1.00  0.00    -0.305 N
HETATM    9  C3  UNL     1      41.173  12.232   0.269  1.00  0.00     0.262 C
HETATM   10  O1  UNL     1      41.164  12.774   1.445  1.00  0.00    -0.267 OA
ATOM     11  H3  UNL     1      41.685  12.728  -1.707  1.00  0.00     0.166 HD
BRANCH   9  12
HETATM   12  C4  UNL     1      40.730  10.872   0.171  1.00  0.00     0.119 A
HETATM   13  C5  UNL     1      41.667   9.906  -0.131  1.00  0.00     0.124 A
HETATM   14  N5  UNL     1      41.283   8.600  -0.172  1.00  0.00    -0.338 N
HETATM   15  C10 UNL     1      40.015   8.239   0.074  1.00  0.00     0.183 A
ATOM     16  H5  UNL     1      41.973   7.883  -0.394  1.00  0.00     0.168 HD
HETATM   17  N6  UNL     1      39.119   9.184   0.364  1.00  0.00    -0.338 N
HETATM   18  C11 UNL     1      39.428  10.524   0.427  1.00  0.00     0.119 A
ATOM     19  H6  UNL     1      38.157   8.899   0.549  1.00  0.00     0.168 HD
BRANCH  13  20
HETATM   20  N4  UNL     1      42.984  10.262  -0.436  1.00  0.00    -0.362 N
HETATM   21  C6  UNL     1      43.379  10.213  -1.854  1.00  0.00     0.150 C
HETATM   22  C7  UNL     1      44.448   9.100  -1.871  1.00  0.00     0.187 C
HETATM   23  O2  UNL     1      45.465   9.537  -1.044  1.00  0.00    -0.388 OA
HETATM   24  C8  UNL     1      45.143   9.621   0.288  1.00  0.00     0.187 C
HETATM   25  C9  UNL     1      44.018  10.656   0.472  1.00  0.00     0.150 C
ENDBRANCH  13  20
BRANCH  18  26
HETATM   26  N7  UNL     1      38.528  11.326   0.768  1.00  0.00    -0.385 N
ATOM     27  H72 UNL     1      38.585  11.753   1.693  1.00  0.00     0.157 HD
ATOM     28  H71 UNL     1      37.760  11.627   0.169  1.00  0.00     0.157 HD
ENDBRANCH  18  26
ENDBRANCH   9  12
ENDBRANCH   3   8
BRANCH   3  29
HETATM   29  C12 UNL     1      40.911  15.406  -0.720  1.00  0.00     0.303 C
HETATM   30  N8  UNL     1      39.761  15.082  -1.442  1.00  0.00    -0.057 NA
HETATM   31  O3  UNL     1      41.013  16.558  -0.243  1.00  0.00    -0.271 OA
ENDBRANCH   3  29
TORSDOF 6
ENDMDL