MODEL 3
REMARK VINA RESULT: -6.924065342      3.900      7.884
REMARK  8 active torsions:
REMARK  status: ('A' for Active; 'I' for Inactive)
REMARK    1  A    between atoms: N3_8  and  C4_10
REMARK    2  A    between atoms: C6_14  and  C7_15
REMARK       I    between atoms: C7_15  and  N5_17
REMARK    3  A    between atoms: N5_17  and  C8_19
REMARK    4  A    between atoms: C8_19  and  C9_20
REMARK    5  A    between atoms: C8_19  and  C10_23
REMARK    6  A    between atoms: C9_20  and  O2_21
REMARK    7  A    between atoms: C10_23  and  O3_24
REMARK    8  A    between atoms: N6_26  and  N7_28
ROOT
HETATM    1  C4  UNL     1      42.427  15.184  -1.375  1.00  0.00     0.079 C
HETATM    2  N4  UNL     1      42.826  15.366  -0.170  1.00  0.00    -0.379 N
ATOM      3  H4  UNL     1      43.543  16.037   0.105  1.00  0.00     0.160 HD
HETATM    4  C5  UNL     1      42.121  14.490   0.752  1.00  0.00     0.135 C
HETATM    5  C6  UNL     1      40.836  14.228  -0.002  1.00  0.00     0.102 C
HETATM    6  C11 UNL     1      41.368  14.131  -1.430  1.00  0.00     0.092 C
ENDROOT
BRANCH   5   7
HETATM    7  C7  UNL     1      40.155  13.011   0.427  1.00  0.00     0.224 C
HETATM    8  O1  UNL     1      39.100  13.140   1.128  1.00  0.00    -0.273 OA
HETATM    9  N5  UNL     1      40.607  11.705   0.101  1.00  0.00    -0.346 N
ATOM     10  H5  UNL     1      41.452  11.603  -0.461  1.00  0.00     0.163 HD
BRANCH   9  11
HETATM   11  C8  UNL     1      39.918  10.526   0.535  1.00  0.00     0.184 C
BRANCH  11  12
HETATM   12  C9  UNL     1      40.798   9.298   0.427  1.00  0.00     0.197 C
BRANCH  12  13
HETATM   13  O2  UNL     1      40.092   8.135   0.620  1.00  0.00    -0.398 OA
ATOM     14  H2  UNL     1      40.605   7.475   1.073  1.00  0.00     0.209 HD
ENDBRANCH  12  13
ENDBRANCH  11  12
BRANCH  11  15
HETATM   15  C10 UNL     1      38.664  10.276  -0.178  1.00  0.00     0.155 C
HETATM   16  N6  UNL     1      38.577   9.567  -1.259  1.00  0.00    -0.288 N
ATOM     17  H6  UNL     1      39.430   9.158  -1.641  1.00  0.00     0.188 HD
BRANCH  15  18
HETATM   18  O3  UNL     1      37.490  10.819   0.316  1.00  0.00    -0.347 OA
ATOM     19  H3  UNL     1      36.703  10.287   0.324  1.00  0.00     0.219 HD
ENDBRANCH  15  18
BRANCH  16  20
HETATM   20  N7  UNL     1      37.389   9.341  -1.920  1.00  0.00    -0.343 N
ATOM     21  H72 UNL     1      37.444   8.960  -2.865  1.00  0.00     0.176 HD
ATOM     22  H71 UNL     1      36.475   9.535  -1.510  1.00  0.00     0.176 HD
ENDBRANCH  16  20
ENDBRANCH  11  15
ENDBRANCH   9  11
ENDBRANCH   5   7
BRANCH   1  23
HETATM   23  N3  UNL     1      42.906  15.876  -2.520  1.00  0.00    -0.325 N
HETATM   24  C3  UNL     1      42.172  16.791  -3.114  1.00  0.00     0.166 A
HETATM   25  N2  UNL     1      40.945  17.214  -2.788  1.00  0.00    -0.279 N
HETATM   26  S1  UNL     1      42.512  17.752  -4.485  1.00  0.00    -0.038 SA
HETATM   27  N1  UNL     1      40.403  18.116  -3.494  1.00  0.00    -0.296 N
ATOM     28  H2  UNL     1      40.455  16.817  -1.986  1.00  0.00     0.189 HD
HETATM   29  C2  UNL     1      41.045  18.626  -4.534  1.00  0.00     0.066 A
ATOM     30  H1  UNL     1      39.468  18.450  -3.260  1.00  0.00     0.187 HD
HETATM   31  C1  UNL     1      40.547  19.696  -5.473  1.00  0.00     0.078 C
ATOM     32  H3  UNL     1      43.832  15.658  -2.887  1.00  0.00     0.169 HD
ENDBRANCH   1  23
TORSDOF 8
ENDMDL