MODEL 3
REMARK VINA RESULT: -7.142563642      5.182      8.549
REMARK  8 active torsions:
REMARK  status: ('A' for Active; 'I' for Inactive)
REMARK       I    between atoms: N1_2  and  C2_4
REMARK    1  A    between atoms: C2_4  and  C3_6
REMARK    2  A    between atoms: C4_10  and  C6_12
REMARK    3  A    between atoms: C6_12  and  C7_13
REMARK    4  A    between atoms: C7_13  and  C8_14
REMARK    5  A    between atoms: C8_14  and  N3_15
REMARK    6  A    between atoms: N3_15  and  C9_17
REMARK    7  A    between atoms: C9_17  and  C10_18
REMARK    8  A    between atoms: C10_18  and  O2_21
ROOT
HETATM    1  C3  UNL     1      36.186  38.519  12.839  1.00  0.00     0.300 C
HETATM    2  N2  UNL     1      36.499  39.578  13.778  1.00  0.00    -0.051 N
ATOM      3  H21 UNL     1      37.478  39.536  14.062  1.00  0.00     0.279 HD
ATOM      4  H22 UNL     1      36.056  39.408  14.681  1.00  0.00     0.279 HD
HETATM    5  C4  UNL     1      36.162  40.894  13.277  1.00  0.00     0.136 C
HETATM    6  C5  UNL     1      37.052  41.858  13.991  1.00  0.00     0.047 C
HETATM    7  C13 UNL     1      36.522  41.023  11.801  1.00  0.00     0.179 C
HETATM    8  S1  UNL     1      37.762  39.913  11.279  1.00  0.00     0.157 S
HETATM    9  O3  UNL     1      39.141  40.401  11.664  1.00  0.00    -0.227 OA
HETATM   10  O4  UNL     1      37.800  39.753   9.779  1.00  0.00    -0.227 OA
HETATM   11  C14 UNL     1      37.470  38.337  12.043  1.00  0.00     0.094 C
HETATM   12  C15 UNL     1      37.402  37.235  11.025  1.00  0.00     0.034 C
HETATM   13  C16 UNL     1      38.615  38.068  13.009  1.00  0.00     0.034 C
ENDROOT
BRANCH   5  14
HETATM   14  C6  UNL     1      34.695  41.132  13.373  1.00  0.00     0.041 C
BRANCH  14  15
HETATM   15  C7  UNL     1      34.048  41.292  14.670  1.00  0.00     0.022 C
BRANCH  15  16
HETATM   16  C8  UNL     1      33.401  40.070  15.299  1.00  0.00     0.119 C
BRANCH  16  17
HETATM   17  N3  UNL     1      32.423  40.498  16.275  1.00  0.00    -0.399 N
ATOM     18  H3  UNL     1      32.614  40.410  17.274  1.00  0.00     0.158 HD
BRANCH  17  19
HETATM   19  C9  UNL     1      31.214  41.034  15.828  1.00  0.00     0.092 C
BRANCH  19  20
HETATM   20  C10 UNL     1      29.926  40.358  16.111  1.00  0.00     0.082 C
HETATM   21  C11 UNL     1      29.266  40.709  17.406  1.00  0.00     0.051 C
HETATM   22  C12 UNL     1      29.030  40.494  14.905  1.00  0.00     0.051 C
BRANCH  20  23
HETATM   23  O2  UNL     1      30.256  38.963  16.237  1.00  0.00    -0.385 OA
ATOM     24  H2  UNL     1      29.765  38.661  16.993  1.00  0.00     0.211 HD
ENDBRANCH  20  23
ENDBRANCH  19  20
ENDBRANCH  17  19
ENDBRANCH  16  17
ENDBRANCH  15  16
ENDBRANCH  14  15
ENDBRANCH   5  14
BRANCH   1  25
HETATM   25  C2  UNL     1      35.838  37.320  13.645  1.00  0.00     0.249 C
HETATM   26  N1  UNL     1      35.564  36.038  13.109  1.00  0.00    -0.364 N
HETATM   27  C1  UNL     1      35.230  34.889  13.921  1.00  0.00     0.149 C
ATOM     28  H1  UNL     1      35.604  35.919  12.097  1.00  0.00     0.161 HD
HETATM   29  O1  UNL     1      35.763  37.387  14.921  1.00  0.00    -0.271 OA
ENDBRANCH   1  25
TORSDOF 8
ENDMDL