MODEL 4
REMARK VINA RESULT: -8.472297907      2.963      6.686
REMARK  9 active torsions:
REMARK  status: ('A' for Active; 'I' for Inactive)
REMARK    1  A    between atoms: C3_7  and  N3_8
REMARK    2  A    between atoms: N3_8  and  C4_10
REMARK    3  A    between atoms: C10_18  and  O1_19
REMARK    4  A    between atoms: O1_19  and  C11_20
REMARK    5  A    between atoms: C11_20  and  C12_21
REMARK    6  A    between atoms: C12_21  and  O2_22
REMARK    7  A    between atoms: C12_21  and  C13_24
REMARK    8  A    between atoms: C13_24  and  N5_25
REMARK    9  A    between atoms: N5_25  and  C14_28
ROOT
HETATM    1  C1  UNL     1      27.886  40.694  14.545  1.00  0.00     0.147 C
HETATM    2  N1  UNL     1      29.269  40.564  14.634  1.00  0.00    -0.379 N
ATOM      3  H1  UNL     1      29.689  40.400  13.719  1.00  0.00     0.160 HD
HETATM    4  C2  UNL     1      30.131  40.595  15.531  1.00  0.00     0.141 A
HETATM    5  N2  UNL     1      31.429  40.411  15.140  1.00  0.00    -0.175 N
ATOM      6  H2  UNL     1      31.629  40.260  14.151  1.00  0.00     0.186 HD
HETATM    7  C3  UNL     1      32.432  40.423  15.999  1.00  0.00     0.682 A
HETATM    8  N4  UNL     1      32.229  40.620  17.335  1.00  0.00    -0.169 N
ATOM      9  H4  UNL     1      33.012  40.627  17.989  1.00  0.00     0.186 HD
HETATM   10  C10 UNL     1      30.979  40.804  17.760  1.00  0.00     0.182 A
HETATM   11  C18 UNL     1      29.902  40.795  16.862  1.00  0.00     0.140 A
HETATM   12  C19 UNL     1      28.592  40.994  17.369  1.00  0.00     0.107 C
HETATM   13  N6  UNL     1      27.533  41.156  17.809  1.00  0.00    -0.191 NA
ENDROOT
BRANCH  10  14
HETATM   14  O1  UNL     1      30.710  41.010  19.095  1.00  0.00    -0.332 OA
BRANCH  14  15
HETATM   15  C11 UNL     1      31.155  42.258  19.632  1.00  0.00     0.210 C
BRANCH  15  16
HETATM   16  C12 UNL     1      32.266  42.045  20.629  1.00  0.00     0.168 C
BRANCH  16  17
HETATM   17  O2  UNL     1      33.468  41.748  20.012  1.00  0.00    -0.392 OA
ATOM     18  H2  UNL     1      33.895  42.524  19.667  1.00  0.00     0.210 HD
ENDBRANCH  16  17
BRANCH  16  19
HETATM   19  C13 UNL     1      31.885  40.904  21.576  1.00  0.00     0.267 C
BRANCH  19  20
HETATM   20  N5  UNL     1      30.637  41.239  22.221  1.00  0.00    -0.065 N
ATOM     21  H52 UNL     1      30.787  41.600  23.163  1.00  0.00     0.278 HD
ATOM     22  H51 UNL     1      30.210  42.067  21.804  1.00  0.00     0.278 HD
BRANCH  20  23
HETATM   23  C14 UNL     1      29.728  40.117  22.221  1.00  0.00     0.115 C
HETATM   24  C15 UNL     1      30.369  38.864  21.694  1.00  0.00     0.045 C
HETATM   25  C16 UNL     1      28.524  40.429  21.351  1.00  0.00     0.045 C
HETATM   26  C17 UNL     1      29.295  39.854  23.647  1.00  0.00     0.045 C
ENDBRANCH  20  23
ENDBRANCH  19  20
ENDBRANCH  16  19
ENDBRANCH  15  16
ENDBRANCH  14  15
ENDBRANCH  10  14
BRANCH   7  27
HETATM   27  N3  UNL     1      33.632  40.260  15.631  1.00  0.00    -0.221 N
ATOM     28  H3  UNL     1      34.315  40.137  16.379  1.00  0.00     0.178 HD
BRANCH  27  29
HETATM   29  C4  UNL     1      34.153  40.226  14.288  1.00  0.00     0.099 C
HETATM   30  C5  UNL     1      34.986  39.032  14.086  1.00  0.00     0.026 C
HETATM   31  C6  UNL     1      36.164  39.167  13.190  1.00  0.00     0.002 C
HETATM   32  C7  UNL     1      36.829  40.498  13.191  1.00  0.00     0.000 C
HETATM   33  C8  UNL     1      35.759  41.552  12.875  1.00  0.00     0.002 C
HETATM   34  C9  UNL     1      34.847  41.544  14.063  1.00  0.00     0.026 C
ENDBRANCH  27  29
ENDBRANCH   7  27
TORSDOF 9
ENDMDL