MODEL 5
REMARK VINA RESULT: -6.141226840      2.220      7.051
REMARK  9 active torsions:
REMARK  status: ('A' for Active; 'I' for Inactive)
REMARK    1  A    between atoms: C2_2  and  N1_3
REMARK    2  A    between atoms: C2_2  and  C12_27
REMARK    3  A    between atoms: N1_3  and  S1_5
REMARK    4  A    between atoms: S1_5  and  C3_8
REMARK    5  A    between atoms: C4_9  and  N2_10
REMARK    6  A    between atoms: N2_10  and  C5_11
REMARK    7  A    between atoms: N2_10  and  C7_13
REMARK    8  A    between atoms: C7_13  and  C8_14
REMARK    9  A    between atoms: C10_19  and  N5_20
ROOT
HETATM    1  C8  UNL     1      27.231  40.344  16.029  1.00  0.00     0.143 C
HETATM    2  C9  UNL     1      27.782  40.538  14.712  1.00  0.00     0.060 C
HETATM    3  N3  UNL     1      28.199  40.686  13.625  1.00  0.00    -0.197 NA
ENDROOT
BRANCH   1   4
HETATM    4  C7  UNL     1      27.497  41.412  17.007  1.00  0.00     0.138 C
BRANCH   4   5
HETATM    5  N2  UNL     1      28.707  42.140  16.977  1.00  0.00    -0.365 N
BRANCH   5   6
HETATM    6  C4  UNL     1      29.966  41.453  17.045  1.00  0.00     0.148 A
HETATM    7  C3  UNL     1      30.437  41.036  18.235  1.00  0.00     0.192 A
HETATM    8  C11 UNL     1      31.719  40.431  18.204  1.00  0.00     0.286 A
HETATM    9  N6  UNL     1      32.385  40.297  17.050  1.00  0.00    -0.155 N
HETATM   10  O3  UNL     1      32.202  40.025  19.307  1.00  0.00    -0.266 OA
HETATM   11  C10 UNL     1      31.875  40.726  15.882  1.00  0.00     0.680 A
ATOM     12  H6  UNL     1      33.305  39.857  17.058  1.00  0.00     0.187 HD
HETATM   13  N4  UNL     1      30.670  41.304  15.866  1.00  0.00    -0.175 N
ATOM     14  H4  UNL     1      30.272  41.634  14.987  1.00  0.00     0.186 HD
BRANCH   7  15
HETATM   15  S1  UNL     1      29.629  41.104  19.747  1.00  0.00     0.272 S
HETATM   16  O1  UNL     1      28.271  40.395  19.737  1.00  0.00    -0.200 OA
HETATM   17  O2  UNL     1      29.212  42.580  19.905  1.00  0.00    -0.200 OA
BRANCH  15  18
HETATM   18  N1  UNL     1      30.482  40.650  21.124  1.00  0.00    -0.284 N
ATOM     19  H1  UNL     1      30.861  39.703  21.107  1.00  0.00     0.178 HD
BRANCH  18  20
HETATM   20  C2  UNL     1      30.750  41.380  22.293  1.00  0.00     0.018 C
HETATM   21  C1  UNL     1      30.049  41.140  23.380  1.00  0.00     0.039 C
BRANCH  20  22
HETATM   22  C12 UNL     1      31.779  42.448  22.351  1.00  0.00    -0.009 C
HETATM   23  C13 UNL     1      32.992  41.988  23.166  1.00  0.00     0.021 C
HETATM   24  C14 UNL     1      31.220  43.671  23.095  1.00  0.00     0.021 C
HETATM   25  C15 UNL     1      32.311  42.881  21.027  1.00  0.00     0.021 C
ENDBRANCH  20  22
ENDBRANCH  18  20
ENDBRANCH  15  18
ENDBRANCH   7  15
BRANCH  11  26
HETATM   26  N5  UNL     1      32.555  40.576  14.776  1.00  0.00    -0.234 N
ATOM     27  H52 UNL     1      32.533  41.303  14.060  1.00  0.00     0.174 HD
ATOM     28  H51 UNL     1      33.112  39.736  14.618  1.00  0.00     0.174 HD
ENDBRANCH  11  26
ENDBRANCH   5   6
BRANCH   5  29
HETATM   29  C5  UNL     1      28.755  43.563  16.843  1.00  0.00     0.120 C
HETATM   30  C6  UNL     1      28.050  44.105  15.612  1.00  0.00     0.026 C
ENDBRANCH   5  29
ENDBRANCH   4   5
ENDBRANCH   1   4
TORSDOF 9
ENDMDL