MODEL 4
REMARK VINA RESULT: -9.394396053      1.271      1.545
REMARK  8 active torsions:
REMARK  status: ('A' for Active; 'I' for Inactive)
REMARK    1  A    between atoms: C1_2  and  C2_3
REMARK       I    between atoms: C1_2  and  N3_14
REMARK    2  A    between atoms: C2_3  and  C3_4
REMARK    3  A    between atoms: C3_4  and  C4_5
REMARK    4  A    between atoms: N3_14  and  C9_16
REMARK    5  A    between atoms: C10_21  and  N6_22
REMARK    6  A    between atoms: N6_22  and  C11_24
REMARK    7  A    between atoms: C11_24  and  C12_25
REMARK    8  A    between atoms: C14_27  and  N7_28
ROOT
HETATM    1  C9  UNL     1      30.918  40.174  17.265  1.00  0.00     0.714 A
HETATM    2  N4  UNL     1      30.339  40.159  16.055  1.00  0.00    -0.117 N
ATOM      3  H4  UNL     1      29.347  40.028  15.856  1.00  0.00     0.206 HD
HETATM    4  N5  UNL     1      31.303  40.347  15.171  1.00  0.00    -0.117 N
ATOM      5  H5  UNL     1      31.172  40.385  14.160  1.00  0.00     0.206 HD
HETATM    6  C10 UNL     1      32.478  40.479  15.798  1.00  0.00     0.708 A
HETATM    7  N8  UNL     1      32.269  40.377  17.104  1.00  0.00    -0.020 N
ATOM      8  H8  UNL     1      32.971  40.436  17.842  1.00  0.00     0.203 HD
ENDROOT
BRANCH   1   9
HETATM    9  N3  UNL     1      30.379  40.045  18.415  1.00  0.00    -0.158 N
HETATM   10  C1  UNL     1      29.777  41.079  19.115  1.00  0.00     0.236 C
HETATM   11  O1  UNL     1      28.519  41.080  19.267  1.00  0.00    -0.273 OA
ATOM     12  H3  UNL     1      30.393  39.121  18.848  1.00  0.00     0.187 HD
BRANCH  10  13
HETATM   13  C2  UNL     1      30.558  42.169  19.688  1.00  0.00     0.118 C
BRANCH  13  14
HETATM   14  C3  UNL     1      31.367  41.845  20.925  1.00  0.00    -0.002 A
HETATM   15  C7  UNL     1      32.473  42.739  21.385  1.00  0.00     0.016 A
HETATM   16  C8  UNL     1      32.804  41.509  20.590  1.00  0.00     0.016 A
BRANCH  14  17
HETATM   17  C4  UNL     1      30.702  41.059  21.984  1.00  0.00    -0.015 A
HETATM   18  C5  UNL     1      30.277  41.607  23.205  1.00  0.00     0.116 A
HETATM   19  N1  UNL     1      29.741  40.625  23.900  1.00  0.00    -0.312 N
HETATM   20  N2  UNL     1      29.792  39.505  23.225  1.00  0.00    -0.312 N
ATOM     21  H1  UNL     1      29.343  40.723  24.834  1.00  0.00     0.186 HD
HETATM   22  C6  UNL     1      30.391  39.758  22.018  1.00  0.00     0.116 A
ATOM     23  H2  UNL     1      29.445  38.600  23.541  1.00  0.00     0.186 HD
ENDBRANCH  14  17
ENDBRANCH  13  14
ENDBRANCH  10  13
ENDBRANCH   1   9
BRANCH   6  24
HETATM   24  N6  UNL     1      33.638  40.674  15.271  1.00  0.00    -0.218 N
ATOM     25  H6  UNL     1      34.003  41.620  15.165  1.00  0.00     0.178 HD
BRANCH  24  26
HETATM   26  C11 UNL     1      34.408  39.554  14.838  1.00  0.00     0.203 C
BRANCH  26  27
HETATM   27  C12 UNL     1      35.414  40.032  13.823  1.00  0.00     0.073 A
HETATM   28  C13 UNL     1      36.393  39.345  13.204  1.00  0.00     0.072 A
HETATM   29  C14 UNL     1      37.079  40.175  12.351  1.00  0.00     0.127 A
HETATM   30  C15 UNL     1      36.433  41.414  12.507  1.00  0.00     0.178 A
HETATM   31  O4  UNL     1      35.473  41.291  13.370  1.00  0.00    -0.323 OA
BRANCH  29  32
HETATM   32  N7  UNL     1      38.187  39.881  11.512  1.00  0.00    -0.114 N
HETATM   33  O2  UNL     1      39.335  39.907  11.990  1.00  0.00    -0.532 OA
HETATM   34  O3  UNL     1      37.941  39.582  10.193  1.00  0.00    -0.532 OA
ENDBRANCH  29  32
ENDBRANCH  26  27
ENDBRANCH  24  26
ENDBRANCH   6  24
TORSDOF 8
ENDMDL