MODEL 2
REMARK VINA RESULT: -9.638049276      1.714      2.287
REMARK  6 active torsions:
REMARK  status: ('A' for Active; 'I' for Inactive)
REMARK    1  A    between atoms: C2_2  and  C9_21
REMARK    2  A    between atoms: N1_3  and  N2_5
REMARK       I    between atoms: N2_5  and  C3_7
REMARK    3  A    between atoms: C3_7  and  C4_9
REMARK    4  A    between atoms: C5_10  and  C6_11
REMARK       I    between atoms: C9_21  and  N6_23
REMARK    5  A    between atoms: N6_23  and  C10_24
REMARK    6  A    between atoms: C10_24  and  C11_25
ROOT
HETATM    1  C4  UNL     1      35.397  39.497  14.049  1.00  0.00     0.107 A
HETATM    2  C5  UNL     1      36.545  40.238  13.698  1.00  0.00     0.143 A
HETATM    3  N3  UNL     1      37.498  39.310  13.537  1.00  0.00    -0.293 N
ATOM      4  H3  UNL     1      38.456  39.546  13.277  1.00  0.00     0.187 HD
HETATM    5  N4  UNL     1      37.114  38.102  13.733  1.00  0.00    -0.289 N
ATOM      6  H4  UNL     1      37.679  37.256  13.661  1.00  0.00     0.188 HD
HETATM    7  C7  UNL     1      35.784  38.188  14.060  1.00  0.00     0.146 A
HETATM    8  C8  UNL     1      34.983  37.043  14.366  1.00  0.00     0.120 C
HETATM    9  N5  UNL     1      34.362  36.089  14.624  1.00  0.00    -0.190 NA
ENDROOT
BRANCH   1  10
HETATM   10  C3  UNL     1      34.119  40.061  14.406  1.00  0.00     0.275 C
HETATM   11  N2  UNL     1      33.625  40.306  15.689  1.00  0.00    -0.265 N
ATOM     12  H2  UNL     1      34.200  40.072  16.498  1.00  0.00     0.190 HD
HETATM   13  O1  UNL     1      33.340  40.381  13.418  1.00  0.00    -0.266 OA
BRANCH  11  14
HETATM   14  N1  UNL     1      32.334  40.876  15.892  1.00  0.00    -0.296 N
HETATM   15  C2  UNL     1      31.405  40.226  16.481  1.00  0.00     0.104 C
HETATM   16  C1  UNL     1      31.650  38.871  16.968  1.00  0.00     0.077 C
ATOM     17  H1  UNL     1      32.148  41.822  15.559  1.00  0.00     0.187 HD
BRANCH  15  18
HETATM   18  C9  UNL     1      30.090  40.879  16.636  1.00  0.00     0.338 C
HETATM   19  O4  UNL     1      29.436  41.023  15.606  1.00  0.00    -0.250 OA
HETATM   20  N6  UNL     1      29.653  41.308  17.921  1.00  0.00    -0.382 NA
BRANCH  20  21
HETATM   21  C10 UNL     1      29.247  41.705  19.107  1.00  0.00     0.164 C
BRANCH  21  22
HETATM   22  C11 UNL     1      30.200  41.683  20.294  1.00  0.00     0.038 C
HETATM   23  C12 UNL     1      30.796  40.319  20.419  1.00  0.00     0.011 C
HETATM   24  C13 UNL     1      29.990  39.299  21.131  1.00  0.00     0.001 C
HETATM   25  C14 UNL     1      29.264  39.717  22.355  1.00  0.00     0.000 C
HETATM   26  C15 UNL     1      30.039  40.584  23.312  1.00  0.00     0.000 C
HETATM   27  C16 UNL     1      30.519  41.863  22.731  1.00  0.00     0.001 C
HETATM   28  C17 UNL     1      29.682  42.300  21.529  1.00  0.00     0.011 C
ENDBRANCH  21  22
ENDBRANCH  20  21
ENDBRANCH  15  18
ENDBRANCH  11  14
ENDBRANCH   1  10
BRANCH   2  29
HETATM   29  C6  UNL     1      36.696  41.637  13.470  1.00  0.00     0.229 C
HETATM   30  O2  UNL     1      37.140  42.602  14.039  1.00  0.00    -0.643 OA
HETATM   31  O3  UNL     1      36.143  42.018  12.136  1.00  0.00    -0.643 OA
ENDBRANCH   2  29
TORSDOF 6
ENDMDL