MODEL 1
REMARK VINA RESULT: -8.101785532      0.000      0.000
REMARK  8 active torsions:
REMARK  status: ('A' for Active; 'I' for Inactive)
REMARK    1  A    between atoms: N1_1  and  C1_4
REMARK    2  A    between atoms: C2_5  and  N2_6
REMARK       I    between atoms: N2_6  and  C3_8
REMARK    3  A    between atoms: C3_8  and  C4_10
REMARK    4  A    between atoms: C4_10  and  C5_11
REMARK    5  A    between atoms: C5_11  and  C6_12
REMARK    6  A    between atoms: C7_15  and  C8_16
REMARK    7  A    between atoms: N5_23  and  C13_24
REMARK    8  A    between atoms: C13_24  and  C14_25
REMARK       I    between atoms: C14_25  and  N6_27
ROOT
HETATM    1  C1  UNL     1      33.414  40.614  15.054  1.00  0.00     0.145 A
HETATM    2  C2  UNL     1      34.345  39.814  14.421  1.00  0.00     0.105 A
HETATM    3  C7  UNL     1      34.254  38.588  15.030  1.00  0.00     0.060 A
HETATM    4  N4  UNL     1      33.303  38.689  15.975  1.00  0.00    -0.298 N
ATOM      5  H4  UNL     1      33.022  37.923  16.588  1.00  0.00     0.187 HD
HETATM    6  N5  UNL     1      32.779  39.899  16.013  1.00  0.00    -0.266 N
ENDROOT
BRANCH   2   7
HETATM    7  N2  UNL     1      35.221  40.168  13.362  1.00  0.00    -0.322 N
HETATM    8  C3  UNL     1      36.318  41.070  13.522  1.00  0.00     0.222 C
HETATM    9  O1  UNL     1      36.465  41.550  14.697  1.00  0.00    -0.273 OA
ATOM     10  H2  UNL     1      35.060  39.758  12.443  1.00  0.00     0.169 HD
BRANCH   8  11
HETATM   11  C4  UNL     1      37.222  41.433  12.421  1.00  0.00     0.112 C
BRANCH  11  12
HETATM   12  C5  UNL     1      37.164  40.339  11.381  1.00  0.00     0.109 C
BRANCH  12  13
HETATM   13  C6  UNL     1      38.328  39.464  11.539  1.00  0.00     0.231 C
HETATM   14  N3  UNL     1      38.251  38.122  11.104  1.00  0.00    -0.062 NA
HETATM   15  O2  UNL     1      39.376  39.898  12.051  1.00  0.00    -0.277 OA
ENDBRANCH  12  13
ENDBRANCH  11  12
ENDBRANCH   8  11
ENDBRANCH   2   7
BRANCH   1  16
HETATM   16  N1  UNL     1      33.166  41.872  14.785  1.00  0.00    -0.382 N
ATOM     17  H12 UNL     1      33.885  42.587  14.661  1.00  0.00     0.157 HD
ATOM     18  H11 UNL     1      32.244  42.292  14.667  1.00  0.00     0.157 HD
ENDBRANCH   1  16
BRANCH   3  19
HETATM   19  C8  UNL     1      35.064  37.421  14.676  1.00  0.00     0.039 C
HETATM   20  C9  UNL     1      34.297  36.126  14.769  1.00  0.00     0.011 C
HETATM   21  C10 UNL     1      34.981  35.192  13.768  1.00  0.00     0.001 C
HETATM   22  C11 UNL     1      36.064  36.018  13.107  1.00  0.00     0.001 C
HETATM   23  C12 UNL     1      35.465  37.411  13.198  1.00  0.00     0.011 C
ENDBRANCH   3  19
BRANCH   6  24
HETATM   24  C13 UNL     1      31.730  40.407  16.890  1.00  0.00     0.253 C
BRANCH  24  25
HETATM   25  C14 UNL     1      30.389  39.983  16.446  1.00  0.00     0.239 C
HETATM   26  O3  UNL     1      30.168  38.758  16.295  1.00  0.00    -0.271 OA
HETATM   27  N6  UNL     1      29.380  40.949  16.196  1.00  0.00    -0.351 N
HETATM   28  C15 UNL     1      28.038  40.627  15.758  1.00  0.00     0.126 C
HETATM   29  C18 UNL     1      29.506  42.405  16.333  1.00  0.00     0.126 C
HETATM   30  C16 UNL     1      27.218  41.732  16.371  1.00  0.00     0.021 C
HETATM   31  C17 UNL     1      28.111  42.930  16.284  1.00  0.00     0.021 C
ENDBRANCH  24  25
ENDBRANCH   6  24
TORSDOF 8
ENDMDL