MODEL 1
REMARK VINA RESULT: -9.457819902      0.000      0.000
REMARK  8 active torsions:
REMARK  status: ('A' for Active; 'I' for Inactive)
REMARK    1  A    between atoms: C2_2  and  C3_3
REMARK    2  A    between atoms: C3_3  and  C4_4
REMARK    3  A    between atoms: C4_4  and  N1_5
REMARK    4  A    between atoms: N1_5  and  C5_7
REMARK    5  A    between atoms: C6_10  and  C7_11
REMARK    6  A    between atoms: C7_11  and  C8_12
REMARK    7  A    between atoms: C9_19  and  C10_20
REMARK       I    between atoms: C10_20  and  N6_22
REMARK    8  A    between atoms: C17_31  and  N8_32
ROOT
HETATM    1  C5  UNL     1      34.561  42.203  21.188  1.00  0.00     0.694 A
HETATM    2  N2  UNL     1      33.793  41.425  20.369  1.00  0.00    -0.179 N
ATOM      3  H2  UNL     1      34.242  40.730  19.773  1.00  0.00     0.185 HD
HETATM    4  C6  UNL     1      32.481  41.555  20.334  1.00  0.00     0.119 A
HETATM    5  N7  UNL     1      31.921  42.489  21.141  1.00  0.00    -0.179 N
ATOM      6  H7  UNL     1      30.908  42.606  21.129  1.00  0.00     0.185 HD
HETATM    7  C17 UNL     1      32.654  43.263  21.952  1.00  0.00     0.691 A
HETATM    8  N9  UNL     1      33.978  43.130  21.986  1.00  0.00    -0.023 N
ATOM      9  H9  UNL     1      34.542  43.714  22.601  1.00  0.00     0.203 HD
ENDROOT
BRANCH   4  10
HETATM   10  C7  UNL     1      31.594  40.764  19.479  1.00  0.00     0.139 C
BRANCH  10  11
HETATM   11  C8  UNL     1      30.191  40.685  19.914  1.00  0.00     0.068 A
HETATM   12  N3  UNL     1      29.852  39.897  21.005  1.00  0.00    -0.288 N
HETATM   13  N4  UNL     1      28.568  40.035  21.262  1.00  0.00    -0.242 N
ATOM     14  H3  UNL     1      30.497  39.304  21.526  1.00  0.00     0.188 HD
HETATM   15  N5  UNL     1      28.093  40.877  20.374  1.00  0.00    -0.279 N
ATOM     16  H4  UNL     1      28.044  39.576  22.007  1.00  0.00     0.208 HD
HETATM   17  C9  UNL     1      29.048  41.312  19.514  1.00  0.00     0.142 A
ATOM     18  H5  UNL     1      27.117  41.172  20.335  1.00  0.00     0.189 HD
BRANCH  17  19
HETATM   19  C10 UNL     1      28.937  42.217  18.382  1.00  0.00     0.277 C
HETATM   20  O1  UNL     1      28.787  43.468  18.625  1.00  0.00    -0.265 OA
HETATM   21  N6  UNL     1      28.989  41.767  17.042  1.00  0.00    -0.326 N
HETATM   22  C11 UNL     1      28.854  42.963  16.162  1.00  0.00     0.142 C
HETATM   23  C16 UNL     1      29.138  40.393  16.832  1.00  0.00     0.068 C
HETATM   24  C12 UNL     1      27.594  42.789  15.233  1.00  0.00     0.100 C
HETATM   25  C13 UNL     1      27.646  41.434  14.833  1.00  0.00    -0.181 C
HETATM   26  C14 UNL     1      27.888  40.061  14.620  1.00  0.00     0.085 C
HETATM   27  C15 UNL     1      29.182  39.757  15.456  1.00  0.00     0.056 C
ENDBRANCH  17  19
ENDBRANCH  10  11
ENDBRANCH   4  10
BRANCH   1  28
HETATM   28  N1  UNL     1      35.825  42.079  21.220  1.00  0.00    -0.226 N
ATOM     29  H1  UNL     1      36.303  42.014  20.321  1.00  0.00     0.177 HD
BRANCH  28  30
HETATM   30  C4  UNL     1      36.639  42.024  22.383  1.00  0.00     0.138 C
BRANCH  30  31
HETATM   31  C3  UNL     1      37.204  40.650  22.614  1.00  0.00     0.020 C
BRANCH  31  32
HETATM   32  C2  UNL     1      38.616  40.758  23.149  1.00  0.00    -0.003 C
HETATM   33  C1  UNL     1      39.314  39.426  23.129  1.00  0.00     0.005 C
ENDBRANCH  31  32
ENDBRANCH  30  31
ENDBRANCH  28  30
ENDBRANCH   1  28
BRANCH   7  34
HETATM   34  N8  UNL     1      32.105  44.160  22.726  1.00  0.00    -0.234 N
ATOM     35  H82 UNL     1      31.099  44.309  22.652  1.00  0.00     0.174 HD
ATOM     36  H81 UNL     1      32.656  44.705  23.389  1.00  0.00     0.174 HD
ENDBRANCH   7  34
TORSDOF 8
ENDMDL