MODEL 5
REMARK VINA RESULT: -6.203866141      5.915      7.935
REMARK  7 active torsions:
REMARK  status: ('A' for Active; 'I' for Inactive)
REMARK    1  A    between atoms: C9_11  and  N2_12
REMARK    2  A    between atoms: N2_12  and  C10_14
REMARK    3  A    between atoms: C10_14  and  C11_15
REMARK    4  A    between atoms: C11_15  and  N3_16
REMARK    5  A    between atoms: N3_16  and  C12_19
REMARK    6  A    between atoms: C12_19  and  C13_20
REMARK    7  A    between atoms: C13_20  and  N4_21
ROOT
HETATM    1  C1  UNL     1      35.831  37.991  13.008  1.00  0.00     0.026 C
HETATM    2  C2  UNL     1      36.261  39.334  13.356  1.00  0.00     0.020 C
HETATM    3  C3  UNL     1      37.409  39.789  14.204  1.00  0.00     0.020 C
HETATM    4  C4  UNL     1      37.035  41.309  14.455  1.00  0.00     0.012 C
HETATM    5  C5  UNL     1      36.801  42.125  13.238  1.00  0.00     0.041 C
HETATM    6  C6  UNL     1      35.307  42.455  12.973  1.00  0.00     0.051 C
HETATM    7  C7  UNL     1      34.622  41.360  13.717  1.00  0.00    -0.033 A
HETATM    8  C8  UNL     1      33.506  41.796  14.372  1.00  0.00     0.097 A
HETATM    9  N1  UNL     1      32.846  41.051  15.267  1.00  0.00    -0.351 N
ATOM     10  H1  UNL     1      32.013  41.406  15.735  1.00  0.00     0.166 HD
HETATM   11  C9  UNL     1      33.315  39.825  15.526  1.00  0.00     0.122 A
HETATM   12  C14 UNL     1      34.453  39.290  14.906  1.00  0.00     0.096 A
HETATM   13  C15 UNL     1      35.018  38.071  15.460  1.00  0.00     0.104 C
HETATM   14  N5  UNL     1      35.479  37.117  15.948  1.00  0.00    -0.191 NA
HETATM   15  C16 UNL     1      35.095  40.080  13.982  1.00  0.00    -0.013 A
HETATM   16  C17 UNL     1      37.031  41.252  11.999  1.00  0.00     0.027 A
HETATM   17  N6  UNL     1      37.538  41.854  10.927  1.00  0.00    -0.355 N
ATOM     18  H6  UNL     1      37.707  42.860  10.921  1.00  0.00     0.166 HD
HETATM   19  C18 UNL     1      37.825  41.094   9.842  1.00  0.00     0.183 A
HETATM   20  N7  UNL     1      37.592  39.781   9.887  1.00  0.00    -0.319 N
ATOM     21  H7  UNL     1      37.813  39.223   9.062  1.00  0.00     0.169 HD
HETATM   22  C19 UNL     1      37.070  39.143  10.982  1.00  0.00     0.255 A
HETATM   23  O1  UNL     1      36.950  37.908  10.803  1.00  0.00    -0.268 OA
HETATM   24  C20 UNL     1      36.774  39.911  12.082  1.00  0.00     0.046 A
ENDROOT
BRANCH  11  25
HETATM   25  N2  UNL     1      32.646  38.995  16.482  1.00  0.00    -0.373 N
ATOM     26  H2  UNL     1      33.105  38.140  16.797  1.00  0.00     0.161 HD
BRANCH  25  27
HETATM   27  C10 UNL     1      31.347  39.325  17.019  1.00  0.00     0.148 C
BRANCH  27  28
HETATM   28  C11 UNL     1      31.389  40.085  18.308  1.00  0.00     0.251 C
BRANCH  28  29
HETATM   29  N3  UNL     1      31.210  41.499  18.151  1.00  0.00    -0.072 N
ATOM     30  H32 UNL     1      31.634  42.000  18.931  1.00  0.00     0.277 HD
ATOM     31  H31 UNL     1      31.786  41.847  17.385  1.00  0.00     0.277 HD
BRANCH  29  32
HETATM   32  C12 UNL     1      29.853  41.906  17.977  1.00  0.00     0.259 C
BRANCH  32  33
HETATM   33  C13 UNL     1      29.751  42.626  16.629  1.00  0.00     0.257 C
BRANCH  33  34
HETATM   34  N4  UNL     1      30.038  44.028  16.783  1.00  0.00    -0.078 N
ATOM     35  H43 UNL     1      30.882  44.300  16.279  1.00  0.00     0.274 HD
ATOM     36  H42 UNL     1      29.367  44.610  16.281  1.00  0.00     0.274 HD
ATOM     37  H41 UNL     1      30.090  44.276  17.771  1.00  0.00     0.274 HD
ENDBRANCH  33  34
ENDBRANCH  32  33
ENDBRANCH  29  32
ENDBRANCH  28  29
ENDBRANCH  27  28
ENDBRANCH  25  27
ENDBRANCH  11  25
TORSDOF 7
ENDMDL