MODEL 2
REMARK VINA RESULT: -7.208507326      1.574      1.867
REMARK  9 active torsions:
REMARK  status: ('A' for Active; 'I' for Inactive)
REMARK    1  A    between atoms: O1_2  and  C2_3
REMARK    2  A    between atoms: C5_6  and  C6_7
REMARK    3  A    between atoms: C6_7  and  C7_8
REMARK    4  A    between atoms: C10_11  and  O2_12
REMARK    5  A    between atoms: C12_20  and  C13_21
REMARK    6  A    between atoms: C13_21  and  N3_22
REMARK    7  A    between atoms: N3_22  and  C14_24
REMARK    8  A    between atoms: C16_29  and  O4_30
REMARK    9  A    between atoms: C18_32  and  O5_33
ROOT
HETATM    1  C2  UNL     1      35.550  36.811  13.602  1.00  0.00     0.105 A
HETATM    2  C3  UNL     1      34.684  37.672  14.278  1.00  0.00     0.053 A
HETATM    3  C4  UNL     1      34.798  39.035  14.100  1.00  0.00    -0.002 A
HETATM    4  C5  UNL     1      33.948  39.925  14.753  1.00  0.00     0.045 A
HETATM    5  C11 UNL     1      34.057  41.283  14.565  1.00  0.00     0.257 A
HETATM    6  O3  UNL     1      33.287  42.084  15.161  1.00  0.00    -0.267 OA
HETATM    7  N2  UNL     1      35.004  41.723  13.731  1.00  0.00    -0.321 N
ATOM      8  H2  UNL     1      35.083  42.730  13.590  1.00  0.00     0.169 HD
HETATM    9  C12 UNL     1      35.873  40.912  13.055  1.00  0.00     0.064 A
HETATM   10  C15 UNL     1      35.787  39.561  13.235  1.00  0.00     0.040 A
HETATM   11  C16 UNL     1      36.610  38.668  12.602  1.00  0.00     0.117 A
HETATM   12  C18 UNL     1      36.510  37.288  12.767  1.00  0.00     0.136 A
ENDROOT
BRANCH   4  13
HETATM   13  C6  UNL     1      33.039  39.439  15.557  1.00  0.00     0.047 C
BRANCH  13  14
HETATM   14  C7  UNL     1      31.950  40.228  16.180  1.00  0.00     0.035 A
HETATM   15  C8  UNL     1      30.691  40.493  15.630  1.00  0.00     0.034 A
HETATM   16  C9  UNL     1      29.986  41.288  16.504  1.00  0.00     0.058 A
HETATM   17  C10 UNL     1      30.802  41.515  17.586  1.00  0.00     0.140 A
HETATM   18  N1  UNL     1      31.955  40.872  17.359  1.00  0.00    -0.337 N
ATOM     19  H1  UNL     1      32.744  40.872  18.006  1.00  0.00     0.168 HD
BRANCH  17  20
HETATM   20  O2  UNL     1      30.485  42.282  18.727  1.00  0.00    -0.346 OA
ATOM     21  H2  UNL     1      31.034  42.409  19.492  1.00  0.00     0.219 HD
ENDBRANCH  17  20
ENDBRANCH  13  14
ENDBRANCH   4  13
BRANCH   1  22
HETATM   22  O1  UNL     1      35.419  35.473  13.789  1.00  0.00    -0.353 OA
HETATM   23  C1  UNL     1      34.330  34.808  14.369  1.00  0.00     0.210 C
ENDBRANCH   1  22
BRANCH   9  24
HETATM   24  C13 UNL     1      36.680  41.488  12.211  1.00  0.00     0.119 C
BRANCH  24  25
HETATM   25  N3  UNL     1      36.048  42.234  11.122  1.00  0.00    -0.360 N
ATOM     26  H3  UNL     1      35.386  42.988  11.306  1.00  0.00     0.166 HD
BRANCH  25  27
HETATM   27  C14 UNL     1      36.396  41.865   9.813  1.00  0.00     0.173 C
HETATM   28  N4  UNL     1      36.726  40.665   9.490  1.00  0.00    -0.395 N
ATOM     29  H42 UNL     1      36.729  39.962  10.229  1.00  0.00     0.156 HD
ATOM     30  H41 UNL     1      36.978  40.397   8.538  1.00  0.00     0.156 HD
ENDBRANCH  25  27
ENDBRANCH  24  25
ENDBRANCH   9  24
BRANCH  11  31
HETATM   31  O4  UNL     1      37.645  39.064  11.749  1.00  0.00    -0.352 OA
HETATM   32  C17 UNL     1      38.966  39.119  12.378  1.00  0.00     0.210 C
ENDBRANCH  11  31
BRANCH  12  33
HETATM   33  O5  UNL     1      37.345  36.450  12.113  1.00  0.00    -0.351 OA
HETATM   34  C19 UNL     1      37.127  35.796  10.900  1.00  0.00     0.210 C
ENDBRANCH  12  33
TORSDOF 9
ENDMDL