MODEL 3
REMARK VINA RESULT: -5.662169155      1.515      2.217
REMARK  4 active torsions:
REMARK  status: ('A' for Active; 'I' for Inactive)
REMARK    1  A    between atoms: C2_2  and  N1_3
REMARK    2  A    between atoms: C2_2  and  C3_7
REMARK       I    between atoms: C3_7  and  N2_9
REMARK    3  A    between atoms: N2_9  and  N3_11
REMARK       I    between atoms: N3_11  and  C4_13
REMARK       I    between atoms: C4_13  and  N5_17
REMARK    4  A    between atoms: N5_17  and  N6_19
ROOT
HETATM    1  N3  UNL     1      -1.329  10.616  10.884  1.00  0.00    -0.129 N
ATOM      2  H3  UNL     1      -1.458  11.382  11.545  1.00  0.00     0.205 HD
HETATM    3  C4  UNL     1      -2.012  10.697   9.652  1.00  0.00     0.704 C
HETATM    4  N4  UNL     1      -1.583  11.521   8.772  1.00  0.00    -0.232 N
ATOM      5  H41 UNL     1      -2.077  11.581   7.882  1.00  0.00     0.174 HD
ATOM      6  H42 UNL     1      -0.770  12.090   9.008  1.00  0.00     0.174 HD
HETATM    7  N5  UNL     1      -3.141   9.906   9.325  1.00  0.00    -0.138 N
ATOM      8  H5  UNL     1      -3.783   9.636  10.070  1.00  0.00     0.205 HD
ENDROOT
BRANCH   1   9
HETATM    9  N2  UNL     1      -0.493   9.573  11.268  1.00  0.00    -0.254 N
HETATM   10  C3  UNL     1      -1.054   8.420  11.891  1.00  0.00     0.266 C
HETATM   11  O1  UNL     1      -2.307   8.328  12.106  1.00  0.00    -0.269 OA
ATOM     12  H2  UNL     1       0.512   9.632  11.106  1.00  0.00     0.190 HD
BRANCH  10  13
HETATM   13  C2  UNL     1      -0.165   7.293  12.309  1.00  0.00     0.272 C
HETATM   14  C1  UNL     1       0.008   7.415  13.820  1.00  0.00     0.050 C
BRANCH  13  15
HETATM   15  N1  UNL     1       1.166   7.451  11.695  1.00  0.00    -0.067 N
ATOM     16  H13 UNL     1       1.253   8.310  11.151  1.00  0.00     0.275 HD
ATOM     17  H12 UNL     1       1.898   7.648  12.377  1.00  0.00     0.275 HD
ATOM     18  H11 UNL     1       1.353   6.612  11.144  1.00  0.00     0.275 HD
ENDBRANCH  13  15
ENDBRANCH  10  13
ENDBRANCH   1   9
BRANCH   7  19
HETATM   19  N6  UNL     1      -3.408   9.483   8.020  1.00  0.00    -0.331 N
ATOM     20  H62 UNL     1      -3.501   8.480   7.856  1.00  0.00     0.177 HD
ATOM     21  H61 UNL     1      -3.509  10.135   7.243  1.00  0.00     0.177 HD
ENDBRANCH   7  19
TORSDOF 4
ENDMDL