MODEL 2
REMARK VINA RESULT: -6.696185268      3.029      5.229
REMARK  1 active torsions:
REMARK  status: ('A' for Active; 'I' for Inactive)
REMARK       I    between atoms: C1_4  and  N3_6
REMARK    1  A    between atoms: N3_6  and  N4_8
ROOT
HETATM    1  N4  UNL     1      -1.800  10.683  10.840  1.00  0.00    -0.268 N
ATOM      2  H4  UNL     1      -1.772  11.433  11.530  1.00  0.00     0.190 HD
HETATM    3  C2  UNL     1      -1.506   9.493  11.233  1.00  0.00     0.204 A
HETATM    4  N5  UNL     1      -1.460   8.272  10.499  1.00  0.00    -0.289 N
ATOM      5  H5  UNL     1      -1.668   8.177   9.506  1.00  0.00     0.172 HD
HETATM    6  C3  UNL     1      -1.079   7.205  11.364  1.00  0.00     0.316 A
HETATM    7  O1  UNL     1      -0.936   5.979  11.061  1.00  0.00    -0.262 OA
HETATM    8  C4  UNL     1      -0.883   7.792  12.679  1.00  0.00     0.316 A
HETATM    9  O2  UNL     1      -0.537   7.169  13.728  1.00  0.00    -0.262 OA
HETATM   10  N6  UNL     1      -1.148   9.179  12.573  1.00  0.00    -0.289 N
ATOM     11  H6  UNL     1      -1.090   9.850  13.339  1.00  0.00     0.172 HD
ENDROOT
BRANCH   1  12
HETATM   12  N3  UNL     1      -2.152  11.010   9.540  1.00  0.00    -0.271 N
HETATM   13  C1  UNL     1      -1.195  11.241   8.500  1.00  0.00     0.200 C
HETATM   14  N1  UNL     1      -1.354  10.604   7.390  1.00  0.00    -0.372 N
HETATM   15  N2  UNL     1      -0.115  12.142   8.702  1.00  0.00    -0.062 NA
ATOM     16  H12 UNL     1      -0.672  10.768   6.649  1.00  0.00     0.158 HD
ATOM     17  H11 UNL     1      -2.128   9.957   7.245  1.00  0.00     0.158 HD
ATOM     18  H3  UNL     1      -3.143  11.089   9.313  1.00  0.00     0.189 HD
ENDBRANCH   1  12
TORSDOF 1
ENDMDL