MODEL 1
REMARK VINA RESULT: -6.340407968      0.000      0.000
REMARK  3 active torsions:
REMARK  status: ('A' for Active; 'I' for Inactive)
REMARK    1  A    between atoms: N1_1  and  N2_4
REMARK    2  A    between atoms: C1_6  and  N3_7
REMARK       I    between atoms: N3_7  and  C2_9
REMARK       I    between atoms: C2_9  and  N4_11
REMARK    3  A    between atoms: N4_11  and  C3_13
ROOT
HETATM    1  N3  UNL     1      -1.133   7.648   9.772  1.00  0.00    -0.303 N
ATOM      2  H3  UNL     1      -0.897   7.870   8.805  1.00  0.00     0.171 HD
HETATM    3  C2  UNL     1      -1.905   8.567  10.524  1.00  0.00     0.339 C
HETATM    4  O1  UNL     1      -2.179   8.267  11.713  1.00  0.00    -0.246 OA
HETATM    5  N4  UNL     1      -2.364   9.788   9.978  1.00  0.00    -0.138 N
ATOM      6  H4  UNL     1      -3.352   9.906   9.751  1.00  0.00     0.189 HD
ENDROOT
BRANCH   5   7
HETATM    7  C3  UNL     1      -1.526  10.760   9.767  1.00  0.00     0.717 A
HETATM    8  N5  UNL     1      -0.463  11.071  10.531  1.00  0.00    -0.115 N
HETATM    9  N6  UNL     1       0.147  12.129   9.985  1.00  0.00    -0.213 N
ATOM     10  H5  UNL     1      -0.173  10.584  11.379  1.00  0.00     0.207 HD
HETATM   11  N7  UNL     1      -0.510  12.486   8.900  1.00  0.00    -0.213 N
ATOM     12  H6  UNL     1       0.984  12.585  10.350  1.00  0.00     0.210 HD
HETATM   13  N8  UNL     1      -1.527  11.649   8.772  1.00  0.00    -0.115 N
ATOM     14  H7  UNL     1      -0.278  13.259   8.277  1.00  0.00     0.210 HD
ATOM     15  H8  UNL     1      -2.216  11.680   8.019  1.00  0.00     0.207 HD
ENDBRANCH   5   7
BRANCH   1  16
HETATM   16  C1  UNL     1      -0.678   6.425  10.331  1.00  0.00     0.200 C
HETATM   17  N2  UNL     1       0.322   6.419  11.144  1.00  0.00    -0.303 N
ATOM     18  H2  UNL     1       0.648   5.540  11.545  1.00  0.00     0.187 HD
BRANCH  17  19
HETATM   19  N1  UNL     1       0.961   7.616  11.476  1.00  0.00    -0.344 N
ATOM     20  H12 UNL     1       0.487   8.272  12.097  1.00  0.00     0.176 HD
ATOM     21  H11 UNL     1       1.886   7.823  11.100  1.00  0.00     0.176 HD
ENDBRANCH  17  19
ENDBRANCH   1  16
TORSDOF 3
ENDMDL