MODEL 5
REMARK VINA RESULT: -6.112225064      1.668      5.523
REMARK  3 active torsions:
REMARK  status: ('A' for Active; 'I' for Inactive)
REMARK    1  A    between atoms: N1_1  and  O1_4
REMARK    2  A    between atoms: O1_4  and  N2_5
REMARK       I    between atoms: N2_5  and  C1_7
REMARK       I    between atoms: C1_7  and  N3_9
REMARK    3  A    between atoms: N3_9  and  C2_11
ROOT
HETATM    1  N2  UNL     1      -1.956  10.887   9.846  1.00  0.00    -0.191 N
ATOM      2  H2  UNL     1      -2.851  11.125  10.275  1.00  0.00     0.201 HD
HETATM    3  C1  UNL     1      -1.070   9.937  10.541  1.00  0.00     0.360 C
HETATM    4  O2  UNL     1      -0.003   9.709   9.939  1.00  0.00    -0.244 OA
HETATM    5  N3  UNL     1      -1.442   9.404  11.697  1.00  0.00    -0.138 N
ATOM      6  H3  UNL     1      -2.167  10.040  12.031  1.00  0.00     0.189 HD
ENDROOT
BRANCH   5   7
HETATM    7  C2  UNL     1      -1.377   8.555  12.577  1.00  0.00     0.705 A
HETATM    8  N4  UNL     1      -2.337   7.726  13.071  1.00  0.00    -0.128 N
HETATM    9  N5  UNL     1      -1.843   6.997  14.045  1.00  0.00    -0.237 N
ATOM     10  H4  UNL     1      -3.299   7.678  12.734  1.00  0.00     0.205 HD
HETATM   11  C3  UNL     1      -0.559   7.309  14.236  1.00  0.00     0.353 A
ATOM     12  H5  UNL     1      -2.362   6.297  14.575  1.00  0.00     0.192 HD
HETATM   13  O3  UNL     1       0.191   6.776  15.109  1.00  0.00    -0.245 OA
HETATM   14  N6  UNL     1      -0.267   8.253  13.348  1.00  0.00    -0.138 N
ATOM     15  H6  UNL     1       0.647   8.694  13.248  1.00  0.00     0.189 HD
ENDBRANCH   5   7
BRANCH   1  16
HETATM   16  O1  UNL     1      -1.635  11.450   8.675  1.00  0.00    -0.160 OA
BRANCH  16  17
HETATM   17  N1  UNL     1      -0.692  12.385   8.880  1.00  0.00    -0.286 N
ATOM     18  H12 UNL     1       0.258  12.339   8.513  1.00  0.00     0.186 HD
ATOM     19  H11 UNL     1      -1.080  13.133   9.455  1.00  0.00     0.186 HD
ENDBRANCH  16  17
ENDBRANCH   1  16
TORSDOF 3
ENDMDL