MODEL 5
REMARK VINA RESULT: -5.676513611      2.837      4.712
REMARK  3 active torsions:
REMARK  status: ('A' for Active; 'I' for Inactive)
REMARK    1  A    between atoms: N1_1  and  O1_4
REMARK    2  A    between atoms: O1_4  and  C1_5
REMARK       I    between atoms: C1_5  and  N2_7
REMARK       I    between atoms: C2_9  and  N4_11
REMARK    3  A    between atoms: N4_11  and  N5_13
ROOT
HETATM    1  C1  UNL     1      -1.733  10.211   8.111  1.00  0.00     0.388 C
HETATM    2  O2  UNL     1      -0.955  10.728   7.265  1.00  0.00    -0.236 OA
HETATM    3  N2  UNL     1      -1.236   9.455   9.197  1.00  0.00    -0.274 N
ATOM      4  H2  UNL     1      -1.807   8.681   9.536  1.00  0.00     0.173 HD
HETATM    5  C2  UNL     1      -0.129   9.671   9.783  1.00  0.00     0.211 C
HETATM    6  N3  UNL     1       0.686  10.744   9.334  1.00  0.00    -0.062 NA
HETATM    7  N4  UNL     1       0.354   8.900  10.874  1.00  0.00    -0.271 N
ATOM      8  H4  UNL     1       1.316   8.562  10.893  1.00  0.00     0.189 HD
ENDROOT
BRANCH   7   9
HETATM    9  N5  UNL     1      -0.522   8.621  11.908  1.00  0.00    -0.274 N
HETATM   10  C3  UNL     1      -1.069   7.475  12.111  1.00  0.00     0.215 C
HETATM   11  N6  UNL     1      -0.807   6.380  11.262  1.00  0.00    -0.065 NA
HETATM   12  N7  UNL     1      -1.946   7.343  13.215  1.00  0.00    -0.065 NA
ATOM     13  H5  UNL     1      -0.748   9.376  12.556  1.00  0.00     0.189 HD
ENDBRANCH   7   9
BRANCH   1  14
HETATM   14  O1  UNL     1      -3.095  10.399   7.953  1.00  0.00    -0.188 OA
BRANCH  14  15
HETATM   15  N1  UNL     1      -4.039   9.860   8.792  1.00  0.00    -0.301 N
ATOM     16  H12 UNL     1      -4.783  10.478   9.112  1.00  0.00     0.184 HD
ATOM     17  H11 UNL     1      -4.029   8.889   9.103  1.00  0.00     0.184 HD
ENDBRANCH  14  15
ENDBRANCH   1  14
TORSDOF 3
ENDMDL