MODEL 5
REMARK VINA RESULT: -6.938396464      1.334      2.421
REMARK  2 active torsions:
REMARK  status: ('A' for Active; 'I' for Inactive)
REMARK    1  A    between atoms: N3_4  and  N4_6
REMARK    2  A    between atoms: N4_6  and  C2_8
ROOT
HETATM    1  C2  UNL     1      -1.401  10.037  10.203  1.00  0.00     0.705 A
HETATM    2  N5  UNL     1      -1.723   9.934   8.913  1.00  0.00    -0.139 N
ATOM      3  H5  UNL     1      -2.421   9.255   8.613  1.00  0.00     0.189 HD
HETATM    4  C3  UNL     1      -1.125  10.726   8.012  1.00  0.00     0.342 A
HETATM    5  O1  UNL     1      -1.437  10.618   6.806  1.00  0.00    -0.246 OA
HETATM    6  N6  UNL     1      -0.206  11.617   8.413  1.00  0.00    -0.260 N
ATOM      7  H6  UNL     1       0.248  12.219   7.726  1.00  0.00     0.175 HD
HETATM    8  C4  UNL     1       0.124  11.724   9.733  1.00  0.00     0.342 A
HETATM    9  O2  UNL     1       0.982  12.552  10.130  1.00  0.00    -0.246 OA
HETATM   10  N7  UNL     1      -0.480  10.925  10.635  1.00  0.00    -0.139 N
ATOM     11  H7  UNL     1      -0.247  10.990  11.626  1.00  0.00     0.189 HD
ENDROOT
BRANCH   1  12
HETATM   12  N4  UNL     1      -1.958   9.291  11.088  1.00  0.00    -0.130 N
ATOM     13  H4  UNL     1      -2.859   8.851  10.905  1.00  0.00     0.205 HD
BRANCH  12  14
HETATM   14  N3  UNL     1      -1.305   9.095  12.302  1.00  0.00    -0.262 N
HETATM   15  C1  UNL     1      -0.915   7.923  12.601  1.00  0.00     0.216 C
HETATM   16  N1  UNL     1      -1.127   6.839  11.741  1.00  0.00    -0.065 NA
HETATM   17  N2  UNL     1      -0.252   7.716  13.830  1.00  0.00    -0.065 NA
ATOM     18  H3  UNL     1      -1.143   9.877  12.939  1.00  0.00     0.190 HD
ENDBRANCH  12  14
ENDBRANCH   1  12
TORSDOF 2
ENDMDL