MODEL 2
REMARK VINA RESULT: -6.715165726      1.095      1.459
REMARK  1 active torsions:
REMARK  status: ('A' for Active; 'I' for Inactive)
REMARK       I    between atoms: C1_4  and  N3_6
REMARK    1  A    between atoms: N3_6  and  N4_8
ROOT
HETATM    1  N4  UNL     1      -1.897   9.453  11.252  1.00  0.00    -0.278 N
ATOM      2  H4  UNL     1      -2.893   9.239  11.211  1.00  0.00     0.189 HD
HETATM    3  C2  UNL     1      -1.342  10.117  10.314  1.00  0.00     0.193 A
HETATM    4  N5  UNL     1       0.014  10.510  10.191  1.00  0.00    -0.289 N
ATOM      5  H5  UNL     1       0.755  10.308  10.862  1.00  0.00     0.172 HD
HETATM    6  C3  UNL     1       0.169  11.226   8.993  1.00  0.00     0.328 A
HETATM    7  O1  UNL     1       1.260  11.735   8.556  1.00  0.00    -0.247 OA
HETATM    8  N6  UNL     1      -1.064  11.307   8.330  1.00  0.00    -0.272 N
ATOM      9  H6  UNL     1      -1.241  11.770   7.439  1.00  0.00     0.174 HD
HETATM   10  C4  UNL     1      -2.022  10.626   9.131  1.00  0.00     0.295 A
HETATM   11  O2  UNL     1      -3.259  10.498   8.836  1.00  0.00    -0.264 OA
ENDROOT
BRANCH   1  12
HETATM   12  N3  UNL     1      -1.126   9.023  12.336  1.00  0.00    -0.272 N
HETATM   13  C1  UNL     1      -0.614   7.710  12.329  1.00  0.00     0.200 C
HETATM   14  N1  UNL     1      -1.087   6.739  13.030  1.00  0.00    -0.372 N
HETATM   15  N2  UNL     1       0.505   7.437  11.491  1.00  0.00    -0.062 NA
ATOM     16  H12 UNL     1      -0.716   5.789  13.026  1.00  0.00     0.158 HD
ATOM     17  H11 UNL     1      -1.888   6.935  13.630  1.00  0.00     0.158 HD
ATOM     18  H3  UNL     1      -0.937   9.649  13.118  1.00  0.00     0.189 HD
ENDBRANCH   1  12
TORSDOF 1
ENDMDL