MODEL 3
REMARK VINA RESULT: -5.287613729      1.335      1.335
REMARK  2 active torsions:
REMARK  status: ('A' for Active; 'I' for Inactive)
REMARK       I    between atoms: N1_2  and  C2_4
REMARK    1  A    between atoms: C2_4  and  C3_6
REMARK       I    between atoms: C3_6  and  N2_8
REMARK    2  A    between atoms: N2_8  and  N3_10
ROOT
HETATM    1  C3  UNL     1      -0.797   8.599  10.978  1.00  0.00     0.327 C
HETATM    2  O2  UNL     1      -1.102   7.810  10.033  1.00  0.00    -0.261 OA
HETATM    3  N2  UNL     1      -0.335   9.914  10.730  1.00  0.00    -0.260 N
ATOM      4  H2  UNL     1      -0.097  10.530  11.508  1.00  0.00     0.190 HD
ENDROOT
BRANCH   1   5
HETATM    5  C2  UNL     1      -0.926   8.139  12.350  1.00  0.00     0.310 C
HETATM    6  N1  UNL     1      -1.702   8.896  13.257  1.00  0.00    -0.357 N
HETATM    7  C1  UNL     1      -1.832   8.438  14.628  1.00  0.00     0.149 C
ATOM      8  H1  UNL     1      -2.165   9.753  12.952  1.00  0.00     0.162 HD
HETATM    9  O1  UNL     1      -0.351   7.083  12.709  1.00  0.00    -0.262 OA
ENDBRANCH   1   5
BRANCH   3  10
HETATM   10  N3  UNL     1      -0.210  10.358   9.428  1.00  0.00    -0.273 N
HETATM   11  C4  UNL     1       0.341  11.488   9.186  1.00  0.00     0.215 C
HETATM   12  N4  UNL     1       0.818  12.277  10.259  1.00  0.00    -0.065 NA
HETATM   13  N5  UNL     1       0.454  11.913   7.838  1.00  0.00    -0.065 NA
ATOM     14  H3  UNL     1      -0.556   9.785   8.658  1.00  0.00     0.189 HD
ENDBRANCH   3  10
TORSDOF 2
ENDMDL