MODEL 4
REMARK VINA RESULT: -6.208789209      2.259      5.446
REMARK  3 active torsions:
REMARK  status: ('A' for Active; 'I' for Inactive)
REMARK    1  A    between atoms: C3_5  and  N2_6
REMARK       I    between atoms: N2_6  and  C4_8
REMARK    2  A    between atoms: N4_10  and  N5_12
REMARK    3  A    between atoms: N5_12  and  N6_14
ROOT
HETATM    1  N2  UNL     1      -1.405   9.008  11.158  1.00  0.00    -0.161 N
ATOM      2  H2  UNL     1      -2.423   8.965  11.103  1.00  0.00     0.187 HD
HETATM    3  C4  UNL     1      -0.692   9.908  10.318  1.00  0.00     0.222 C
HETATM    4  N3  UNL     1      -0.085   9.506   9.100  1.00  0.00    -0.061 NA
HETATM    5  N4  UNL     1      -0.588  11.144  10.675  1.00  0.00    -0.259 N
ATOM      6  H4  UNL     1      -1.023  11.434  11.551  1.00  0.00     0.191 HD
ENDROOT
BRANCH   1   7
HETATM    7  C3  UNL     1      -0.766   8.235  11.999  1.00  0.00     0.700 A
HETATM    8  N1  UNL     1      -0.072   7.122  11.702  1.00  0.00    -0.178 N
HETATM    9  C2  UNL     1       0.446   6.596  12.827  1.00  0.00     0.108 A
ATOM     10  H1  UNL     1       0.045   6.736  10.765  1.00  0.00     0.185 HD
HETATM   11  C1  UNL     1       1.288   5.363  12.977  1.00  0.00     0.091 C
HETATM   12  N8  UNL     1       0.050   7.419  13.817  1.00  0.00    -0.275 N
HETATM   13  N7  UNL     1      -0.682   8.413  13.333  1.00  0.00    -0.131 N
ATOM     14  H8  UNL     1       0.280   7.294  14.803  1.00  0.00     0.189 HD
ATOM     15  H7  UNL     1      -1.104   9.172  13.869  1.00  0.00     0.205 HD
ENDBRANCH   1   7
BRANCH   5  16
HETATM   16  N5  UNL     1       0.086  12.096   9.926  1.00  0.00    -0.247 N
ATOM     17  H5  UNL     1       1.008  12.413  10.226  1.00  0.00     0.207 HD
BRANCH  16  18
HETATM   18  N6  UNL     1      -0.482  12.626   8.764  1.00  0.00    -0.331 N
ATOM     19  H62 UNL     1      -1.437  12.981   8.806  1.00  0.00     0.178 HD
ATOM     20  H61 UNL     1       0.046  12.657   7.892  1.00  0.00     0.178 HD
ENDBRANCH  16  18
ENDBRANCH   5  16
TORSDOF 3
ENDMDL