MODEL 3
REMARK VINA RESULT: -6.384568009      2.268      3.131
REMARK  3 active torsions:
REMARK  status: ('A' for Active; 'I' for Inactive)
REMARK    1  A    between atoms: N1_1  and  N2_4
REMARK       I    between atoms: N2_4  and  C1_6
REMARK    2  A    between atoms: C1_6  and  C2_8
REMARK    3  A    between atoms: C2_8  and  N3_9
ROOT
HETATM    1  C2  UNL     1      -1.046  10.043   9.966  1.00  0.00     0.337 A
HETATM    2  N4  UNL     1      -2.404   9.605   9.776  1.00  0.00    -0.296 N
ATOM      3  H4  UNL     1      -2.970   9.076  10.440  1.00  0.00     0.167 HD
HETATM    4  C3  UNL     1      -2.803  10.050   8.492  1.00  0.00     0.324 A
HETATM    5  O2  UNL     1      -3.935   9.867   7.945  1.00  0.00    -0.247 OA
HETATM    6  N5  UNL     1      -1.699  10.736   7.936  1.00  0.00    -0.296 N
ATOM      7  H5  UNL     1      -1.698  11.166   7.012  1.00  0.00     0.171 HD
HETATM    8  C4  UNL     1      -0.703  10.749   8.736  1.00  0.00     0.164 A
HETATM    9  N6  UNL     1       0.525  11.395   8.372  1.00  0.00    -0.082 NA
ENDROOT
BRANCH   1  10
HETATM   10  C1  UNL     1      -0.169   8.850  10.195  1.00  0.00     0.300 C
HETATM   11  N2  UNL     1       0.223   8.440  11.485  1.00  0.00    -0.273 N
ATOM     12  H2  UNL     1      -0.091   8.960  12.305  1.00  0.00     0.189 HD
HETATM   13  O1  UNL     1       0.210   8.219   9.184  1.00  0.00    -0.266 OA
BRANCH  11  14
HETATM   14  N1  UNL     1       1.034   7.331  11.635  1.00  0.00    -0.342 N
ATOM     15  H12 UNL     1       1.941   7.436  12.092  1.00  0.00     0.176 HD
ATOM     16  H11 UNL     1       0.720   6.424  11.289  1.00  0.00     0.176 HD
ENDBRANCH  11  14
ENDBRANCH   1  10
BRANCH   1  17
HETATM   17  N3  UNL     1      -0.998  10.926  11.129  1.00  0.00    -0.036 N
ATOM     18  H33 UNL     1      -1.677  10.658  11.842  1.00  0.00     0.278 HD
ATOM     19  H32 UNL     1      -0.147  10.792  11.677  1.00  0.00     0.278 HD
ATOM     20  H31 UNL     1      -1.114  11.896  10.834  1.00  0.00     0.278 HD
ENDBRANCH   1  17
TORSDOF 3
ENDMDL