MODEL 1
REMARK VINA RESULT: -6.646938172      0.000      0.000
REMARK  3 active torsions:
REMARK  status: ('A' for Active; 'I' for Inactive)
REMARK       I    between atoms: N1_1  and  C1_4
REMARK       I    between atoms: C1_4  and  N3_6
REMARK    1  A    between atoms: N3_6  and  N4_8
REMARK    2  A    between atoms: N4_8  and  C2_10
REMARK    3  A    between atoms: N5_13  and  N6_14
ROOT
HETATM    1  C2  UNL     1      -1.730   9.166  10.611  1.00  0.00     0.137 A
HETATM    2  C3  UNL     1      -1.345   8.593  11.805  1.00  0.00     0.072 A
HETATM    3  C4  UNL     1      -0.960   7.263  11.794  1.00  0.00     0.141 A
HETATM    4  N5  UNL     1      -0.944   6.510  10.677  1.00  0.00    -0.200 N
HETATM    5  N7  UNL     1      -1.323   7.112   9.561  1.00  0.00    -0.221 N
ATOM      6  H7  UNL     1      -1.323   6.574   8.694  1.00  0.00     0.210 HD
HETATM    7  N8  UNL     1      -1.703   8.387   9.516  1.00  0.00    -0.268 N
ATOM      8  H8  UNL     1      -1.983   8.787   8.620  1.00  0.00     0.190 HD
ENDROOT
BRANCH   1   9
HETATM    9  N4  UNL     1      -2.111  10.392  10.487  1.00  0.00    -0.282 N
ATOM     10  H4  UNL     1      -2.249  10.939  11.336  1.00  0.00     0.188 HD
BRANCH   9  11
HETATM   11  N3  UNL     1      -2.343  11.011   9.274  1.00  0.00    -0.272 N
HETATM   12  C1  UNL     1      -1.247  11.439   8.499  1.00  0.00     0.200 C
HETATM   13  N1  UNL     1      -0.601  12.484   8.827  1.00  0.00    -0.372 N
HETATM   14  N2  UNL     1      -0.880  10.699   7.360  1.00  0.00    -0.062 NA
ATOM     15  H12 UNL     1       0.192  12.793   8.266  1.00  0.00     0.158 HD
ATOM     16  H11 UNL     1      -0.867  13.020   9.653  1.00  0.00     0.158 HD
ATOM     17  H3  UNL     1      -3.297  11.157   8.943  1.00  0.00     0.189 HD
ENDBRANCH   9  11
ENDBRANCH   1   9
BRANCH   4  18
HETATM   18  N6  UNL     1      -0.547   5.158  10.692  1.00  0.00    -0.323 N
ATOM     19  H62 UNL     1       0.182   4.820  11.320  1.00  0.00     0.179 HD
ATOM     20  H61 UNL     1      -0.970   4.462  10.079  1.00  0.00     0.179 HD
ENDBRANCH   4  18
TORSDOF 3
ENDMDL