MODEL 1
REMARK VINA RESULT: -6.462839140      0.000      0.000
REMARK  2 active torsions:
REMARK  status: ('A' for Active; 'I' for Inactive)
REMARK       I    between atoms: C1_2  and  N3_4
REMARK    1  A    between atoms: N3_4  and  N4_6
REMARK    2  A    between atoms: N4_6  and  C2_8
ROOT
HETATM    1  C2  UNL     1      -1.212  10.204  10.797  1.00  0.00     0.715 A
HETATM    2  N5  UNL     1      -2.058  10.839   9.957  1.00  0.00    -0.127 N
ATOM      3  H5  UNL     1      -3.072  10.862  10.056  1.00  0.00     0.206 HD
HETATM    4  N6  UNL     1      -1.379  11.423   8.990  1.00  0.00    -0.237 N
ATOM      5  H6  UNL     1      -1.781  11.968   8.226  1.00  0.00     0.192 HD
HETATM    6  C3  UNL     1      -0.075  11.183   9.176  1.00  0.00     0.353 A
HETATM    7  O1  UNL     1       0.889  11.587   8.440  1.00  0.00    -0.245 OA
HETATM    8  N7  UNL     1       0.013  10.432  10.290  1.00  0.00    -0.137 N
ATOM      9  H7  UNL     1       0.884  10.087  10.692  1.00  0.00     0.189 HD
ENDROOT
BRANCH   1  10
HETATM   10  N4  UNL     1      -1.443   9.523  11.850  1.00  0.00    -0.128 N
ATOM     11  H4  UNL     1      -2.266   9.785  12.393  1.00  0.00     0.205 HD
BRANCH  10  12
HETATM   12  N3  UNL     1      -0.698   8.476  12.326  1.00  0.00    -0.262 N
HETATM   13  C1  UNL     1      -0.902   8.028  13.499  1.00  0.00     0.216 C
HETATM   14  N1  UNL     1      -1.895   8.603  14.313  1.00  0.00    -0.065 NA
HETATM   15  N2  UNL     1      -0.134   6.956  13.981  1.00  0.00    -0.065 NA
ATOM     16  H3  UNL     1       0.022   8.056  11.739  1.00  0.00     0.190 HD
ENDBRANCH  10  12
ENDBRANCH   1  10
TORSDOF 2
ENDMDL