MODEL 3
REMARK VINA RESULT: -5.764264416      5.439      7.339
REMARK  0 active torsions:
REMARK  status: ('A' for Active; 'I' for Inactive)
REMARK       I    between atoms: C1_4  and  N3_6
ROOT
HETATM    1  N1  UNL     1      -4.237   4.198  15.011  1.00  0.00    -0.373 N
ATOM      2  H11 UNL     1      -4.830   4.843  14.488  1.00  0.00     0.158 HD
ATOM      3  H12 UNL     1      -4.347   3.185  14.963  1.00  0.00     0.158 HD
HETATM    4  C1  UNL     1      -3.314   4.686  15.759  1.00  0.00     0.200 C
HETATM    5  N2  UNL     1      -2.489   3.790  16.487  1.00  0.00    -0.063 NA
HETATM    6  N3  UNL     1      -3.161   6.099  15.826  1.00  0.00    -0.187 N
HETATM    7  C2  UNL     1      -4.002   6.902  16.498  1.00  0.00     0.341 A
HETATM    8  O1  UNL     1      -4.972   6.377  17.099  1.00  0.00    -0.246 OA
HETATM    9  N4  UNL     1      -3.874   8.232  16.572  1.00  0.00    -0.260 N
ATOM     10  H4  UNL     1      -4.543   8.794  17.099  1.00  0.00     0.175 HD
HETATM   11  C3  UNL     1      -2.840   8.810  15.933  1.00  0.00     0.332 A
HETATM   12  O2  UNL     1      -2.692  10.071  15.985  1.00  0.00    -0.246 OA
HETATM   13  N5  UNL     1      -1.958   8.044  15.237  1.00  0.00    -0.260 N
ATOM     14  H5  UNL     1      -1.171   8.475  14.751  1.00  0.00     0.175 HD
HETATM   15  C4  UNL     1      -2.134   6.711  15.196  1.00  0.00     0.341 A
HETATM   16  O3  UNL     1      -1.287   6.050  14.536  1.00  0.00    -0.246 OA
ENDROOT
TORSDOF 0
ENDMDL