MODEL 4
REMARK VINA RESULT: -5.884074636      3.058      3.686
REMARK  4 active torsions:
REMARK  status: ('A' for Active; 'I' for Inactive)
REMARK    1  A    between atoms: N1_1  and  N2_4
REMARK       I    between atoms: N2_4  and  C1_6
REMARK       I    between atoms: C1_6  and  N3_8
REMARK    2  A    between atoms: N3_8  and  N4_9
REMARK    3  A    between atoms: N4_9  and  C2_10
REMARK    4  A    between atoms: N8_17  and  O2_18
ROOT
HETATM    1  C2  UNL     1      -1.129  10.076   9.630  1.00  0.00     0.355 A
HETATM    2  N5  UNL     1      -1.593   9.735   8.375  1.00  0.00    -0.238 N
ATOM      3  H5  UNL     1      -2.112   8.888   8.147  1.00  0.00     0.193 HD
HETATM    4  N6  UNL     1      -1.265  10.659   7.540  1.00  0.00    -0.222 N
ATOM      5  H6  UNL     1      -1.478  10.666   6.543  1.00  0.00     0.210 HD
HETATM    6  N7  UNL     1      -0.619  11.575   8.186  1.00  0.00    -0.197 N
ATOM      7  H7  UNL     1      -0.248  12.420   7.750  1.00  0.00     0.212 HD
HETATM    8  N8  UNL     1      -0.496  11.301   9.446  1.00  0.00    -0.095 N
ENDROOT
BRANCH   1   9
HETATM    9  N4  UNL     1      -1.197   9.488  10.664  1.00  0.00    -0.200 NA
BRANCH   9  10
HETATM   10  N3  UNL     1      -1.272   8.841  11.719  1.00  0.00    -0.180 NA
HETATM   11  C1  UNL     1      -1.354   8.132  12.873  1.00  0.00     0.442 C
HETATM   12  N2  UNL     1      -0.118   7.726  13.460  1.00  0.00    -0.244 N
HETATM   13  O1  UNL     1      -2.386   7.786  13.488  1.00  0.00    -0.226 OA
ATOM     14  H2  UNL     1       0.774   7.964  13.025  1.00  0.00     0.192 HD
BRANCH  12  15
HETATM   15  N1  UNL     1      -0.168   6.999  14.640  1.00  0.00    -0.340 N
ATOM     16  H12 UNL     1      -0.881   7.206  15.339  1.00  0.00     0.177 HD
ATOM     17  H11 UNL     1       0.525   6.263  14.775  1.00  0.00     0.177 HD
ENDBRANCH  12  15
ENDBRANCH   9  10
ENDBRANCH   1   9
BRANCH   8  18
HETATM   18  O2  UNL     1       0.106  11.975  10.477  1.00  0.00    -0.263 OA
ATOM     19  H2  UNL     1       0.543  12.809  10.351  1.00  0.00     0.247 HD
ENDBRANCH   8  18
TORSDOF 4
ENDMDL