MODEL 5
REMARK VINA RESULT: -5.604869626      1.769      1.802
REMARK  2 active torsions:
REMARK  status: ('A' for Active; 'I' for Inactive)
REMARK       I    between atoms: N1_2  and  C2_4
REMARK       I    between atoms: C2_4  and  N2_6
REMARK    1  A    between atoms: N2_6  and  N3_8
REMARK       I    between atoms: N3_8  and  C3_10
REMARK    2  A    between atoms: C3_10  and  C4_12
ROOT
HETATM    1  C1  UNL     1      -0.217   6.626  14.415  1.00  0.00     0.151 C
HETATM    2  N1  UNL     1      -0.467   7.935  13.865  1.00  0.00    -0.346 N
ATOM      3  H1  UNL     1      -0.236   8.764  14.412  1.00  0.00     0.163 HD
HETATM    4  C2  UNL     1      -1.030   8.086  12.571  1.00  0.00     0.334 C
HETATM    5  O1  UNL     1      -1.313   7.039  11.902  1.00  0.00    -0.246 OA
HETATM    6  N2  UNL     1      -1.276   9.375  12.025  1.00  0.00    -0.249 N
ATOM      7  H2  UNL     1      -1.042  10.198  12.580  1.00  0.00     0.192 HD
ENDROOT
BRANCH   6   8
HETATM    8  N3  UNL     1      -1.828   9.553  10.755  1.00  0.00    -0.258 N
HETATM    9  C3  UNL     1      -1.151  10.212   9.699  1.00  0.00     0.325 C
HETATM   10  O2  UNL     1       0.006  10.669   9.889  1.00  0.00    -0.261 OA
ATOM     11  H3  UNL     1      -2.765   9.190  10.578  1.00  0.00     0.190 HD
BRANCH   9  12
HETATM   12  C4  UNL     1      -1.750  10.382   8.388  1.00  0.00     0.324 C
HETATM   13  N4  UNL     1      -3.134  10.224   8.133  1.00  0.00    -0.053 NA
HETATM   14  O3  UNL     1      -1.002  10.685   7.429  1.00  0.00    -0.266 OA
ENDBRANCH   9  12
ENDBRANCH   6   8
TORSDOF 2
ENDMDL