MODEL 4
REMARK VINA RESULT: -5.788339967      2.014      2.833
REMARK  3 active torsions:
REMARK  status: ('A' for Active; 'I' for Inactive)
REMARK    1  A    between atoms: C3_5  and  C4_6
REMARK    2  A    between atoms: C4_6  and  N2_7
REMARK    3  A    between atoms: N2_7  and  N3_9
ROOT
HETATM    1  C1  UNL     1      -0.213  11.666   8.753  1.00  0.00     0.047 C
HETATM    2  C2  UNL     1      -0.731  10.483   9.112  1.00  0.00     0.080 A
HETATM    3  N1  UNL     1       0.057   9.469   9.509  1.00  0.00    -0.339 N
ATOM      4  H1  UNL     1       1.066   9.624   9.529  1.00  0.00     0.167 HD
HETATM    5  C3  UNL     1      -0.401   8.277   9.876  1.00  0.00     0.125 A
HETATM    6  N4  UNL     1      -1.725   8.072   9.849  1.00  0.00    -0.305 N
ATOM      7  H4  UNL     1      -2.099   7.165  10.126  1.00  0.00     0.170 HD
HETATM    8  C5  UNL     1      -2.572   9.051   9.460  1.00  0.00     0.299 A
HETATM    9  O1  UNL     1      -3.801   8.886   9.428  1.00  0.00    -0.264 OA
HETATM   10  C6  UNL     1      -2.086  10.303   9.076  1.00  0.00     0.265 A
HETATM   11  O2  UNL     1      -2.898  11.199   8.718  1.00  0.00    -0.280 OA
ENDROOT
BRANCH   5  12
HETATM   12  C4  UNL     1       0.411   7.301  10.260  1.00  0.00     0.155 C
BRANCH  12  13
HETATM   13  N2  UNL     1       1.073   7.318  11.496  1.00  0.00    -0.315 N
ATOM     14  H2  UNL     1       2.091   7.263  11.528  1.00  0.00     0.185 HD
BRANCH  13  15
HETATM   15  N3  UNL     1       0.348   7.411  12.673  1.00  0.00    -0.345 N
ATOM     16  H32 UNL     1      -0.194   6.605  12.983  1.00  0.00     0.176 HD
ATOM     17  H31 UNL     1       0.362   8.274  13.216  1.00  0.00     0.176 HD
ENDBRANCH  13  15
ENDBRANCH  12  13
ENDBRANCH   5  12
TORSDOF 3
ENDMDL