MODEL 5
REMARK VINA RESULT: -5.874875657      2.184      3.611
REMARK  2 active torsions:
REMARK  status: ('A' for Active; 'I' for Inactive)
REMARK    1  A    between atoms: N3_4  and  C2_6
REMARK    2  A    between atoms: C2_6  and  N4_7
ROOT
HETATM    1  C2  UNL     1      -1.151   9.460  10.830  1.00  0.00     0.360 C
HETATM    2  N5  UNL     1      -0.256   8.383  10.437  1.00  0.00    -0.285 N
ATOM      3  H5  UNL     1       0.763   8.384  10.472  1.00  0.00     0.169 HD
HETATM    4  C3  UNL     1      -1.110   7.319   9.992  1.00  0.00     0.326 C
HETATM    5  O1  UNL     1      -0.754   6.105   9.915  1.00  0.00    -0.247 OA
HETATM    6  N6  UNL     1      -2.376   7.883   9.670  1.00  0.00    -0.274 N
ATOM      7  H6  UNL     1      -3.193   7.379   9.325  1.00  0.00     0.173 HD
HETATM    8  C4  UNL     1      -2.290   9.285   9.919  1.00  0.00     0.304 C
HETATM    9  O2  UNL     1      -3.076  10.127   9.415  1.00  0.00    -0.266 OA
ENDROOT
BRANCH   1  10
HETATM   10  N3  UNL     1      -0.535  10.728  10.795  1.00  0.00    -0.309 N
HETATM   11  C1  UNL     1       0.126  11.264   9.858  1.00  0.00     0.200 C
HETATM   12  N1  UNL     1       0.373  10.637   8.605  1.00  0.00    -0.067 NA
HETATM   13  N2  UNL     1       0.656  12.568  10.063  1.00  0.00    -0.067 NA
ATOM     14  H3  UNL     1      -0.635  11.290  11.640  1.00  0.00     0.166 HD
ENDBRANCH   1  10
BRANCH   1  15
HETATM   15  N4  UNL     1      -1.525   9.175  12.222  1.00  0.00    -0.024 N
ATOM     16  H43 UNL     1      -2.440   8.731  12.302  1.00  0.00     0.280 HD
ATOM     17  H42 UNL     1      -0.971   8.424  12.634  1.00  0.00     0.280 HD
ATOM     18  H41 UNL     1      -1.461  10.046  12.750  1.00  0.00     0.280 HD
ENDBRANCH   1  15
TORSDOF 2
ENDMDL