MODEL 5
REMARK VINA RESULT: -6.542416435      1.226      2.609
REMARK  1 active torsions:
REMARK  status: ('A' for Active; 'I' for Inactive)
REMARK       I    between atoms: C1_4  and  N3_6
REMARK    1  A    between atoms: N3_6  and  C2_8
ROOT
HETATM    1  C2  UNL     1      -0.712   9.507  10.330  1.00  0.00     0.692 A
HETATM    2  N4  UNL     1      -0.088  10.601   9.852  1.00  0.00    -0.141 N
ATOM      3  H4  UNL     1       0.881  10.778  10.116  1.00  0.00     0.189 HD
HETATM    4  C3  UNL     1      -0.716  11.461   9.036  1.00  0.00     0.342 A
HETATM    5  O1  UNL     1      -0.152  12.483   8.582  1.00  0.00    -0.246 OA
HETATM    6  N5  UNL     1      -1.989  11.242   8.679  1.00  0.00    -0.260 N
ATOM      7  H5  UNL     1      -2.481  11.886   8.059  1.00  0.00     0.175 HD
HETATM    8  C4  UNL     1      -2.594  10.151   9.163  1.00  0.00     0.342 A
HETATM    9  O2  UNL     1      -3.802   9.901   8.853  1.00  0.00    -0.246 OA
HETATM   10  N6  UNL     1      -1.993   9.277   9.978  1.00  0.00    -0.141 N
ATOM     11  H6  UNL     1      -2.491   8.457  10.324  1.00  0.00     0.189 HD
ENDROOT
BRANCH   1  12
HETATM   12  N3  UNL     1      -0.083   8.702  11.110  1.00  0.00    -0.163 N
HETATM   13  C1  UNL     1      -0.815   7.983  12.089  1.00  0.00     0.200 C
HETATM   14  N1  UNL     1      -1.097   8.562  13.191  1.00  0.00    -0.373 N
HETATM   15  N2  UNL     1      -1.206   6.657  11.810  1.00  0.00    -0.063 NA
ATOM     16  H12 UNL     1      -1.624   8.044  13.895  1.00  0.00     0.158 HD
ATOM     17  H11 UNL     1      -0.815   9.521  13.393  1.00  0.00     0.158 HD
ATOM     18  H3  UNL     1       0.927   8.583  11.027  1.00  0.00     0.187 HD
ENDBRANCH   1  12
TORSDOF 1
ENDMDL