MODEL 3
REMARK VINA RESULT: -6.385938897      1.498      1.697
REMARK  3 active torsions:
REMARK  status: ('A' for Active; 'I' for Inactive)
REMARK    1  A    between atoms: C2_2  and  N1_3
REMARK    2  A    between atoms: C2_2  and  C3_7
REMARK       I    between atoms: C3_7  and  N2_9
REMARK    3  A    between atoms: N2_9  and  N3_11
ROOT
HETATM    1  C3  UNL     1      -1.529   8.667  11.350  1.00  0.00     0.267 C
HETATM    2  O1  UNL     1      -1.552   7.880  10.374  1.00  0.00    -0.269 OA
HETATM    3  N2  UNL     1      -1.108   9.994  11.133  1.00  0.00    -0.244 N
ATOM      4  H2  UNL     1      -1.082  10.651  11.912  1.00  0.00     0.192 HD
ENDROOT
BRANCH   3   5
HETATM    5  N3  UNL     1      -0.726  10.413   9.858  1.00  0.00    -0.124 N
HETATM    6  N4  UNL     1       0.539  10.302   9.233  1.00  0.00     0.019 NA
HETATM    7  N5  UNL     1       0.643  11.475   8.507  1.00  0.00    -0.003 NA
HETATM    8  N6  UNL     1      -0.632  11.786   8.030  1.00  0.00    -0.234 N
HETATM    9  C4  UNL     1      -1.533  11.061   8.875  1.00  0.00     0.371 C
ATOM     10  H6  UNL     1      -0.871  12.398   7.250  1.00  0.00     0.189 HD
HETATM   11  O2  UNL     1      -2.772  11.005   8.775  1.00  0.00    -0.242 OA
ENDBRANCH   3   5
BRANCH   1  12
HETATM   12  C2  UNL     1      -1.947   8.147  12.672  1.00  0.00     0.272 C
HETATM   13  C1  UNL     1      -1.513   6.715  12.905  1.00  0.00     0.050 C
BRANCH  12  14
HETATM   14  N1  UNL     1      -1.381   8.951  13.734  1.00  0.00    -0.067 N
ATOM     15  H13 UNL     1      -2.054   9.599  14.145  1.00  0.00     0.275 HD
ATOM     16  H12 UNL     1      -1.181   8.413  14.577  1.00  0.00     0.275 HD
ATOM     17  H11 UNL     1      -0.557   9.421  13.357  1.00  0.00     0.275 HD
ENDBRANCH  12  14
ENDBRANCH   1  12
TORSDOF 3
ENDMDL