MODEL 2
REMARK VINA RESULT: -6.229196021      2.639      3.590
REMARK  2 active torsions:
REMARK  status: ('A' for Active; 'I' for Inactive)
REMARK    1  A    between atoms: N1_1  and  N2_4
REMARK       I    between atoms: N2_4  and  C1_6
REMARK    2  A    between atoms: N4_8  and  C2_10
ROOT
HETATM    1  C2  UNL     1      -0.355   9.915   9.720  1.00  0.00     0.181 A
HETATM    2  N5  UNL     1      -1.006   9.592   8.649  1.00  0.00    -0.290 N
ATOM      3  H5  UNL     1      -1.381   8.662   8.468  1.00  0.00     0.172 HD
HETATM    4  C3  UNL     1      -1.135  10.674   7.766  1.00  0.00     0.328 A
HETATM    5  O1  UNL     1      -1.696  10.748   6.639  1.00  0.00    -0.247 OA
HETATM    6  N6  UNL     1      -0.486  11.784   8.373  1.00  0.00    -0.272 N
ATOM      7  H6  UNL     1      -0.403  12.723   7.984  1.00  0.00     0.174 HD
HETATM    8  C4  UNL     1       0.026  11.338   9.624  1.00  0.00     0.293 A
HETATM    9  O2  UNL     1       0.669  11.983  10.491  1.00  0.00    -0.264 OA
ENDROOT
BRANCH   1  10
HETATM   10  N4  UNL     1      -0.021   9.109  10.836  1.00  0.00    -0.311 N
HETATM   11  C1  UNL     1      -0.947   8.528  11.497  1.00  0.00     0.208 C
HETATM   12  N2  UNL     1      -0.596   7.729  12.605  1.00  0.00    -0.280 N
HETATM   13  N3  UNL     1      -2.292   8.708  11.092  1.00  0.00    -0.062 NA
ATOM     14  H2  UNL     1      -0.372   6.741  12.482  1.00  0.00     0.189 HD
ATOM     15  H4  UNL     1       0.954   8.992  11.109  1.00  0.00     0.170 HD
BRANCH  12  16
HETATM   16  N1  UNL     1      -0.561   8.309  13.867  1.00  0.00    -0.343 N
ATOM     17  H12 UNL     1       0.079   9.083  14.048  1.00  0.00     0.176 HD
ATOM     18  H11 UNL     1      -1.180   7.948  14.594  1.00  0.00     0.176 HD
ENDBRANCH  12  16
ENDBRANCH   1  10
TORSDOF 2
ENDMDL