MODEL 4
REMARK VINA RESULT: -6.084898197      7.597      8.718
REMARK  6 active torsions:
REMARK  status: ('A' for Active; 'I' for Inactive)
REMARK    1  A    between atoms: C3_4  and  C4_5
REMARK    2  A    between atoms: C4_5  and  O1_6
REMARK    3  A    between atoms: C4_5  and  N2_8
REMARK    4  A    between atoms: N2_8  and  N3_10
REMARK    5  A    between atoms: C5_15  and  N5_16
REMARK    6  A    between atoms: C6_21  and  N7_22
ROOT
HETATM    1  N1  UNL     1       0.812   8.416  12.822  1.00  0.00    -0.191 NA
HETATM    2  C1  UNL     1       0.673   8.852  11.782  1.00  0.00     0.106 C
HETATM    3  C2  UNL     1       0.457   9.427  10.482  1.00  0.00     0.120 A
HETATM    4  C3  UNL     1       0.597   8.689   9.351  1.00  0.00     0.125 A
HETATM    5  N4  UNL     1       0.293   9.323   8.169  1.00  0.00    -0.186 N
ATOM      6  H4  UNL     1       0.387   8.793   7.302  1.00  0.00     0.184 HD
HETATM    7  C5  UNL     1      -0.118  10.589   8.088  1.00  0.00     0.678 A
HETATM    8  N6  UNL     1      -0.244  11.293   9.240  1.00  0.00    -0.176 N
ATOM      9  H6  UNL     1      -0.558  12.262   9.192  1.00  0.00     0.186 HD
HETATM   10  C6  UNL     1       0.027  10.763  10.429  1.00  0.00     0.138 A
ENDROOT
BRANCH   4  11
HETATM   11  C4  UNL     1       1.102   7.323   9.270  1.00  0.00     0.184 C
BRANCH  11  12
HETATM   12  O1  UNL     1       2.123   7.025  10.027  1.00  0.00    -0.343 OA
ATOM     13  H1  UNL     1       2.656   6.286   9.759  1.00  0.00     0.219 HD
ENDBRANCH  11  12
BRANCH  11  14
HETATM   14  N2  UNL     1       0.640   6.265   8.492  1.00  0.00    -0.285 N
ATOM     15  H2  UNL     1      -0.199   5.747   8.756  1.00  0.00     0.188 HD
BRANCH  14  16
HETATM   16  N3  UNL     1       1.369   5.929   7.323  1.00  0.00    -0.343 N
ATOM     17  H32 UNL     1       1.159   6.392   6.439  1.00  0.00     0.176 HD
ATOM     18  H31 UNL     1       2.098   5.219   7.400  1.00  0.00     0.176 HD
ENDBRANCH  14  16
ENDBRANCH  11  14
ENDBRANCH   4  11
BRANCH  10  19
HETATM   19  N7  UNL     1      -0.095  11.438  11.511  1.00  0.00    -0.384 N
ATOM     20  H72 UNL     1       0.287  11.106  12.396  1.00  0.00     0.157 HD
ATOM     21  H71 UNL     1      -0.584  12.334  11.500  1.00  0.00     0.157 HD
ENDBRANCH  10  19
BRANCH   7  22
HETATM   22  N5  UNL     1      -0.399  11.155   6.951  1.00  0.00    -0.234 N
ATOM     23  H52 UNL     1      -1.009  10.680   6.287  1.00  0.00     0.174 HD
ATOM     24  H51 UNL     1      -0.027  12.069   6.693  1.00  0.00     0.174 HD
ENDBRANCH   7  22
TORSDOF 6
ENDMDL