MODEL 1
REMARK VINA RESULT: -6.566942194      0.000      0.000
REMARK  3 active torsions:
REMARK  status: ('A' for Active; 'I' for Inactive)
REMARK       I    between atoms: C1_4  and  N2_5
REMARK       I    between atoms: C1_4  and  N4_10
REMARK    1  A    between atoms: N2_5  and  N3_7
REMARK       I    between atoms: N4_10  and  C2_12
REMARK    2  A    between atoms: C2_12  and  C3_14
REMARK    3  A    between atoms: N5_18  and  N6_19
ROOT
HETATM    1  N1  UNL     1       1.351  12.360  10.208  1.00  0.00    -0.233 N
ATOM      2  H11 UNL     1       1.886  12.529  11.060  1.00  0.00     0.174 HD
ATOM      3  H12 UNL     1       1.476  12.929   9.371  1.00  0.00     0.174 HD
HETATM    4  C1  UNL     1       0.497  11.399  10.196  1.00  0.00     0.693 C
HETATM    5  N2  UNL     1      -0.240  11.166   9.024  1.00  0.00    -0.139 N
ATOM      6  H2  UNL     1       0.044  10.398   8.416  1.00  0.00     0.205 HD
HETATM    7  N4  UNL     1       0.325  10.612  11.354  1.00  0.00    -0.153 N
ATOM      8  H4  UNL     1       0.873  10.804  12.191  1.00  0.00     0.187 HD
HETATM    9  C2  UNL     1      -0.618   9.549  11.344  1.00  0.00     0.288 C
HETATM   10  O1  UNL     1      -1.276   9.331  10.316  1.00  0.00    -0.265 OA
ENDROOT
BRANCH   9  11
HETATM   11  C3  UNL     1      -0.830   8.706  12.521  1.00  0.00     0.133 A
HETATM   12  C4  UNL     1      -0.995   7.407  12.689  1.00  0.00     0.113 A
HETATM   13  C5  UNL     1      -1.109   7.644  14.119  1.00  0.00     0.269 A
HETATM   14  O2  UNL     1      -1.291   6.949  15.166  1.00  0.00    -0.266 OA
HETATM   15  N5  UNL     1      -0.931   9.034  13.922  1.00  0.00    -0.222 N
BRANCH  15  16
HETATM   16  N6  UNL     1      -0.869  10.224  14.662  1.00  0.00    -0.335 N
ATOM     17  H62 UNL     1      -0.212  10.973  14.884  1.00  0.00     0.177 HD
ATOM     18  H61 UNL     1      -1.525  10.737  15.250  1.00  0.00     0.177 HD
ENDBRANCH  15  16
ENDBRANCH   9  11
BRANCH   5  19
HETATM   19  N3  UNL     1      -1.341  11.937   8.653  1.00  0.00    -0.331 N
ATOM     20  H32 UNL     1      -1.157  12.826   8.187  1.00  0.00     0.177 HD
ATOM     21  H31 UNL     1      -2.304  11.650   8.828  1.00  0.00     0.177 HD
ENDBRANCH   5  19
TORSDOF 3
ENDMDL