MODEL 1
REMARK VINA RESULT: -6.321992115      0.000      0.000
REMARK  3 active torsions:
REMARK  status: ('A' for Active; 'I' for Inactive)
REMARK    1  A    between atoms: C1_4  and  O1_6
REMARK    2  A    between atoms: O1_6  and  C2_7
REMARK    3  A    between atoms: C2_7  and  C3_8
ROOT
HETATM    1  C2  UNL     1      -1.286   7.050  16.439  1.00  0.00     0.335 C
HETATM    2  C4  UNL     1      -0.500   6.314  17.529  1.00  0.00     0.311 C
HETATM    3  N4  UNL     1       0.802   6.033  16.987  1.00  0.00    -0.069 N
ATOM      4  H41 UNL     1       1.455   5.778  17.728  1.00  0.00     0.277 HD
ATOM      5  H42 UNL     1       1.248   6.888  16.655  1.00  0.00     0.277 HD
HETATM    6  C5  UNL     1       0.786   5.028  15.950  1.00  0.00     0.260 C
HETATM    7  C6  UNL     1      -0.476   5.171  15.171  1.00  0.00     0.264 C
HETATM    8  N5  UNL     1      -0.972   6.545  15.132  1.00  0.00    -0.030 N
ATOM      9  H51 UNL     1      -0.317   7.159  14.648  1.00  0.00     0.281 HD
ATOM     10  H52 UNL     1      -1.771   6.630  14.503  1.00  0.00     0.281 HD
ENDROOT
BRANCH   1  11
HETATM   11  O1  UNL     1      -1.023   8.407  16.610  1.00  0.00    -0.275 OA
BRANCH  11  12
HETATM   12  C1  UNL     1      -1.327   9.338  15.633  1.00  0.00     0.227 C
HETATM   13  N1  UNL     1      -2.152  10.258  15.957  1.00  0.00    -0.368 N
ATOM     14  H12 UNL     1      -2.377  10.944  15.236  1.00  0.00     0.159 HD
ATOM     15  H11 UNL     1      -2.546  10.273  16.898  1.00  0.00     0.159 HD
HETATM   16  N2  UNL     1      -0.780   9.317  14.323  1.00  0.00    -0.057 NA
ENDBRANCH  11  12
ENDBRANCH   1  11
BRANCH   1  17
HETATM   17  C3  UNL     1      -2.727   6.775  16.721  1.00  0.00     0.297 C
HETATM   18  N3  UNL     1      -3.778   7.565  16.186  1.00  0.00    -0.058 NA
HETATM   19  O2  UNL     1      -3.077   5.808  17.466  1.00  0.00    -0.271 OA
ENDBRANCH   1  17
TORSDOF 3
ENDMDL