MODEL 4
REMARK VINA RESULT: -6.711552080      5.921      8.301
REMARK  3 active torsions:
REMARK  status: ('A' for Active; 'I' for Inactive)
REMARK    1  A    between atoms: C2_3  and  N2_4
REMARK    2  A    between atoms: C3_9  and  C4_10
REMARK    3  A    between atoms: C6_14  and  N5_15
ROOT
HETATM    1  C1  UNL     1      -0.542   9.243  13.554  1.00  0.00     0.177 C
HETATM    2  N1  UNL     1      -0.482   8.379  14.702  1.00  0.00    -0.171 N
HETATM    3  C2  UNL     1      -1.247   8.684  15.764  1.00  0.00     0.680 A
HETATM    4  N3  UNL     1      -1.254   7.932  16.880  1.00  0.00    -0.186 N
ATOM      5  H3  UNL     1      -1.855   8.213  17.654  1.00  0.00     0.184 HD
HETATM    6  C3  UNL     1      -0.488   6.806  17.021  1.00  0.00     0.131 A
HETATM    7  C5  UNL     1       0.292   6.478  15.961  1.00  0.00     0.087 A
HETATM    8  C6  UNL     1       1.173   5.447  15.732  1.00  0.00     0.130 A
HETATM    9  N6  UNL     1       1.662   5.649  14.474  1.00  0.00    -0.283 N
ATOM     10  H6  UNL     1       2.343   5.054  14.004  1.00  0.00     0.188 HD
HETATM   11  N7  UNL     1       1.117   6.733  13.959  1.00  0.00    -0.282 N
ATOM     12  H7  UNL     1       1.316   7.098  13.028  1.00  0.00     0.188 HD
HETATM   13  C7  UNL     1       0.273   7.279  14.823  1.00  0.00     0.154 A
ENDROOT
BRANCH   3  14
HETATM   14  N2  UNL     1      -2.006   9.730  15.728  1.00  0.00    -0.234 N
ATOM     15  H22 UNL     1      -1.957  10.333  14.908  1.00  0.00     0.174 HD
ATOM     16  H21 UNL     1      -2.630   9.929  16.510  1.00  0.00     0.174 HD
ENDBRANCH   3  14
BRANCH   6  17
HETATM   17  C4  UNL     1      -0.592   6.098  18.260  1.00  0.00     0.283 C
HETATM   18  N4  UNL     1      -1.265   4.810  18.248  1.00  0.00    -0.056 NA
HETATM   19  O1  UNL     1      -0.186   6.416  19.389  1.00  0.00    -0.269 OA
ENDBRANCH   6  17
BRANCH   8  20
HETATM   20  N5  UNL     1       1.486   4.488  16.522  1.00  0.00    -0.384 N
ATOM     21  H52 UNL     1       1.469   3.493  16.299  1.00  0.00     0.157 HD
ATOM     22  H51 UNL     1       1.800   4.550  17.491  1.00  0.00     0.157 HD
ENDBRANCH   8  20
TORSDOF 3
ENDMDL