MODEL 3
REMARK VINA RESULT: -6.192911445      1.878      4.687
REMARK  5 active torsions:
REMARK  status: ('A' for Active; 'I' for Inactive)
REMARK    1  A    between atoms: N1_1  and  C1_4
REMARK    2  A    between atoms: C2_7  and  C3_8
REMARK    3  A    between atoms: C3_8  and  N3_9
REMARK    4  A    between atoms: C3_8  and  N4_13
REMARK    5  A    between atoms: C5_21  and  N6_22
ROOT
HETATM    1  C1  UNL     1       0.032  10.518   7.949  1.00  0.00     0.690 C
HETATM    2  N2  UNL     1       0.186   9.180   8.162  1.00  0.00    -0.186 N
ATOM      3  H2  UNL     1      -0.136   8.585   7.399  1.00  0.00     0.184 HD
HETATM    4  C2  UNL     1       0.695   8.521   9.215  1.00  0.00     0.152 C
HETATM    5  C4  UNL     1       0.987   9.080  10.441  1.00  0.00     0.286 C
HETATM    6  O1  UNL     1       1.287   8.284  11.362  1.00  0.00    -0.265 OA
HETATM    7  N5  UNL     1       1.007  10.377  10.839  1.00  0.00    -0.154 N
ATOM      8  H5  UNL     1       1.112  10.554  11.838  1.00  0.00     0.187 HD
HETATM    9  C5  UNL     1       0.900  11.454  10.033  1.00  0.00     0.693 C
HETATM   10  N7  UNL     1       0.391  11.514   8.779  1.00  0.00    -0.023 N
ATOM     11  H7  UNL     1       0.259  12.455   8.410  1.00  0.00     0.203 HD
ENDROOT
BRANCH   4  12
HETATM   12  C3  UNL     1       0.973   7.070   9.060  1.00  0.00     0.433 C
BRANCH  12  13
HETATM   13  N3  UNL     1       1.668   6.825   7.785  1.00  0.00    -0.045 N
ATOM     14  H33 UNL     1       1.015   6.665   7.018  1.00  0.00     0.277 HD
ATOM     15  H32 UNL     1       2.116   7.667   7.425  1.00  0.00     0.277 HD
ATOM     16  H31 UNL     1       2.330   6.055   7.891  1.00  0.00     0.277 HD
ENDBRANCH  12  13
BRANCH  12  17
HETATM   17  N4  UNL     1      -0.247   6.298   9.087  1.00  0.00    -0.045 N
ATOM     18  H43 UNL     1      -1.031   6.849   9.437  1.00  0.00     0.277 HD
ATOM     19  H42 UNL     1      -0.595   6.113   8.146  1.00  0.00     0.277 HD
ATOM     20  H41 UNL     1      -0.127   5.436   9.619  1.00  0.00     0.277 HD
ENDBRANCH  12  17
ENDBRANCH   4  12
BRANCH   1  21
HETATM   21  N1  UNL     1      -0.513  10.891   6.840  1.00  0.00    -0.234 N
ATOM     22  H12 UNL     1      -1.159  11.678   6.912  1.00  0.00     0.174 HD
ATOM     23  H11 UNL     1      -0.262  10.382   5.993  1.00  0.00     0.174 HD
ENDBRANCH   1  21
BRANCH   9  24
HETATM   24  N6  UNL     1       1.326  12.594  10.476  1.00  0.00    -0.234 N
ATOM     25  H62 UNL     1       0.611  13.321  10.492  1.00  0.00     0.174 HD
ATOM     26  H61 UNL     1       2.303  12.664  10.762  1.00  0.00     0.174 HD
ENDBRANCH   9  24
TORSDOF 5
ENDMDL