MODEL 4
REMARK VINA RESULT: -6.315771016      2.710      3.263
REMARK  3 active torsions:
REMARK  status: ('A' for Active; 'I' for Inactive)
REMARK       I    between atoms: C1_4  and  N3_6
REMARK    1  A    between atoms: N3_6  and  C2_8
REMARK    2  A    between atoms: C3_11  and  N5_12
REMARK    3  A    between atoms: N5_12  and  N6_13
ROOT
HETATM    1  C2  UNL     1       0.597   8.462   9.356  1.00  0.00     0.683 A
HETATM    2  N4  UNL     1       1.271   9.500   9.117  1.00  0.00    -0.199 N
ATOM      3  H4  UNL     1       2.283   9.414   9.214  1.00  0.00     0.180 HD
HETATM    4  C3  UNL     1       0.777  10.790   8.723  1.00  0.00     0.290 A
HETATM    5  C4  UNL     1      -0.685  10.767   8.624  1.00  0.00     0.231 A
HETATM    6  O1  UNL     1      -1.236  11.858   8.282  1.00  0.00    -0.286 OA
HETATM    7  C5  UNL     1      -1.450   9.574   8.900  1.00  0.00     0.181 A
HETATM    8  N7  UNL     1      -2.864   9.653   8.778  1.00  0.00    -0.078 NA
HETATM    9  N8  UNL     1      -0.829   8.507   9.242  1.00  0.00    -0.175 N
ATOM     10  H8  UNL     1      -1.367   7.663   9.439  1.00  0.00     0.185 HD
ENDROOT
BRANCH   1  11
HETATM   11  N3  UNL     1       1.198   7.213   9.746  1.00  0.00    -0.164 N
HETATM   12  C1  UNL     1       1.487   6.226   8.779  1.00  0.00     0.200 C
HETATM   13  N1  UNL     1       1.273   6.458   7.539  1.00  0.00    -0.373 N
HETATM   14  N2  UNL     1       2.015   4.970   9.152  1.00  0.00    -0.063 NA
ATOM     15  H12 UNL     1       1.482   5.745   6.840  1.00  0.00     0.158 HD
ATOM     16  H11 UNL     1       0.893   7.365   7.270  1.00  0.00     0.158 HD
ATOM     17  H3  UNL     1       1.416   7.041  10.728  1.00  0.00     0.187 HD
ENDBRANCH   1  11
BRANCH   4  18
HETATM   18  N5  UNL     1       1.264  11.821   9.619  1.00  0.00    -0.114 NA
BRANCH  18  19
HETATM   19  N6  UNL     1       0.535  11.707  10.813  1.00  0.00    -0.346 N
ATOM     20  H62 UNL     1       0.178  10.838  11.211  1.00  0.00     0.172 HD
ATOM     21  H61 UNL     1       0.435  12.648  11.193  1.00  0.00     0.172 HD
ENDBRANCH  18  19
ENDBRANCH   4  18
TORSDOF 3
ENDMDL