MODEL 3
REMARK VINA RESULT: -6.349435151      2.199      3.006
REMARK  2 active torsions:
REMARK  status: ('A' for Active; 'I' for Inactive)
REMARK    1  A    between atoms: C5_10  and  N5_11
REMARK       I    between atoms: N5_11  and  C6_13
REMARK       I    between atoms: C6_13  and  N7_17
REMARK    2  A    between atoms: N7_17  and  N8_19
ROOT
HETATM    1  N1  UNL     1       2.735   5.728  12.953  1.00  0.00    -0.170 NA
HETATM    2  C1  UNL     1       2.078   6.291  13.721  1.00  0.00     0.217 C
HETATM    3  N2  UNL     1       1.267   7.000  14.648  1.00  0.00    -0.020 N
HETATM    4  N3  UNL     1       1.312   6.456  15.922  1.00  0.00    -0.109 NA
HETATM    5  C2  UNL     1      -0.009   6.279  16.434  1.00  0.00     0.138 C
HETATM    6  C3  UNL     1      -0.485   7.641  16.933  1.00  0.00     0.038 C
HETATM    7  C4  UNL     1      -1.256   8.275  15.831  1.00  0.00     0.139 C
HETATM    8  N4  UNL     1      -0.499   8.635  14.678  1.00  0.00    -0.223 N
ATOM      9  H4  UNL     1      -0.857   9.444  14.170  1.00  0.00     0.177 HD
HETATM   10  C5  UNL     1       0.557   8.110  14.174  1.00  0.00     0.720 C
ENDROOT
BRANCH  10  11
HETATM   11  N5  UNL     1       1.091   8.699  13.000  1.00  0.00    -0.019 N
HETATM   12  C6  UNL     1       0.351   8.911  11.816  1.00  0.00     0.704 C
HETATM   13  N6  UNL     1      -0.577   8.106  11.439  1.00  0.00    -0.233 N
HETATM   14  N7  UNL     1       0.643  10.044  11.020  1.00  0.00    -0.139 N
ATOM     15  H62 UNL     1      -0.788   7.290  12.013  1.00  0.00     0.174 HD
ATOM     16  H61 UNL     1      -1.111   8.260  10.584  1.00  0.00     0.174 HD
ATOM     17  H7  UNL     1       1.301   9.982  10.243  1.00  0.00     0.205 HD
ATOM     18  H5  UNL     1       2.069   8.987  13.012  1.00  0.00     0.203 HD
BRANCH  14  19
HETATM   19  N8  UNL     1       0.010  11.247  11.324  1.00  0.00    -0.331 N
ATOM     20  H82 UNL     1      -0.238  11.461  12.291  1.00  0.00     0.177 HD
ATOM     21  H81 UNL     1      -0.193  11.893  10.562  1.00  0.00     0.177 HD
ENDBRANCH  14  19
ENDBRANCH  10  11
TORSDOF 2
ENDMDL