MODEL 3
REMARK VINA RESULT: -6.392244975      1.576      1.588
REMARK  3 active torsions:
REMARK  status: ('A' for Active; 'I' for Inactive)
REMARK    1  A    between atoms: N1_1  and  C1_4
REMARK    2  A    between atoms: C2_7  and  N3_8
REMARK    3  A    between atoms: C7_17  and  N6_18
ROOT
HETATM    1  C1  UNL     1      -0.319  10.664  10.517  1.00  0.00     0.705 A
HETATM    2  N2  UNL     1       0.066   9.374  10.741  1.00  0.00    -0.022 N
ATOM      3  H2  UNL     1       0.677   9.163  11.531  1.00  0.00     0.203 HD
HETATM    4  C2  UNL     1      -0.345   8.376   9.940  1.00  0.00     0.709 A
HETATM    5  N5  UNL     1      -1.142   8.691   8.918  1.00  0.00    -0.022 N
ATOM      6  H5  UNL     1      -1.462   7.946   8.300  1.00  0.00     0.203 HD
HETATM    7  C7  UNL     1      -1.544   9.968   8.666  1.00  0.00     0.705 A
HETATM    8  N7  UNL     1      -1.122  10.955   9.479  1.00  0.00    -0.022 N
ATOM      9  H7  UNL     1      -1.411  11.918   9.307  1.00  0.00     0.203 HD
ENDROOT
BRANCH   4  10
HETATM   10  N3  UNL     1       0.037   7.020  10.146  1.00  0.00    -0.214 N
HETATM   11  C3  UNL     1       0.370   6.546  11.475  1.00  0.00     0.160 C
HETATM   12  C4  UNL     1       1.001   5.179  11.362  1.00  0.00     0.134 C
HETATM   13  N4  UNL     1       1.981   5.096  10.326  1.00  0.00    -0.418 N
HETATM   14  C5  UNL     1       1.540   5.536   9.041  1.00  0.00     0.134 C
ATOM     15  H4  UNL     1       2.925   4.749  10.492  1.00  0.00     0.153 HD
HETATM   16  C6  UNL     1       0.115   6.058   9.068  1.00  0.00     0.160 C
ENDBRANCH   4  10
BRANCH   1  17
HETATM   17  N1  UNL     1       0.087  11.616  11.300  1.00  0.00    -0.234 N
ATOM     18  H12 UNL     1       0.393  12.502  10.899  1.00  0.00     0.174 HD
ATOM     19  H11 UNL     1       0.103  11.483  12.311  1.00  0.00     0.174 HD
ENDBRANCH   1  17
BRANCH   7  20
HETATM   20  N6  UNL     1      -2.315  10.253   7.672  1.00  0.00    -0.234 N
ATOM     21  H62 UNL     1      -1.936  10.772   6.879  1.00  0.00     0.174 HD
ATOM     22  H61 UNL     1      -3.295   9.973   7.655  1.00  0.00     0.174 HD
ENDBRANCH   7  20
TORSDOF 3
ENDMDL