MODEL 2
REMARK VINA RESULT: -6.238352805      6.665      8.082
REMARK  3 active torsions:
REMARK  status: ('A' for Active; 'I' for Inactive)
REMARK    1  A    between atoms: C2_3  and  O1_4
REMARK    2  A    between atoms: C4_10  and  C6_13
REMARK       I    between atoms: C6_13  and  N4_15
REMARK    3  A    between atoms: N4_15  and  N5_17
ROOT
HETATM    1  N1  UNL     1       1.347  12.291   7.472  1.00  0.00    -0.192 NA
HETATM    2  C1  UNL     1       0.634  11.741   8.204  1.00  0.00     0.131 C
HETATM    3  C2  UNL     1      -0.259  11.023   9.123  1.00  0.00     0.342 C
HETATM    4  C3  UNL     1       0.304  11.132  10.530  1.00  0.00     0.322 C
HETATM    5  N2  UNL     1       1.268  10.025  10.517  1.00  0.00    -0.013 N
ATOM      6  H21 UNL     1       1.685   9.803  11.421  1.00  0.00     0.282 HD
ATOM      7  H22 UNL     1       2.152  10.225  10.051  1.00  0.00     0.282 HD
HETATM    8  C4  UNL     1       0.496   8.976   9.931  1.00  0.00     0.458 C
HETATM    9  C5  UNL     1      -0.493   8.517  10.898  1.00  0.00     0.140 C
HETATM   10  N3  UNL     1      -1.269   8.151  11.648  1.00  0.00    -0.192 NA
HETATM   11  N6  UNL     1      -0.168   9.619   8.804  1.00  0.00     0.029 N
ATOM     12  H61 UNL     1       0.290   9.438   7.911  1.00  0.00     0.287 HD
ATOM     13  H62 UNL     1      -1.068   9.198   8.574  1.00  0.00     0.287 HD
ENDROOT
BRANCH   3  14
HETATM   14  O1  UNL     1      -1.567  11.467   9.040  1.00  0.00    -0.352 OA
ATOM     15  H1  UNL     1      -2.136  10.837   8.612  1.00  0.00     0.213 HD
ENDBRANCH   3  14
BRANCH   8  16
HETATM   16  C6  UNL     1       1.264   7.830   9.467  1.00  0.00     0.316 C
HETATM   17  O2  UNL     1       2.203   7.374  10.147  1.00  0.00    -0.266 OA
HETATM   18  N4  UNL     1       0.948   7.220   8.236  1.00  0.00    -0.272 N
ATOM     19  H4  UNL     1       0.175   7.609   7.695  1.00  0.00     0.189 HD
BRANCH  18  20
HETATM   20  N5  UNL     1       1.622   6.124   7.709  1.00  0.00    -0.342 N
ATOM     21  H52 UNL     1       2.204   5.588   8.354  1.00  0.00     0.176 HD
ATOM     22  H51 UNL     1       1.569   5.830   6.734  1.00  0.00     0.176 HD
ENDBRANCH  18  20
ENDBRANCH   8  16
TORSDOF 3
ENDMDL