MODEL 3
REMARK VINA RESULT: -6.575315280      1.773      2.523
REMARK  2 active torsions:
REMARK  status: ('A' for Active; 'I' for Inactive)
REMARK    1  A    between atoms: C2_3  and  N2_4
REMARK    2  A    between atoms: C3_9  and  N4_10
REMARK       I    between atoms: N4_10  and  C4_12
ROOT
HETATM    1  C1  UNL     1       2.162   6.300  10.677  1.00  0.00     0.180 C
HETATM    2  N1  UNL     1       1.502   7.546  10.271  1.00  0.00    -0.136 N
HETATM    3  C2  UNL     1       1.139   7.757   8.988  1.00  0.00     0.696 A
HETATM    4  N3  UNL     1       0.537   8.922   8.679  1.00  0.00    -0.022 N
ATOM      5  H3  UNL     1       0.262   9.080   7.710  1.00  0.00     0.203 HD
HETATM    6  C3  UNL     1       0.281   9.881   9.572  1.00  0.00     0.703 A
HETATM    7  N7  UNL     1       0.645   9.668  10.850  1.00  0.00    -0.140 N
ATOM      8  H7  UNL     1       0.468  10.377  11.562  1.00  0.00     0.189 HD
HETATM    9  C5  UNL     1       1.247   8.509  11.178  1.00  0.00     0.354 A
HETATM   10  O1  UNL     1       1.574   8.347  12.388  1.00  0.00    -0.245 OA
ENDROOT
BRANCH   6  11
HETATM   11  N4  UNL     1      -0.362  11.099   9.186  1.00  0.00    -0.163 N
HETATM   12  C4  UNL     1       0.179  11.887   8.142  1.00  0.00     0.200 C
HETATM   13  N5  UNL     1       0.753  13.017   8.371  1.00  0.00    -0.373 N
HETATM   14  N6  UNL     1       0.109  11.464   6.786  1.00  0.00    -0.063 NA
ATOM     15  H52 UNL     1       0.802  13.321   9.344  1.00  0.00     0.158 HD
ATOM     16  H51 UNL     1       1.142  13.584   7.619  1.00  0.00     0.158 HD
ATOM     17  H4  UNL     1      -1.211  11.401   9.665  1.00  0.00     0.187 HD
ENDBRANCH   6  11
BRANCH   3  18
HETATM   18  N2  UNL     1       1.376   6.842   8.104  1.00  0.00    -0.234 N
ATOM     19  H22 UNL     1       2.162   6.897   7.458  1.00  0.00     0.174 HD
ATOM     20  H21 UNL     1       0.756   6.034   8.044  1.00  0.00     0.174 HD
ENDBRANCH   3  18
TORSDOF 2
ENDMDL