MODEL 3
REMARK VINA RESULT: -6.649147782      1.548      2.006
REMARK  3 active torsions:
REMARK  status: ('A' for Active; 'I' for Inactive)
REMARK       I    between atoms: C1_4  and  N2_5
REMARK       I    between atoms: C1_4  and  N4_13
REMARK    1  A    between atoms: N2_5  and  N3_7
REMARK    2  A    between atoms: N4_13  and  N5_15
REMARK       I    between atoms: N5_15  and  C5_17
REMARK    3  A    between atoms: N7_19  and  N8_21
ROOT
HETATM    1  N1  UNL     1      -1.517   9.178  13.559  1.00  0.00    -0.232 N
ATOM      2  H11 UNL     1      -1.436   8.333  14.123  1.00  0.00     0.174 HD
ATOM      3  H12 UNL     1      -1.951  10.043  13.880  1.00  0.00     0.174 HD
HETATM    4  C1  UNL     1      -1.028   9.129  12.361  1.00  0.00     0.705 C
HETATM    5  N2  UNL     1      -1.139  10.294  11.583  1.00  0.00    -0.131 N
ATOM      6  H2  UNL     1      -0.678  11.154  11.882  1.00  0.00     0.205 HD
HETATM    7  N4  UNL     1      -0.421   7.923  11.914  1.00  0.00    -0.129 N
ATOM      8  H4  UNL     1       0.394   7.554  12.406  1.00  0.00     0.205 HD
ENDROOT
BRANCH   5   9
HETATM    9  N3  UNL     1      -1.873  10.274  10.416  1.00  0.00    -0.287 N
HETATM   10  C2  UNL     1      -1.388  10.657   9.289  1.00  0.00     0.079 A
HETATM   11  C3  UNL     1      -1.469  10.908   7.853  1.00  0.00     0.147 A
HETATM   12  C4  UNL     1      -0.192  11.200   8.570  1.00  0.00     0.179 A
HETATM   13  O1  UNL     1       0.976  11.606   8.510  1.00  0.00    -0.291 OA
ATOM     14  H3  UNL     1      -2.837   9.941  10.448  1.00  0.00     0.187 HD
ENDBRANCH   5   9
BRANCH   7  15
HETATM   15  N5  UNL     1      -0.930   7.239  10.808  1.00  0.00    -0.258 N
HETATM   16  C5  UNL     1      -0.065   6.480   9.962  1.00  0.00     0.222 C
HETATM   17  N6  UNL     1       1.109   5.958  10.567  1.00  0.00    -0.061 NA
HETATM   18  N7  UNL     1      -0.338   6.281   8.711  1.00  0.00    -0.279 N
ATOM     19  H7  UNL     1      -1.185   6.660   8.289  1.00  0.00     0.189 HD
ATOM     20  H5  UNL     1      -1.928   7.282  10.602  1.00  0.00     0.190 HD
BRANCH  18  21
HETATM   21  N8  UNL     1       0.568   5.526   7.959  1.00  0.00    -0.343 N
ATOM     22  H82 UNL     1       0.959   5.904   7.097  1.00  0.00     0.176 HD
ATOM     23  H81 UNL     1       0.814   4.598   8.303  1.00  0.00     0.176 HD
ENDBRANCH  18  21
ENDBRANCH   7  15
TORSDOF 3
ENDMDL