MODEL 4
REMARK VINA RESULT: -6.147697351      3.381      7.019
REMARK  4 active torsions:
REMARK  status: ('A' for Active; 'I' for Inactive)
REMARK    1  A    between atoms: N1_1  and  C1_4
REMARK    2  A    between atoms: C3_13  and  C4_14
REMARK       I    between atoms: C4_14  and  N6_16
REMARK    3  A    between atoms: N6_16  and  N7_18
REMARK    4  A    between atoms: N7_18  and  N8_19
ROOT
HETATM    1  C1  UNL     1      -2.331   7.198  16.266  1.00  0.00     0.146 A
HETATM    2  N2  UNL     1      -2.141   6.512  17.443  1.00  0.00    -0.268 N
ATOM      3  H2  UNL     1      -2.770   6.507  18.245  1.00  0.00     0.190 HD
HETATM    4  N3  UNL     1      -1.005   5.868  17.346  1.00  0.00    -0.219 N
ATOM      5  H3  UNL     1      -0.608   5.274  18.074  1.00  0.00     0.210 HD
HETATM    6  N4  UNL     1      -0.446   6.096  16.168  1.00  0.00    -0.178 N
HETATM    7  N5  UNL     1       0.632   5.816  15.438  1.00  0.00    -0.288 N
ATOM      8  H5  UNL     1       1.402   5.215  15.732  1.00  0.00     0.188 HD
HETATM    9  C2  UNL     1       0.547   6.447  14.258  1.00  0.00     0.129 A
HETATM   10  C3  UNL     1      -0.644   7.171  14.227  1.00  0.00     0.084 A
HETATM   11  C5  UNL     1      -1.241   6.933  15.435  1.00  0.00     0.138 A
ENDROOT
BRANCH  10  12
HETATM   12  C4  UNL     1      -1.093   7.920  13.081  1.00  0.00     0.272 C
HETATM   13  O1  UNL     1      -2.347   8.001  12.799  1.00  0.00    -0.266 OA
HETATM   14  N6  UNL     1      -0.253   8.633  12.160  1.00  0.00    -0.250 N
ATOM     15  H6  UNL     1       0.753   8.630  12.325  1.00  0.00     0.187 HD
BRANCH  14  16
HETATM   16  N7  UNL     1      -0.732   9.325  11.060  1.00  0.00    -0.027 NA
BRANCH  16  17
HETATM   17  N8  UNL     1      -1.072  10.628  11.401  1.00  0.00    -0.329 N
ATOM     18  H82 UNL     1      -0.412  11.301  11.791  1.00  0.00     0.174 HD
ATOM     19  H81 UNL     1      -2.056  10.811  11.208  1.00  0.00     0.174 HD
ENDBRANCH  16  17
ENDBRANCH  14  16
ENDBRANCH  10  12
BRANCH   1  20
HETATM   20  N1  UNL     1      -3.297   7.951  15.990  1.00  0.00    -0.382 N
ATOM     21  H12 UNL     1      -3.307   8.665  15.261  1.00  0.00     0.157 HD
ATOM     22  H11 UNL     1      -4.201   7.975  16.463  1.00  0.00     0.157 HD
ENDBRANCH   1  20
TORSDOF 4
ENDMDL