MODEL 1
REMARK VINA RESULT: -6.911404671      0.000      0.000
REMARK  3 active torsions:
REMARK  status: ('A' for Active; 'I' for Inactive)
REMARK    1  A    between atoms: N1_1  and  C1_4
REMARK    2  A    between atoms: C2_7  and  N3_8
REMARK    3  A    between atoms: C5_19  and  N8_20
ROOT
HETATM    1  C1  UNL     1      -2.293   9.889   9.256  1.00  0.00     0.705 A
HETATM    2  N2  UNL     1      -2.331   9.023  10.293  1.00  0.00    -0.020 N
ATOM      3  H2  UNL     1      -3.029   8.279  10.285  1.00  0.00     0.203 HD
HETATM    4  C2  UNL     1      -1.490   9.104  11.332  1.00  0.00     0.735 A
HETATM    5  N7  UNL     1      -0.573  10.102  11.315  1.00  0.00    -0.020 N
ATOM      6  H7  UNL     1       0.078  10.183  12.096  1.00  0.00     0.203 HD
HETATM    7  C5  UNL     1      -0.488  10.998  10.302  1.00  0.00     0.705 A
HETATM    8  N9  UNL     1      -1.366  10.871   9.273  1.00  0.00    -0.022 N
ATOM      9  H9  UNL     1      -1.325  11.532   8.497  1.00  0.00     0.203 HD
ENDROOT
BRANCH   4  10
HETATM   10  N3  UNL     1      -1.516   8.201  12.446  1.00  0.00    -0.015 N
HETATM   11  N4  UNL     1      -1.662   8.683  13.745  1.00  0.00     0.005 NA
HETATM   12  N5  UNL     1      -2.156   7.705  14.578  1.00  0.00    -0.279 N
HETATM   13  C3  UNL     1      -2.040   6.315  14.351  1.00  0.00     0.200 C
ATOM     14  H5  UNL     1      -2.643   8.006  15.422  1.00  0.00     0.185 HD
HETATM   15  N6  UNL     1      -1.677   5.853  13.224  1.00  0.00    -0.302 N
HETATM   16  C4  UNL     1      -1.388   6.808  12.181  1.00  0.00     0.360 C
ATOM     17  H6  UNL     1      -1.594   4.850  13.063  1.00  0.00     0.171 HD
HETATM   18  O1  UNL     1      -1.022   6.431  11.035  1.00  0.00    -0.244 OA
ENDBRANCH   4  10
BRANCH   1  19
HETATM   19  N1  UNL     1      -3.135   9.772   8.255  1.00  0.00    -0.234 N
ATOM     20  H12 UNL     1      -4.142   9.754   8.415  1.00  0.00     0.174 HD
ATOM     21  H11 UNL     1      -2.795   9.700   7.295  1.00  0.00     0.174 HD
ENDBRANCH   1  19
BRANCH   7  22
HETATM   22  N8  UNL     1       0.382  11.951  10.272  1.00  0.00    -0.234 N
ATOM     23  H82 UNL     1       1.321  11.756   9.927  1.00  0.00     0.174 HD
ATOM     24  H81 UNL     1       0.179  12.902  10.581  1.00  0.00     0.174 HD
ENDBRANCH   7  22
TORSDOF 3
ENDMDL