MODEL 4
REMARK VINA RESULT: -6.533212208      3.431      5.425
REMARK  4 active torsions:
REMARK  status: ('A' for Active; 'I' for Inactive)
REMARK    1  A    between atoms: N1_1  and  C1_4
REMARK    2  A    between atoms: C3_6  and  C4_7
REMARK       I    between atoms: C4_7  and  N2_9
REMARK    3  A    between atoms: N2_9  and  N3_11
REMARK       I    between atoms: N5_16  and  C5_17
REMARK       I    between atoms: C5_17  and  N6_19
REMARK    4  A    between atoms: N6_19  and  N7_21
ROOT
HETATM    1  C1  UNL     1       1.043   5.827  10.444  1.00  0.00     0.128 A
HETATM    2  C2  UNL     1       0.819   7.075  11.061  1.00  0.00     0.086 A
HETATM    3  C3  UNL     1       0.263   7.860  10.092  1.00  0.00     0.121 A
HETATM    4  N4  UNL     1       0.147   7.174   8.973  1.00  0.00    -0.283 N
ATOM      5  H4  UNL     1      -0.238   7.531   8.099  1.00  0.00     0.188 HD
HETATM    6  N5  UNL     1       0.614   5.941   9.166  1.00  0.00    -0.188 N
HETATM    7  C5  UNL     1       0.632   4.946   8.148  1.00  0.00     0.361 C
HETATM    8  O2  UNL     1       1.090   3.813   8.420  1.00  0.00    -0.243 OA
HETATM    9  N6  UNL     1       0.147   5.207   6.847  1.00  0.00    -0.256 N
ATOM     10  H6  UNL     1      -0.227   6.130   6.625  1.00  0.00     0.191 HD
ENDROOT
BRANCH   3  11
HETATM   11  C4  UNL     1      -0.151   9.257  10.248  1.00  0.00     0.287 C
HETATM   12  O1  UNL     1      -0.026  10.087   9.308  1.00  0.00    -0.264 OA
HETATM   13  N2  UNL     1      -0.705   9.704  11.472  1.00  0.00    -0.271 N
ATOM     14  H2  UNL     1      -0.818   9.059  12.252  1.00  0.00     0.189 HD
BRANCH  13  15
HETATM   15  N3  UNL     1      -1.090  11.027  11.596  1.00  0.00    -0.342 N
ATOM     16  H32 UNL     1      -0.377  11.756  11.616  1.00  0.00     0.176 HD
ATOM     17  H31 UNL     1      -2.082  11.254  11.667  1.00  0.00     0.176 HD
ENDBRANCH  13  15
ENDBRANCH   3  11
BRANCH   1  18
HETATM   18  N1  UNL     1       1.553   4.842  11.046  1.00  0.00    -0.384 N
ATOM     19  H12 UNL     1       1.694   4.681  12.043  1.00  0.00     0.157 HD
ATOM     20  H11 UNL     1       1.916   4.020  10.562  1.00  0.00     0.157 HD
ENDBRANCH   1  18
BRANCH   9  21
HETATM   21  N7  UNL     1       0.173   4.218   5.861  1.00  0.00    -0.341 N
ATOM     22  H72 UNL     1       0.041   4.494   4.889  1.00  0.00     0.177 HD
ATOM     23  H71 UNL     1       0.321   3.239   6.106  1.00  0.00     0.177 HD
ENDBRANCH   9  21
TORSDOF 4
ENDMDL