MODEL 5
REMARK VINA RESULT: -6.286439035      1.086      1.092
REMARK  4 active torsions:
REMARK  status: ('A' for Active; 'I' for Inactive)
REMARK    1  A    between atoms: N1_1  and  C1_4
REMARK    2  A    between atoms: C2_7  and  C3_8
REMARK       I    between atoms: C3_8  and  N3_10
REMARK    3  A    between atoms: N3_10  and  N4_12
REMARK    4  A    between atoms: C5_21  and  N7_22
ROOT
HETATM    1  C1  UNL     1      -2.293   9.312   9.274  1.00  0.00     0.145 C
HETATM    2  N2  UNL     1      -1.778   8.672  10.359  1.00  0.00    -0.321 N
ATOM      3  H2  UNL     1      -2.243   7.802  10.615  1.00  0.00     0.169 HD
HETATM    4  C2  UNL     1      -0.742   9.026  11.140  1.00  0.00     0.181 C
HETATM    5  N5  UNL     1      -0.048  10.172  11.046  1.00  0.00    -0.290 N
ATOM      6  H5  UNL     1       0.563  10.369  11.840  1.00  0.00     0.172 HD
HETATM    7  C4  UNL     1      -0.027  11.113  10.065  1.00  0.00     0.327 C
HETATM    8  O2  UNL     1       0.885  11.978  10.081  1.00  0.00    -0.247 OA
HETATM    9  N6  UNL     1      -0.878  11.260   9.035  1.00  0.00    -0.292 N
ATOM     10  H6  UNL     1      -0.806  12.143   8.530  1.00  0.00     0.172 HD
HETATM   11  C5  UNL     1      -1.820  10.401   8.572  1.00  0.00     0.147 C
ENDROOT
BRANCH   4  12
HETATM   12  C3  UNL     1      -0.336   8.083  12.183  1.00  0.00     0.303 C
HETATM   13  O1  UNL     1       0.073   6.950  11.822  1.00  0.00    -0.263 OA
HETATM   14  N3  UNL     1      -0.389   8.396  13.559  1.00  0.00    -0.270 N
ATOM     15  H3  UNL     1      -0.722   9.313  13.856  1.00  0.00     0.189 HD
BRANCH  14  16
HETATM   16  N4  UNL     1       0.008   7.465  14.514  1.00  0.00    -0.342 N
ATOM     17  H42 UNL     1       0.938   7.550  14.923  1.00  0.00     0.176 HD
ATOM     18  H41 UNL     1      -0.619   6.712  14.798  1.00  0.00     0.176 HD
ENDBRANCH  14  16
ENDBRANCH   4  12
BRANCH   1  19
HETATM   19  N1  UNL     1      -3.395   8.836   8.819  1.00  0.00    -0.382 N
ATOM     20  H12 UNL     1      -3.778   8.073   9.376  1.00  0.00     0.157 HD
ATOM     21  H11 UNL     1      -3.747   9.275   7.968  1.00  0.00     0.157 HD
ENDBRANCH   1  19
BRANCH  11  22
HETATM   22  N7  UNL     1      -2.297  10.629   7.398  1.00  0.00    -0.382 N
ATOM     23  H72 UNL     1      -2.235   9.874   6.716  1.00  0.00     0.157 HD
ATOM     24  H71 UNL     1      -2.708  11.543   7.209  1.00  0.00     0.157 HD
ENDBRANCH  11  22
TORSDOF 4
ENDMDL