MODEL 1
REMARK VINA RESULT: -6.799220691      0.000      0.000
REMARK  4 active torsions:
REMARK  status: ('A' for Active; 'I' for Inactive)
REMARK    1  A    between atoms: N1_1  and  C1_4
REMARK    2  A    between atoms: C3_10  and  C4_11
REMARK    3  A    between atoms: C4_11  and  N4_12
REMARK    4  A    between atoms: C4_11  and  N5_16
ROOT
HETATM    1  C1  UNL     1      -0.615   8.031  13.286  1.00  0.00     0.678 A
HETATM    2  N2  UNL     1      -1.214   9.176  12.920  1.00  0.00    -0.174 N
ATOM      3  H2  UNL     1      -1.704   9.817  13.543  1.00  0.00     0.186 HD
HETATM    4  C2  UNL     1      -1.060   9.334  11.612  1.00  0.00     0.155 A
HETATM    5  N3  UNL     1      -1.444  10.281  10.718  1.00  0.00    -0.326 N
ATOM      6  H3  UNL     1      -1.976  11.087  11.045  1.00  0.00     0.169 HD
HETATM    7  C3  UNL     1      -1.142  10.183   9.418  1.00  0.00     0.144 A
HETATM    8  N6  UNL     1      -0.444   9.134   8.966  1.00  0.00    -0.308 N
ATOM      9  H6  UNL     1      -0.219   9.067   7.973  1.00  0.00     0.170 HD
HETATM   10  C5  UNL     1      -0.042   8.177   9.799  1.00  0.00     0.278 A
HETATM   11  O1  UNL     1       0.616   7.181   9.393  1.00  0.00    -0.265 OA
HETATM   12  C6  UNL     1      -0.344   8.262  11.135  1.00  0.00     0.161 A
HETATM   13  N7  UNL     1      -0.077   7.464  12.196  1.00  0.00    -0.183 N
ATOM     14  H7  UNL     1       0.442   6.586  12.171  1.00  0.00     0.184 HD
ENDROOT
BRANCH   7  15
HETATM   15  C4  UNL     1      -1.578  11.238   8.458  1.00  0.00     0.444 C
BRANCH  15  16
HETATM   16  N4  UNL     1      -0.695  12.380   8.613  1.00  0.00    -0.043 N
ATOM     17  H43 UNL     1       0.230  12.119   8.954  1.00  0.00     0.277 HD
ATOM     18  H42 UNL     1      -0.406  12.778   7.720  1.00  0.00     0.277 HD
ATOM     19  H41 UNL     1      -1.160  13.060   9.215  1.00  0.00     0.277 HD
ENDBRANCH  15  16
BRANCH  15  20
HETATM   20  N5  UNL     1      -1.316  10.699   7.123  1.00  0.00    -0.043 N
ATOM     21  H53 UNL     1      -0.637  11.242   6.590  1.00  0.00     0.277 HD
ATOM     22  H52 UNL     1      -0.794   9.823   7.133  1.00  0.00     0.277 HD
ATOM     23  H51 UNL     1      -2.226  10.626   6.668  1.00  0.00     0.277 HD
ENDBRANCH  15  20
ENDBRANCH   7  15
BRANCH   1  24
HETATM   24  N1  UNL     1      -0.568   7.558  14.509  1.00  0.00    -0.234 N
ATOM     25  H12 UNL     1       0.086   7.841  15.239  1.00  0.00     0.174 HD
ATOM     26  H11 UNL     1      -1.188   6.842  14.888  1.00  0.00     0.174 HD
ENDBRANCH   1  24
TORSDOF 4
ENDMDL