MODEL 4
REMARK VINA RESULT: -6.155415535      1.461      2.180
REMARK  2 active torsions:
REMARK  status: ('A' for Active; 'I' for Inactive)
REMARK    1  A    between atoms: N1_1  and  C1_4
REMARK    2  A    between atoms: C3_9  and  N4_10
ROOT
HETATM    1  C1  UNL     1      -0.891   8.588  12.885  1.00  0.00     0.680 A
HETATM    2  N2  UNL     1      -1.604   9.150  13.876  1.00  0.00    -0.177 N
ATOM      3  H2  UNL     1      -1.980  10.090  13.757  1.00  0.00     0.185 HD
HETATM    4  C2  UNL     1      -1.829   8.475  15.039  1.00  0.00     0.165 A
HETATM    5  N3  UNL     1      -2.583   9.053  16.104  1.00  0.00    -0.079 NA
HETATM    6  C3  UNL     1      -1.335   7.203  15.233  1.00  0.00     0.159 A
HETATM    7  C6  UNL     1      -0.605   6.637  14.210  1.00  0.00     0.291 A
HETATM    8  O1  UNL     1      -0.136   5.466  14.360  1.00  0.00    -0.265 OA
HETATM    9  N7  UNL     1      -0.416   7.347  13.088  1.00  0.00    -0.154 N
ATOM     10  H7  UNL     1       0.126   6.917  12.339  1.00  0.00     0.187 HD
ENDROOT
BRANCH   6  11
HETATM   11  N4  UNL     1      -1.580   6.518  16.450  1.00  0.00    -0.270 N
HETATM   12  C4  UNL     1      -2.762   5.731  16.739  1.00  0.00     0.164 C
HETATM   13  C5  UNL     1      -2.300   4.942  17.946  1.00  0.00     0.153 C
HETATM   14  N5  UNL     1      -1.489   5.961  18.618  1.00  0.00    -0.124 NA
HETATM   15  N6  UNL     1      -0.727   6.491  17.558  1.00  0.00    -0.029 NA
ENDBRANCH   6  11
BRANCH   1  16
HETATM   16  N1  UNL     1      -0.681   9.231  11.785  1.00  0.00    -0.234 N
ATOM     17  H12 UNL     1       0.098   9.883  11.679  1.00  0.00     0.174 HD
ATOM     18  H11 UNL     1      -1.298   9.100  10.984  1.00  0.00     0.174 HD
ENDBRANCH   1  16
TORSDOF 2
ENDMDL