MODEL 4
REMARK VINA RESULT: -6.461497637      1.589      1.816
REMARK  2 active torsions:
REMARK  status: ('A' for Active; 'I' for Inactive)
REMARK    1  A    between atoms: C2_2  and  N1_4
REMARK    2  A    between atoms: N1_4  and  C4_6
REMARK       I    between atoms: N3_9  and  C5_10
ROOT
HETATM    1  C4  UNL     1      -0.488   8.337  12.510  1.00  0.00     0.188 C
HETATM    2  N2  UNL     1      -0.802   9.405  11.830  1.00  0.00    -0.259 N
ATOM      3  H2  UNL     1      -1.364  10.132  12.274  1.00  0.00     0.190 HD
HETATM    4  N3  UNL     1      -0.390   9.576  10.515  1.00  0.00    -0.147 N
HETATM    5  C5  UNL     1      -0.392  10.869   9.885  1.00  0.00     0.222 C
HETATM    6  N4  UNL     1       0.321  11.806  10.369  1.00  0.00    -0.371 N
ATOM      7  H41 UNL     1       0.319  12.722   9.922  1.00  0.00     0.158 HD
ATOM      8  H42 UNL     1       0.886  11.631  11.200  1.00  0.00     0.158 HD
HETATM    9  N5  UNL     1      -1.174  11.110   8.736  1.00  0.00    -0.061 NA
HETATM   10  N6  UNL     1       0.038   8.494   9.771  1.00  0.00     0.006 NA
HETATM   11  N7  UNL     1       0.706   7.526  10.531  1.00  0.00    -0.245 N
ATOM     12  H7  UNL     1       1.470   6.991  10.120  1.00  0.00     0.187 HD
HETATM   13  C6  UNL     1       0.315   7.290  11.885  1.00  0.00     0.303 C
HETATM   14  O1  UNL     1       0.654   6.234  12.482  1.00  0.00    -0.263 OA
ENDROOT
BRANCH   1  15
HETATM   15  N1  UNL     1      -0.909   8.158  13.858  1.00  0.00    -0.367 N
ATOM     16  H1  UNL     1      -0.189   8.061  14.574  1.00  0.00     0.161 HD
BRANCH  15  17
HETATM   17  C2  UNL     1      -2.281   8.106  14.273  1.00  0.00     0.075 C
HETATM   18  C1  UNL     1      -2.467   8.247  15.751  1.00  0.00     0.031 C
HETATM   19  C3  UNL     1      -2.912   6.844  13.785  1.00  0.00     0.031 C
ENDBRANCH  15  17
ENDBRANCH   1  15
TORSDOF 2
ENDMDL