MODEL 3
REMARK VINA RESULT: -6.184728734      1.500      1.617
REMARK  4 active torsions:
REMARK  status: ('A' for Active; 'I' for Inactive)
REMARK    1  A    between atoms: C2_7  and  N3_8
REMARK    2  A    between atoms: N3_8  and  N4_10
REMARK    3  A    between atoms: C3_14  and  C4_15
REMARK    4  A    between atoms: C4_15  and  N6_19
REMARK       I    between atoms: N6_19  and  C5_20
ROOT
HETATM    1  N1  UNL     1      -0.872   7.244   9.287  1.00  0.00    -0.386 N
ATOM      2  H11 UNL     1      -1.436   7.590   8.510  1.00  0.00     0.157 HD
ATOM      3  H12 UNL     1      -0.289   6.500   8.903  1.00  0.00     0.157 HD
HETATM    4  C1  UNL     1      -0.875   7.650  10.493  1.00  0.00     0.117 C
HETATM    5  N2  UNL     1      -0.088   7.166  11.578  1.00  0.00    -0.308 N
ATOM      6  H2  UNL     1       0.703   6.527  11.503  1.00  0.00     0.170 HD
HETATM    7  C2  UNL     1      -0.555   7.684  12.693  1.00  0.00     0.240 C
HETATM    8  O1  UNL     1      -1.622   8.498  12.443  1.00  0.00    -0.299 OA
HETATM    9  C3  UNL     1      -1.716   8.722  11.046  1.00  0.00     0.280 C
ENDROOT
BRANCH   9  10
HETATM   10  C4  UNL     1      -1.246  10.067  10.732  1.00  0.00     0.192 C
HETATM   11  N5  UNL     1      -1.266  10.913  11.761  1.00  0.00    -0.375 N
ATOM     12  H52 UNL     1      -1.614  10.574  12.659  1.00  0.00     0.158 HD
ATOM     13  H51 UNL     1      -0.937  11.853  11.542  1.00  0.00     0.158 HD
BRANCH  10  14
HETATM   14  N6  UNL     1      -0.770  10.529   9.504  1.00  0.00    -0.338 NA
HETATM   15  C5  UNL     1      -0.326  10.962   8.355  1.00  0.00     0.407 C
HETATM   16  N7  UNL     1       0.927  11.726   8.193  1.00  0.00    -0.025 NA
HETATM   17  O2  UNL     1      -0.867  10.814   7.196  1.00  0.00    -0.234 OA
ENDBRANCH  10  14
ENDBRANCH   9  10
BRANCH   7  18
HETATM   18  N3  UNL     1       0.001   7.412  13.979  1.00  0.00    -0.272 N
ATOM     19  H3  UNL     1       1.007   7.480  14.135  1.00  0.00     0.190 HD
BRANCH  18  20
HETATM   20  N4  UNL     1      -0.852   7.053  15.016  1.00  0.00    -0.342 N
ATOM     21  H42 UNL     1      -1.621   6.408  14.836  1.00  0.00     0.176 HD
ATOM     22  H41 UNL     1      -0.691   7.445  15.944  1.00  0.00     0.176 HD
ENDBRANCH  18  20
ENDBRANCH   7  18
TORSDOF 4
ENDMDL