MODEL 3
REMARK VINA RESULT: -6.165275671      1.637      2.707
REMARK  4 active torsions:
REMARK  status: ('A' for Active; 'I' for Inactive)
REMARK    1  A    between atoms: C4_7  and  N3_8
REMARK    2  A    between atoms: N3_8  and  N4_10
REMARK       I    between atoms: N4_10  and  C5_12
REMARK       I    between atoms: C5_12  and  N6_16
REMARK    3  A    between atoms: N6_16  and  N7_18
REMARK    4  A    between atoms: N7_18  and  N8_19
ROOT
HETATM    1  N4  UNL     1      -0.897  10.392  11.299  1.00  0.00    -0.117 N
ATOM      2  H4  UNL     1      -1.776  10.814  11.598  1.00  0.00     0.206 HD
HETATM    3  C5  UNL     1      -0.080  11.098  10.373  1.00  0.00     0.704 C
HETATM    4  N5  UNL     1       0.372  12.250  10.735  1.00  0.00    -0.232 N
ATOM      5  H51 UNL     1       0.957  12.756  10.071  1.00  0.00     0.174 HD
ATOM      6  H52 UNL     1       0.142  12.625  11.656  1.00  0.00     0.174 HD
HETATM    7  N6  UNL     1       0.240  10.575   9.090  1.00  0.00    -0.116 N
ATOM      8  H6  UNL     1       1.128  10.833   8.659  1.00  0.00     0.203 HD
ENDROOT
BRANCH   1   9
HETATM    9  N3  UNL     1      -0.541   9.142  11.815  1.00  0.00    -0.118 N
ATOM     10  H3  UNL     1       0.177   8.600  11.336  1.00  0.00     0.206 HD
BRANCH   9  11
HETATM   11  C4  UNL     1      -1.150   8.595  12.992  1.00  0.00     0.690 A
HETATM   12  N1  UNL     1      -1.419   7.215  13.186  1.00  0.00    -0.220 N
HETATM   13  C1  UNL     1      -1.124   6.176  12.224  1.00  0.00     0.168 C
HETATM   14  C2  UNL     1      -2.028   6.990  14.474  1.00  0.00     0.161 A
HETATM   15  C3  UNL     1      -2.113   8.380  15.038  1.00  0.00     0.158 A
HETATM   16  N2  UNL     1      -1.540   9.226  14.024  1.00  0.00    -0.223 N
ATOM     17  H2  UNL     1      -1.454  10.238  14.125  1.00  0.00     0.177 HD
ENDBRANCH   9  11
ENDBRANCH   1   9
BRANCH   7  18
HETATM   18  N7  UNL     1      -0.613   9.727   8.407  1.00  0.00    -0.015 NA
BRANCH  18  19
HETATM   19  N8  UNL     1      -1.580  10.447   7.664  1.00  0.00    -0.328 N
ATOM     20  H82 UNL     1      -1.702  11.457   7.731  1.00  0.00     0.174 HD
ATOM     21  H81 UNL     1      -2.128   9.831   7.064  1.00  0.00     0.174 HD
ENDBRANCH  18  19
ENDBRANCH   7  18
TORSDOF 4
ENDMDL