MODEL 5
REMARK VINA RESULT: -5.961412855      2.830      4.913
REMARK  3 active torsions:
REMARK  status: ('A' for Active; 'I' for Inactive)
REMARK    1  A    between atoms: C2_5  and  N3_6
REMARK    2  A    between atoms: N3_6  and  C3_8
REMARK    3  A    between atoms: N4_14  and  N5_15
ROOT
HETATM    1  N1  UNL     1      29.586  22.690  36.628  1.00  0.00    -0.079 NA
HETATM    2  C1  UNL     1      30.466  23.102  37.666  1.00  0.00     0.161 C
HETATM    3  N2  UNL     1      31.641  23.643  37.291  1.00  0.00    -0.325 N
ATOM      4  H2  UNL     1      31.771  23.790  36.290  1.00  0.00     0.169 HD
HETATM    5  C2  UNL     1      32.680  24.019  38.096  1.00  0.00     0.165 C
HETATM    6  C4  UNL     1      32.663  24.390  39.425  1.00  0.00     0.285 C
HETATM    7  O2  UNL     1      33.558  25.171  39.833  1.00  0.00    -0.278 OA
HETATM    8  C5  UNL     1      31.707  23.949  40.347  1.00  0.00     0.321 C
HETATM    9  O3  UNL     1      32.023  24.218  41.533  1.00  0.00    -0.262 OA
HETATM   10  N4  UNL     1      30.549  23.308  40.141  1.00  0.00    -0.206 N
HETATM   11  C6  UNL     1      30.021  22.903  38.979  1.00  0.00     0.182 C
HETATM   12  N6  UNL     1      28.808  22.144  39.012  1.00  0.00    -0.077 NA
ENDROOT
BRANCH   5  13
HETATM   13  N3  UNL     1      33.838  24.032  37.543  1.00  0.00    -0.317 N
ATOM     14  H3  UNL     1      34.544  23.381  37.885  1.00  0.00     0.169 HD
BRANCH  13  15
HETATM   15  C3  UNL     1      34.184  24.898  36.485  1.00  0.00     0.354 C
HETATM   16  O1  UNL     1      34.179  24.423  35.306  1.00  0.00    -0.283 OA
ENDBRANCH  13  15
ENDBRANCH   5  13
BRANCH  10  17
HETATM   17  N5  UNL     1      29.785  23.015  41.264  1.00  0.00    -0.334 N
ATOM     18  H52 UNL     1      29.872  22.057  41.604  1.00  0.00     0.177 HD
ATOM     19  H51 UNL     1      29.214  23.771  41.643  1.00  0.00     0.177 HD
ENDBRANCH  10  17
TORSDOF 3
ENDMDL