MODEL 4
REMARK VINA RESULT: -6.244177102      2.826      5.619
REMARK  3 active torsions:
REMARK  status: ('A' for Active; 'I' for Inactive)
REMARK    1  A    between atoms: C2_3  and  N2_4
REMARK    2  A    between atoms: N2_4  and  N3_6
REMARK    3  A    between atoms: C4_16  and  N7_17
ROOT
HETATM    1  C1  UNL     1      30.414  22.971  41.028  1.00  0.00     0.199 C
HETATM    2  N1  UNL     1      31.215  23.970  41.721  1.00  0.00    -0.102 N
HETATM    3  C2  UNL     1      32.336  24.535  41.242  1.00  0.00     0.728 A
HETATM    4  N4  UNL     1      32.786  25.400  42.161  1.00  0.00    -0.016 N
ATOM      5  H4  UNL     1      33.623  25.975  42.069  1.00  0.00     0.203 HD
HETATM    6  C3  UNL     1      31.948  25.392  43.239  1.00  0.00     0.736 A
HETATM    7  N5  UNL     1      31.921  26.043  44.408  1.00  0.00    -0.128 N
ATOM      8  H5  UNL     1      32.659  26.715  44.616  1.00  0.00     0.205 HD
HETATM    9  N6  UNL     1      30.971  25.842  45.299  1.00  0.00    -0.267 N
ATOM     10  H6  UNL     1      30.970  26.351  46.183  1.00  0.00     0.189 HD
HETATM   11  C4  UNL     1      30.008  24.958  45.018  1.00  0.00     0.186 A
HETATM   12  C5  UNL     1      30.028  24.282  43.816  1.00  0.00     0.327 A
HETATM   13  O1  UNL     1      29.132  23.435  43.510  1.00  0.00    -0.261 OA
HETATM   14  N8  UNL     1      30.994  24.495  42.925  1.00  0.00    -0.026 N
ENDROOT
BRANCH   3  15
HETATM   15  N2  UNL     1      32.873  24.286  40.105  1.00  0.00    -0.137 N
ATOM     16  H2  UNL     1      32.300  23.825  39.398  1.00  0.00     0.205 HD
BRANCH  15  17
HETATM   17  N3  UNL     1      34.181  24.600  39.772  1.00  0.00    -0.331 N
ATOM     18  H32 UNL     1      34.843  24.686  40.544  1.00  0.00     0.177 HD
ATOM     19  H31 UNL     1      34.513  24.746  38.819  1.00  0.00     0.177 HD
ENDBRANCH  15  17
ENDBRANCH   3  15
BRANCH  11  20
HETATM   20  N7  UNL     1      29.075  24.745  45.864  1.00  0.00    -0.380 N
ATOM     21  H72 UNL     1      29.285  24.322  46.768  1.00  0.00     0.158 HD
ATOM     22  H71 UNL     1      28.114  25.000  45.634  1.00  0.00     0.158 HD
ENDBRANCH  11  20
TORSDOF 3
ENDMDL