MODEL 5
REMARK VINA RESULT: -5.689145758      6.624      8.861
REMARK  4 active torsions:
REMARK  status: ('A' for Active; 'I' for Inactive)
REMARK       I    between atoms: C2_2  and  N1_4
REMARK    1  A    between atoms: N1_4  and  O2_6
REMARK    2  A    between atoms: O2_6  and  C3_7
REMARK       I    between atoms: C3_7  and  N2_9
REMARK    3  A    between atoms: N4_13  and  O5_14
REMARK    4  A    between atoms: O5_14  and  N5_15
ROOT
HETATM    1  C3  UNL     1      28.772  25.884  45.435  1.00  0.00     0.427 C
HETATM    2  O3  UNL     1      27.869  26.771  45.229  1.00  0.00    -0.232 OA
HETATM    3  N2  UNL     1      28.484  24.519  45.467  1.00  0.00    -0.074 N
HETATM    4  O4  UNL     1      27.289  23.923  45.281  1.00  0.00    -0.238 OA
HETATM    5  C4  UNL     1      27.287  22.868  46.200  1.00  0.00     0.336 C
HETATM    6  N3  UNL     1      28.647  22.795  46.742  1.00  0.00    -0.085 NA
HETATM    7  N4  UNL     1      29.362  23.472  45.704  1.00  0.00     0.050 NA
ENDROOT
BRANCH   1   8
HETATM    8  O2  UNL     1      30.055  26.383  45.622  1.00  0.00    -0.176 OA
BRANCH   8   9
HETATM    9  N1  UNL     1      31.116  25.869  44.948  1.00  0.00    -0.225 N
HETATM   10  C2  UNL     1      31.536  26.276  43.668  1.00  0.00     0.237 C
HETATM   11  C1  UNL     1      32.701  25.644  43.017  1.00  0.00     0.119 C
HETATM   12  O1  UNL     1      30.921  27.186  43.061  1.00  0.00    -0.272 OA
ATOM     13  H1  UNL     1      31.651  25.130  45.406  1.00  0.00     0.198 HD
ENDBRANCH   8   9
ENDBRANCH   1   8
BRANCH   7  14
HETATM   14  O5  UNL     1      29.248  22.644  44.615  1.00  0.00    -0.149 OA
BRANCH  14  15
HETATM   15  N5  UNL     1      29.857  23.173  43.540  1.00  0.00    -0.288 N
ATOM     16  H52 UNL     1      29.615  22.933  42.578  1.00  0.00     0.186 HD
ATOM     17  H51 UNL     1      30.582  23.834  43.817  1.00  0.00     0.186 HD
ENDBRANCH  14  15
ENDBRANCH   7  14
TORSDOF 4
ENDMDL