MODEL 2
REMARK VINA RESULT: -6.372386714      1.495      3.392
REMARK  4 active torsions:
REMARK  status: ('A' for Active; 'I' for Inactive)
REMARK    1  A    between atoms: O1_2  and  C2_3
REMARK    2  A    between atoms: C2_3  and  C3_5
REMARK    3  A    between atoms: C3_5  and  O3_6
REMARK    4  A    between atoms: C5_14  and  O5_15
ROOT
HETATM    1  C3  UNL     1      32.512  24.676  37.724  1.00  0.00     0.252 C
HETATM    2  C4  UNL     1      31.754  25.954  37.699  1.00  0.00     0.137 C
HETATM    3  N1  UNL     1      32.177  26.941  36.804  1.00  0.00    -0.292 N
ATOM      4  H1  UNL     1      31.668  27.823  36.746  1.00  0.00     0.187 HD
HETATM    5  N2  UNL     1      33.249  26.735  36.021  1.00  0.00    -0.203 N
ATOM      6  H2  UNL     1      33.573  27.468  35.390  1.00  0.00     0.216 HD
HETATM    7  O4  UNL     1      33.876  25.584  36.072  1.00  0.00    -0.205 OA
HETATM    8  C5  UNL     1      33.934  24.966  37.292  1.00  0.00     0.325 C
HETATM    9  C6  UNL     1      34.612  23.669  37.107  1.00  0.00     0.135 C
HETATM   10  N3  UNL     1      35.130  22.647  36.951  1.00  0.00    -0.191 NA
ENDROOT
BRANCH   8  11
HETATM   11  O5  UNL     1      34.603  25.685  38.267  1.00  0.00    -0.350 OA
ATOM     12  H5  UNL     1      35.252  26.257  37.875  1.00  0.00     0.214 HD
ENDBRANCH   8  11
BRANCH   1  13
HETATM   13  C2  UNL     1      32.476  24.093  39.112  1.00  0.00     0.305 C
HETATM   14  O2  UNL     1      31.993  22.939  39.277  1.00  0.00    -0.261 OA
BRANCH  13  15
HETATM   15  O1  UNL     1      32.956  24.794  40.190  1.00  0.00    -0.324 OA
HETATM   16  C1  UNL     1      32.214  24.966  41.396  1.00  0.00     0.213 C
ENDBRANCH  13  15
ENDBRANCH   1  13
BRANCH   1  17
HETATM   17  O3  UNL     1      31.967  23.780  36.823  1.00  0.00    -0.369 OA
ATOM     18  H3  UNL     1      32.312  23.946  35.954  1.00  0.00     0.212 HD
ENDBRANCH   1  17
TORSDOF 4
ENDMDL