MODEL 3
REMARK VINA RESULT: -5.510091964      1.177      1.204
REMARK  3 active torsions:
REMARK  status: ('A' for Active; 'I' for Inactive)
REMARK    1  A    between atoms: N1_2  and  N2_4
REMARK    2  A    between atoms: N2_4  and  C2_6
REMARK    3  A    between atoms: N5_11  and  N6_12
ROOT
HETATM    1  C2  UNL     1      29.889  26.146  44.976  1.00  0.00     0.153 A
HETATM    2  C3  UNL     1      29.525  25.160  45.864  1.00  0.00     0.135 A
HETATM    3  N3  UNL     1      30.496  24.516  46.665  1.00  0.00    -0.095 NA
HETATM    4  C4  UNL     1      28.197  24.748  46.021  1.00  0.00     0.170 A
HETATM    5  N4  UNL     1      27.838  23.730  46.940  1.00  0.00    -0.078 NA
HETATM    6  N5  UNL     1      27.275  25.360  45.260  1.00  0.00    -0.196 N
HETATM    7  C5  UNL     1      27.627  26.330  44.387  1.00  0.00     0.350 A
HETATM    8  O1  UNL     1      26.705  26.862  43.705  1.00  0.00    -0.244 OA
HETATM    9  N7  UNL     1      28.892  26.725  44.236  1.00  0.00    -0.285 N
HETATM   10  C6  UNL     1      29.282  27.754  43.311  1.00  0.00     0.163 C
ENDROOT
BRANCH   1  11
HETATM   11  N2  UNL     1      31.094  26.559  44.795  1.00  0.00    -0.288 N
ATOM     12  H2  UNL     1      31.336  27.500  45.105  1.00  0.00     0.188 HD
BRANCH  11  13
HETATM   13  N1  UNL     1      32.069  25.792  44.204  1.00  0.00    -0.339 N
HETATM   14  C1  UNL     1      33.441  26.329  44.154  1.00  0.00     0.167 C
ATOM     15  H1  UNL     1      31.850  24.877  43.811  1.00  0.00     0.179 HD
ENDBRANCH  11  13
ENDBRANCH   1  11
BRANCH   6  16
HETATM   16  N6  UNL     1      25.949  24.950  45.416  1.00  0.00    -0.333 N
ATOM     17  H62 UNL     1      25.707  24.009  45.727  1.00  0.00     0.177 HD
ATOM     18  H61 UNL     1      25.223  25.635  45.203  1.00  0.00     0.177 HD
ENDBRANCH   6  16
TORSDOF 3
ENDMDL