MODEL 3
REMARK VINA RESULT: -5.925909778      2.273      3.185
REMARK  1 active torsions:
REMARK  status: ('A' for Active; 'I' for Inactive)
REMARK       I    between atoms: N1_5  and  C4_6
REMARK       I    between atoms: C4_6  and  N2_7
REMARK       I    between atoms: C4_6  and  N3_11
REMARK    1  A    between atoms: N3_11  and  N4_12
ROOT
HETATM    1  C1  UNL     1      29.627  25.053  41.014  1.00  0.00     0.081 C
HETATM    2  C2  UNL     1      31.106  24.765  40.839  1.00  0.00     0.196 C
HETATM    3  C3  UNL     1      31.849  25.721  41.752  1.00  0.00     0.081 C
HETATM    4  O1  UNL     1      31.516  24.970  39.525  1.00  0.00    -0.234 OA
HETATM    5  N1  UNL     1      32.430  24.089  39.106  1.00  0.00     0.001 NA
HETATM    6  C4  UNL     1      33.302  24.617  38.077  1.00  0.00     0.425 C
HETATM    7  N2  UNL     1      33.998  25.758  38.598  1.00  0.00    -0.043 N
ATOM      8  H21 UNL     1      34.612  26.129  37.873  1.00  0.00     0.278 HD
ATOM      9  H22 UNL     1      34.498  25.549  39.462  1.00  0.00     0.278 HD
ATOM     10  H23 UNL     1      33.363  26.464  38.969  1.00  0.00     0.278 HD
HETATM   11  N3  UNL     1      34.280  23.586  37.778  1.00  0.00    -0.095 NA
HETATM   12  O2  UNL     1      31.730  23.010  38.618  1.00  0.00    -0.146 OA
HETATM   13  S1  UNL     1      30.840  22.433  39.976  1.00  0.00     0.328 S
HETATM   14  O3  UNL     1      29.370  22.709  39.690  1.00  0.00    -0.195 OA
HETATM   15  O4  UNL     1      31.318  23.463  41.273  1.00  0.00    -0.232 OA
ENDROOT
BRANCH  11  16
HETATM   16  N4  UNL     1      35.037  23.231  38.870  1.00  0.00    -0.345 N
ATOM     17  H42 UNL     1      34.863  23.601  39.804  1.00  0.00     0.172 HD
ATOM     18  H41 UNL     1      35.777  22.567  38.642  1.00  0.00     0.172 HD
ENDBRANCH  11  16
TORSDOF 1
ENDMDL