MODEL 2
REMARK VINA RESULT: -6.227252354      2.639      4.538
REMARK  4 active torsions:
REMARK  status: ('A' for Active; 'I' for Inactive)
REMARK    1  A    between atoms: S1_3  and  C2_4
REMARK    2  A    between atoms: N2_5  and  O1_6
REMARK    3  A    between atoms: N3_8  and  N4_9
REMARK    4  A    between atoms: N5_13  and  N6_15
ROOT
HETATM    1  N1  UNL     1      33.202  26.166  44.289  1.00  0.00    -0.184 NA
HETATM    2  C1  UNL     1      32.464  25.888  43.419  1.00  0.00     0.141 C
HETATM    3  S1  UNL     1      31.332  25.477  42.139  1.00  0.00     0.031 SA
ENDROOT
BRANCH   3   4
HETATM    4  C2  UNL     1      32.194  25.013  40.655  1.00  0.00     0.221 A
HETATM    5  N2  UNL     1      31.615  24.663  39.584  1.00  0.00    -0.101 N
HETATM    6  N3  UNL     1      32.303  24.294  38.407  1.00  0.00     0.005 N
HETATM    7  C3  UNL     1      33.726  24.313  38.404  1.00  0.00     0.749 A
HETATM    8  N5  UNL     1      34.388  23.978  37.334  1.00  0.00    -0.134 N
HETATM    9  N7  UNL     1      34.411  24.701  39.588  1.00  0.00    -0.126 N
ATOM     10  H5  UNL     1      33.869  23.703  36.501  1.00  0.00     0.205 HD
HETATM   11  N8  UNL     1      33.622  25.043  40.690  1.00  0.00    -0.261 N
ATOM     12  H7  UNL     1      35.430  24.727  39.631  1.00  0.00     0.206 HD
ATOM     13  H8  UNL     1      34.084  25.327  41.554  1.00  0.00     0.190 HD
BRANCH   5  14
HETATM   14  O1  UNL     1      30.260  24.624  39.521  1.00  0.00    -0.264 OA
ATOM     15  H1  UNL     1      29.825  24.380  38.712  1.00  0.00     0.247 HD
ENDBRANCH   5  14
BRANCH   6  16
HETATM   16  N4  UNL     1      31.618  23.914  37.247  1.00  0.00    -0.307 N
ATOM     17  H42 UNL     1      30.786  24.430  36.965  1.00  0.00     0.179 HD
ATOM     18  H41 UNL     1      31.931  23.129  36.675  1.00  0.00     0.179 HD
ENDBRANCH   6  16
BRANCH   8  19
HETATM   19  N6  UNL     1      35.771  23.981  37.287  1.00  0.00    -0.331 N
ATOM     20  H62 UNL     1      36.235  24.844  37.001  1.00  0.00     0.177 HD
ATOM     21  H61 UNL     1      36.327  23.161  37.525  1.00  0.00     0.177 HD
ENDBRANCH   8  19
ENDBRANCH   3   4
TORSDOF 4
ENDMDL