MODEL 2
REMARK VINA RESULT: -7.203747036      0.045      1.828
REMARK  2 active torsions:
REMARK  status: ('A' for Active; 'I' for Inactive)
REMARK    1  A    between atoms: N2_3  and  C3_6
REMARK    2  A    between atoms: C5_13  and  N6_14
ROOT
HETATM    1  N1  UNL     1      34.063  26.401  36.904  1.00  0.00    -0.170 NA
HETATM    2  C1  UNL     1      33.877  25.363  37.418  1.00  0.00     0.214 C
HETATM    3  N2  UNL     1      33.666  24.111  38.016  1.00  0.00    -0.010 N
HETATM    4  C2  UNL     1      34.795  23.262  38.161  1.00  0.00     0.214 C
HETATM    5  N3  UNL     1      35.705  22.568  38.263  1.00  0.00    -0.170 NA
ENDROOT
BRANCH   3   6
HETATM    6  C3  UNL     1      32.374  23.712  38.457  1.00  0.00     0.713 C
HETATM    7  N4  UNL     1      31.487  23.567  37.460  1.00  0.00    -0.171 N
HETATM    8  C4  UNL     1      30.191  23.150  37.546  1.00  0.00     0.159 C
ATOM      9  H4  UNL     1      31.823  23.795  36.524  1.00  0.00     0.186 HD
HETATM   10  N5  UNL     1      29.563  23.097  36.428  1.00  0.00    -0.382 N
HETATM   11  C5  UNL     1      29.450  22.778  38.633  1.00  0.00     0.147 C
ATOM     12  H52 UNL     1      30.116  23.374  35.617  1.00  0.00     0.157 HD
ATOM     13  H51 UNL     1      28.594  22.785  36.492  1.00  0.00     0.157 HD
HETATM   14  N7  UNL     1      29.872  22.735  39.911  1.00  0.00    -0.291 N
HETATM   15  C6  UNL     1      31.046  23.134  40.432  1.00  0.00     0.340 C
ATOM     16  H7  UNL     1      29.208  22.344  40.579  1.00  0.00     0.172 HD
HETATM   17  O1  UNL     1      31.064  23.127  41.680  1.00  0.00    -0.246 OA
HETATM   18  N8  UNL     1      32.144  23.520  39.756  1.00  0.00    -0.139 N
ATOM     19  H8  UNL     1      32.954  23.699  40.351  1.00  0.00     0.189 HD
BRANCH  11  20
HETATM   20  N6  UNL     1      28.210  22.426  38.449  1.00  0.00    -0.382 N
ATOM     21  H62 UNL     1      28.050  21.798  37.661  1.00  0.00     0.157 HD
ATOM     22  H61 UNL     1      27.500  22.790  39.085  1.00  0.00     0.157 HD
ENDBRANCH  11  20
ENDBRANCH   3   6
TORSDOF 2
ENDMDL