MODEL 4
REMARK VINA RESULT: -5.922656686      2.046      3.283
REMARK  2 active torsions:
REMARK  status: ('A' for Active; 'I' for Inactive)
REMARK    1  A    between atoms: O1_2  and  N1_3
REMARK    2  A    between atoms: N2_8  and  N3_9
ROOT
HETATM    1  N1  UNL     1      30.819  24.841  40.398  1.00  0.00    -0.128 N
HETATM    2  C2  UNL     1      32.159  24.833  40.520  1.00  0.00     0.306 A
HETATM    3  O2  UNL     1      32.645  25.283  41.588  1.00  0.00    -0.263 OA
HETATM    4  C3  UNL     1      33.006  24.358  39.536  1.00  0.00     0.147 A
HETATM    5  C4  UNL     1      32.465  23.867  38.367  1.00  0.00     0.161 A
HETATM    6  N2  UNL     1      31.123  23.886  38.270  1.00  0.00    -0.191 N
HETATM    7  C5  UNL     1      30.322  24.356  39.246  1.00  0.00     0.376 A
HETATM    8  O3  UNL     1      29.054  24.358  39.120  1.00  0.00    -0.242 OA
HETATM    9  N4  UNL     1      33.523  23.432  37.496  1.00  0.00    -0.357 N
ATOM     10  H4  UNL     1      33.423  23.191  36.511  1.00  0.00     0.162 HD
HETATM   11  C6  UNL     1      34.770  23.394  38.269  1.00  0.00     0.245 C
HETATM   12  N5  UNL     1      34.411  24.230  39.393  1.00  0.00    -0.366 N
ATOM     13  H5  UNL     1      35.090  24.675  40.011  1.00  0.00     0.161 HD
ENDROOT
BRANCH   6  14
HETATM   14  N3  UNL     1      30.565  23.391  37.091  1.00  0.00    -0.333 N
ATOM     15  H32 UNL     1      29.674  22.897  37.120  1.00  0.00     0.177 HD
ATOM     16  H31 UNL     1      31.087  23.549  36.229  1.00  0.00     0.177 HD
ENDBRANCH   6  14
BRANCH   1  17
HETATM   17  O1  UNL     1      30.018  25.325  41.405  1.00  0.00    -0.271 OA
HETATM   18  C1  UNL     1      29.491  24.557  42.444  1.00  0.00     0.239 C
ENDBRANCH   1  17
TORSDOF 2
ENDMDL