MODEL 3
REMARK VINA RESULT: -5.746650589      4.670      5.813
REMARK  4 active torsions:
REMARK  status: ('A' for Active; 'I' for Inactive)
REMARK    1  A    between atoms: C3_5  and  N3_6
REMARK    2  A    between atoms: N3_6  and  O1_10
REMARK    3  A    between atoms: C4_12  and  N5_13
REMARK    4  A    between atoms: N5_13  and  N6_14
ROOT
HETATM    1  C1  UNL     1      28.280  23.393  45.608  1.00  0.00     0.162 C
HETATM    2  N1  UNL     1      29.333  23.827  44.674  1.00  0.00    -0.290 N
HETATM    3  C2  UNL     1      30.077  24.896  44.958  1.00  0.00     0.158 A
HETATM    4  N2  UNL     1      29.848  25.595  46.176  1.00  0.00    -0.080 NA
HETATM    5  C3  UNL     1      31.063  25.300  44.063  1.00  0.00     0.182 A
HETATM    6  C4  UNL     1      31.307  24.614  42.858  1.00  0.00     0.241 A
HETATM    7  N7  UNL     1      30.476  23.509  42.653  1.00  0.00    -0.279 N
ATOM      8  H7  UNL     1      30.587  22.956  41.804  1.00  0.00     0.173 HD
HETATM    9  C5  UNL     1      29.551  23.162  43.530  1.00  0.00     0.330 A
HETATM   10  O2  UNL     1      28.816  22.141  43.298  1.00  0.00    -0.246 OA
ENDROOT
BRANCH   5  11
HETATM   11  N3  UNL     1      31.813  26.435  44.406  1.00  0.00    -0.162 N
HETATM   12  N4  UNL     1      31.353  27.592  44.509  1.00  0.00    -0.318 N
ATOM     13  H42 UNL     1      30.357  27.690  44.311  1.00  0.00     0.179 HD
ATOM     14  H41 UNL     1      31.898  28.417  44.758  1.00  0.00     0.179 HD
BRANCH  11  15
HETATM   15  O1  UNL     1      33.170  26.300  44.677  1.00  0.00    -0.268 OA
ATOM     16  H1  UNL     1      33.730  25.865  44.045  1.00  0.00     0.247 HD
ENDBRANCH  11  15
ENDBRANCH   5  11
BRANCH   6  17
HETATM   17  N5  UNL     1      32.151  24.927  42.104  1.00  0.00    -0.311 NA
BRANCH  17  18
HETATM   18  N6  UNL     1      33.067  25.193  41.281  1.00  0.00    -0.278 N
ATOM     19  H62 UNL     1      32.730  24.253  41.071  1.00  0.00     0.191 HD
ATOM     20  H61 UNL     1      33.814  25.461  40.640  1.00  0.00     0.191 HD
ENDBRANCH  17  18
ENDBRANCH   6  17
TORSDOF 4
ENDMDL