MODEL 5
REMARK VINA RESULT: -6.216557025      2.565      4.209
REMARK  9 active torsions:
REMARK  status: ('A' for Active; 'I' for Inactive)
REMARK    1  A    between atoms: N1_1  and  N2_4
REMARK    2  A    between atoms: N2_4  and  C1_6
REMARK    3  A    between atoms: C1_6  and  O1_7
REMARK    4  A    between atoms: C1_6  and  C2_9
REMARK    5  A    between atoms: C3_11  and  N3_12
REMARK    6  A    between atoms: C5_17  and  C6_18
REMARK    7  A    between atoms: C6_18  and  O4_19
REMARK    8  A    between atoms: C6_18  and  N5_21
REMARK    9  A    between atoms: N5_21  and  N6_23
ROOT
HETATM    1  C2  UNL     1      -1.345   8.341  13.014  1.00  0.00     0.075 A
HETATM    2  S1  UNL     1      -2.251   8.348  14.553  1.00  0.00    -0.059 SA
HETATM    3  C3  UNL     1      -1.397   7.162  15.373  1.00  0.00     0.169 A
HETATM    4  C4  UNL     1      -0.465   6.776  14.503  1.00  0.00     0.102 A
HETATM    5  N4  UNL     1       0.470   5.714  14.910  1.00  0.00    -0.098 NA
HETATM    6  C5  UNL     1      -0.425   7.389  13.240  1.00  0.00     0.065 A
ENDROOT
BRANCH   1   7
HETATM    7  C1  UNL     1      -1.717   9.286  11.981  1.00  0.00     0.173 C
BRANCH   7   8
HETATM    8  N2  UNL     1      -1.236  10.503  11.573  1.00  0.00    -0.286 N
ATOM      9  H2  UNL     1      -1.715  11.360  11.849  1.00  0.00     0.188 HD
BRANCH   8  10
HETATM   10  N1  UNL     1      -0.037  10.570  10.741  1.00  0.00    -0.343 N
ATOM     11  H12 UNL     1      -0.076  11.072   9.855  1.00  0.00     0.176 HD
ATOM     12  H11 UNL     1       0.823  10.117  11.051  1.00  0.00     0.176 HD
ENDBRANCH   8  10
ENDBRANCH   7   8
BRANCH   7  13
HETATM   13  O1  UNL     1      -2.781   8.925  11.253  1.00  0.00    -0.344 OA
ATOM     14  H1  UNL     1      -2.919   7.986  11.297  1.00  0.00     0.219 HD
ENDBRANCH   7  13
ENDBRANCH   1   7
BRANCH   6  15
HETATM   15  C6  UNL     1       0.623   6.922  12.295  1.00  0.00     0.168 C
BRANCH  15  16
HETATM   16  O4  UNL     1       1.390   7.833  11.768  1.00  0.00    -0.344 OA
ATOM     17  H4  UNL     1       1.275   8.009  10.842  1.00  0.00     0.219 HD
ENDBRANCH  15  16
BRANCH  15  18
HETATM   18  N5  UNL     1       0.921   5.646  11.908  1.00  0.00    -0.286 N
ATOM     19  H5  UNL     1       0.309   5.139  11.269  1.00  0.00     0.188 HD
BRANCH  18  20
HETATM   20  N6  UNL     1       2.132   5.027  12.431  1.00  0.00    -0.343 N
ATOM     21  H62 UNL     1       2.110   4.551  13.333  1.00  0.00     0.176 HD
ATOM     22  H61 UNL     1       2.986   5.085  11.876  1.00  0.00     0.176 HD
ENDBRANCH  18  20
ENDBRANCH  15  18
ENDBRANCH   6  15
BRANCH   3  23
HETATM   23  N3  UNL     1      -1.625   6.661  16.732  1.00  0.00    -0.106 N
HETATM   24  O2  UNL     1      -2.332   5.672  16.870  1.00  0.00    -0.531 OA
HETATM   25  O3  UNL     1      -1.050   7.304  17.777  1.00  0.00    -0.531 OA
ENDBRANCH   3  23
TORSDOF 9
ENDMDL