MODEL 5
REMARK VINA RESULT: -7.071064293      1.604      3.061
REMARK  5 active torsions:
REMARK  status: ('A' for Active; 'I' for Inactive)
REMARK    1  A    between atoms: N1_2  and  C2_4
REMARK    2  A    between atoms: C2_4  and  C3_5
REMARK    3  A    between atoms: N2_6  and  C4_8
REMARK    4  A    between atoms: C5_11  and  N4_12
REMARK    5  A    between atoms: N8_21  and  N9_23
REMARK       I    between atoms: N9_23  and  C7_25
ROOT
HETATM    1  C3  UNL     1      -1.420   7.240  13.165  1.00  0.00     0.155 C
HETATM    2  N2  UNL     1      -1.039   7.556  12.013  1.00  0.00    -0.197 N
ATOM      3  H2  UNL     1      -0.466   6.846  11.559  1.00  0.00     0.183 HD
ENDROOT
BRANCH   2   4
HETATM    4  C4  UNL     1      -1.250   8.690  11.237  1.00  0.00     0.699 A
HETATM    5  N3  UNL     1      -0.423   9.743  11.270  1.00  0.00    -0.022 N
HETATM    6  C5  UNL     1      -0.644  10.851  10.510  1.00  0.00     0.692 A
ATOM      7  H3  UNL     1       0.393   9.715  11.881  1.00  0.00     0.203 HD
HETATM    8  N5  UNL     1      -1.714  10.880   9.711  1.00  0.00    -0.163 N
HETATM    9  C6  UNL     1      -2.553   9.855   9.653  1.00  0.00     0.221 A
ATOM     10  H5  UNL     1      -1.889  11.704   9.136  1.00  0.00     0.187 HD
HETATM   11  N6  UNL     1      -3.670   9.933   8.794  1.00  0.00    -0.062 NA
HETATM   12  N7  UNL     1      -2.317   8.753  10.422  1.00  0.00    -0.162 N
ATOM     13  H7  UNL     1      -2.961   7.963  10.378  1.00  0.00     0.187 HD
BRANCH   6  14
HETATM   14  N4  UNL     1       0.146  11.870  10.535  1.00  0.00    -0.234 N
ATOM     15  H42 UNL     1       0.974  11.839  11.129  1.00  0.00     0.174 HD
ATOM     16  H41 UNL     1      -0.029  12.708   9.980  1.00  0.00     0.174 HD
ENDBRANCH   6  14
ENDBRANCH   2   4
BRANCH   1  17
HETATM   17  C2  UNL     1      -2.229   7.968  14.102  1.00  0.00     0.131 C
HETATM   18  N8  UNL     1      -3.336   7.500  14.600  1.00  0.00    -0.282 N
ATOM     19  H8  UNL     1      -3.852   8.081  15.260  1.00  0.00     0.188 HD
BRANCH  17  20
HETATM   20  N1  UNL     1      -1.862   9.259  14.543  1.00  0.00    -0.379 N
HETATM   21  C1  UNL     1      -2.499   9.945  15.652  1.00  0.00     0.147 C
ATOM     22  H1  UNL     1      -1.104   9.737  14.054  1.00  0.00     0.160 HD
ENDBRANCH  17  20
BRANCH  18  23
HETATM   23  N9  UNL     1      -3.852   6.251  14.281  1.00  0.00    -0.269 N
HETATM   24  C7  UNL     1      -3.772   5.164  15.179  1.00  0.00     0.232 C
HETATM   25  C8  UNL     1      -4.310   3.817  14.875  1.00  0.00     0.119 C
HETATM   26  O1  UNL     1      -3.223   5.335  16.292  1.00  0.00    -0.272 OA
ATOM     27  H9  UNL     1      -4.298   6.115  13.374  1.00  0.00     0.190 HD
ENDBRANCH  18  23
ENDBRANCH   1  17
TORSDOF 5
ENDMDL