MODEL 2
REMARK VINA RESULT: -8.534537946      0.840      1.277
REMARK  5 active torsions:
REMARK  status: ('A' for Active; 'I' for Inactive)
REMARK    1  A    between atoms: N1_1  and  N2_4
REMARK    2  A    between atoms: N2_4  and  N3_6
REMARK    3  A    between atoms: C2_13  and  N7_14
REMARK    4  A    between atoms: C3_17  and  C4_18
REMARK       I    between atoms: C4_18  and  N8_20
REMARK    5  A    between atoms: N8_20  and  C5_22
ROOT
HETATM    1  N3  UNL     1      -2.781   7.208  16.314  1.00  0.00    -0.163 N
HETATM    2  N4  UNL     1      -2.087   6.546  17.229  1.00  0.00     0.004 NA
HETATM    3  N5  UNL     1      -0.861   6.281  16.767  1.00  0.00    -0.266 N
ATOM      4  H5  UNL     1      -0.132   5.782  17.276  1.00  0.00     0.186 HD
HETATM    5  C1  UNL     1      -0.742   6.776  15.527  1.00  0.00     0.150 A
HETATM    6  N6  UNL     1       0.218   6.823  14.580  1.00  0.00    -0.325 N
ATOM      7  H6  UNL     1       1.121   6.394  14.778  1.00  0.00     0.169 HD
HETATM    8  C2  UNL     1       0.035   7.411  13.387  1.00  0.00     0.116 A
HETATM    9  C3  UNL     1      -1.179   7.997  13.102  1.00  0.00     0.078 A
HETATM   10  C6  UNL     1      -2.185   7.969  14.045  1.00  0.00     0.058 A
HETATM   11  C7  UNL     1      -1.965   7.362  15.250  1.00  0.00     0.120 A
ENDROOT
BRANCH   9  12
HETATM   12  C4  UNL     1      -1.403   8.642  11.814  1.00  0.00     0.273 C
HETATM   13  O1  UNL     1      -1.769   7.947  10.822  1.00  0.00    -0.267 OA
HETATM   14  N8  UNL     1      -1.204  10.048  11.689  1.00  0.00    -0.153 N
ATOM     15  H8  UNL     1      -0.930  10.608  12.497  1.00  0.00     0.187 HD
BRANCH  14  16
HETATM   16  C5  UNL     1      -1.378  10.604  10.522  1.00  0.00     0.710 A
HETATM   17  N9  UNL     1      -0.485  11.355   9.851  1.00  0.00    -0.117 N
HETATM   18  N10 UNL     1      -1.048  11.725   8.714  1.00  0.00     0.006 NA
ATOM     19  H9  UNL     1       0.456  11.594  10.164  1.00  0.00     0.202 HD
HETATM   20  N11 UNL     1      -2.273  11.238   8.628  1.00  0.00     0.006 NA
HETATM   21  N12 UNL     1      -2.462  10.553   9.741  1.00  0.00    -0.117 N
ATOM     22  H12 UNL     1      -3.320  10.054   9.974  1.00  0.00     0.202 HD
ENDBRANCH  14  16
ENDBRANCH   9  12
BRANCH   8  23
HETATM   23  N7  UNL     1       0.981   7.438  12.500  1.00  0.00    -0.385 N
ATOM     24  H72 UNL     1       1.583   6.623  12.384  1.00  0.00     0.157 HD
ATOM     25  H71 UNL     1       1.132   8.260  11.915  1.00  0.00     0.157 HD
ENDBRANCH   8  23
BRANCH   1  26
HETATM   26  N2  UNL     1      -4.116   7.665  16.430  1.00  0.00    -0.229 N
ATOM     27  H2  UNL     1      -4.454   8.470  15.901  1.00  0.00     0.209 HD
BRANCH  26  28
HETATM   28  N1  UNL     1      -4.884   7.015  17.234  1.00  0.00    -0.329 N
ATOM     29  H12 UNL     1      -4.730   7.049  18.242  1.00  0.00     0.178 HD
ATOM     30  H11 UNL     1      -5.639   6.476  16.812  1.00  0.00     0.178 HD
ENDBRANCH  26  28
ENDBRANCH   1  26
TORSDOF 5
ENDMDL