MODEL 5
REMARK VINA RESULT: -7.486928258      1.169      2.337
REMARK  6 active torsions:
REMARK  status: ('A' for Active; 'I' for Inactive)
REMARK    1  A    between atoms: N1_1  and  C1_4
REMARK    2  A    between atoms: C2_9  and  C3_10
REMARK    3  A    between atoms: C4_14  and  S1_15
REMARK    4  A    between atoms: S1_15  and  N5_16
REMARK    5  A    between atoms: C5_23  and  N7_24
REMARK    6  A    between atoms: N7_24  and  N8_26
ROOT
HETATM    1  C1  UNL     1      -1.137  10.298   8.784  1.00  0.00     0.144 A
HETATM    2  N2  UNL     1      -0.624  11.353   9.427  1.00  0.00    -0.283 N
ATOM      3  H2  UNL     1      -0.367  12.242   8.998  1.00  0.00     0.188 HD
HETATM    4  N3  UNL     1      -0.503  11.055  10.705  1.00  0.00    -0.293 N
ATOM      5  H3  UNL     1      -0.137  11.688  11.416  1.00  0.00     0.187 HD
HETATM    6  C2  UNL     1      -0.929   9.804  10.943  1.00  0.00     0.126 A
HETATM    7  C5  UNL     1      -1.341   9.293   9.729  1.00  0.00     0.124 A
ENDROOT
BRANCH   6   8
HETATM    8  C3  UNL     1      -0.964   9.091  12.215  1.00  0.00     0.159 A
HETATM    9  N4  UNL     1      -0.048   8.222  12.680  1.00  0.00    -0.240 N
HETATM   10  O1  UNL     1      -0.435   7.796  13.853  1.00  0.00    -0.204 OA
ATOM     11  H4  UNL     1       0.805   7.943  12.197  1.00  0.00     0.196 HD
HETATM   12  C4  UNL     1      -1.568   8.344  14.189  1.00  0.00     0.287 A
HETATM   13  N6  UNL     1      -1.910   9.159  13.167  1.00  0.00    -0.307 N
ATOM     14  H6  UNL     1      -2.752   9.734  13.125  1.00  0.00     0.170 HD
BRANCH  12  15
HETATM   15  S1  UNL     1      -2.499   8.094  15.672  1.00  0.00     0.297 S
HETATM   16  O2  UNL     1      -2.684   9.459  16.303  1.00  0.00    -0.197 OA
HETATM   17  O3  UNL     1      -3.797   7.461  15.322  1.00  0.00    -0.197 OA
BRANCH  15  18
HETATM   18  N5  UNL     1      -1.544   7.127  16.712  1.00  0.00    -0.321 N
ATOM     19  H52 UNL     1      -1.655   6.124  16.859  1.00  0.00     0.169 HD
ATOM     20  H51 UNL     1      -0.856   7.742  17.146  1.00  0.00     0.169 HD
ENDBRANCH  15  18
ENDBRANCH  12  15
ENDBRANCH   6   8
BRANCH   7  21
HETATM   21  N7  UNL     1      -1.871   7.990   9.501  1.00  0.00    -0.302 N
ATOM     22  H7  UNL     1      -2.884   7.873   9.500  1.00  0.00     0.186 HD
BRANCH  21  23
HETATM   23  N8  UNL     1      -1.073   6.865   9.280  1.00  0.00    -0.344 N
ATOM     24  H82 UNL     1      -0.528   6.840   8.419  1.00  0.00     0.176 HD
ATOM     25  H81 UNL     1      -1.015   6.083   9.932  1.00  0.00     0.176 HD
ENDBRANCH  21  23
ENDBRANCH   7  21
BRANCH   1  26
HETATM   26  N1  UNL     1      -1.413  10.180   7.516  1.00  0.00    -0.382 N
ATOM     27  H12 UNL     1      -1.005   9.475   6.903  1.00  0.00     0.157 HD
ATOM     28  H11 UNL     1      -2.049  10.744   6.952  1.00  0.00     0.157 HD
ENDBRANCH   1  26
TORSDOF 6
ENDMDL