MODEL 5
REMARK VINA RESULT: -8.188448775      0.922      1.094
REMARK  5 active torsions:
REMARK  status: ('A' for Active; 'I' for Inactive)
REMARK    1  A    between atoms: N1_1  and  C1_4
REMARK    2  A    between atoms: C4_12  and  N4_13
REMARK    3  A    between atoms: N4_13  and  O2_14
REMARK    4  A    between atoms: N4_13  and  C5_16
REMARK    5  A    between atoms: C5_16  and  C6_17
ROOT
HETATM    1  C1  UNL     1      -2.281   6.441  16.689  1.00  0.00     0.680 A
HETATM    2  N2  UNL     1      -2.616   7.724  16.922  1.00  0.00    -0.154 N
ATOM      3  H2  UNL     1      -2.983   7.974  17.840  1.00  0.00     0.187 HD
HETATM    4  C2  UNL     1      -2.488   8.686  15.999  1.00  0.00     0.290 A
HETATM    5  O1  UNL     1      -2.797   9.889  16.203  1.00  0.00    -0.265 OA
HETATM    6  C3  UNL     1      -1.984   8.327  14.747  1.00  0.00     0.162 A
HETATM    7  N3  UNL     1      -1.735   9.017  13.631  1.00  0.00    -0.180 N
ATOM      8  H3  UNL     1      -1.890  10.017  13.504  1.00  0.00     0.184 HD
HETATM    9  C4  UNL     1      -1.248   8.176  12.703  1.00  0.00     0.706 A
HETATM   10  N9  UNL     1      -1.186   6.946  13.232  1.00  0.00    -0.172 N
ATOM     11  H9  UNL     1      -0.856   6.105  12.759  1.00  0.00     0.186 HD
HETATM   12  C7  UNL     1      -1.637   7.016  14.496  1.00  0.00     0.169 A
HETATM   13  N10 UNL     1      -1.795   6.091  15.483  1.00  0.00    -0.174 N
ATOM     14  H10 UNL     1      -1.541   5.118  15.306  1.00  0.00     0.186 HD
ENDROOT
BRANCH   9  15
HETATM   15  N4  UNL     1      -0.880   8.592  11.402  1.00  0.00    -0.083 N
BRANCH  15  16
HETATM   16  O2  UNL     1       0.332   9.142  11.170  1.00  0.00    -0.274 OA
ATOM     17  H2  UNL     1       0.427  10.081  11.069  1.00  0.00     0.245 HD
ENDBRANCH  15  16
BRANCH  15  18
HETATM   18  C5  UNL     1      -1.799   8.435  10.295  1.00  0.00     0.254 C
BRANCH  18  19
HETATM   19  C6  UNL     1      -1.710   9.569   9.350  1.00  0.00     0.134 A
HETATM   20  N5  UNL     1      -1.416   9.506   8.050  1.00  0.00    -0.271 N
HETATM   21  N6  UNL     1      -1.435  10.748   7.541  1.00  0.00    -0.227 N
ATOM     22  H5  UNL     1      -1.211   8.655   7.528  1.00  0.00     0.190 HD
HETATM   23  N7  UNL     1      -1.742  11.543   8.549  1.00  0.00    -0.227 N
ATOM     24  H6  UNL     1      -1.252  11.021   6.576  1.00  0.00     0.210 HD
HETATM   25  N8  UNL     1      -1.917  10.847   9.676  1.00  0.00    -0.271 N
ATOM     26  H7  UNL     1      -1.833  12.557   8.477  1.00  0.00     0.210 HD
ATOM     27  H8  UNL     1      -2.160  11.216  10.596  1.00  0.00     0.190 HD
ENDBRANCH  18  19
ENDBRANCH  15  18
ENDBRANCH   9  15
BRANCH   1  28
HETATM   28  N1  UNL     1      -2.420   5.527  17.614  1.00  0.00    -0.234 N
ATOM     29  H12 UNL     1      -3.035   5.707  18.407  1.00  0.00     0.174 HD
ATOM     30  H11 UNL     1      -1.924   4.637  17.555  1.00  0.00     0.174 HD
ENDBRANCH   1  28
TORSDOF 5
ENDMDL