MODEL 2
REMARK VINA RESULT: -7.730522282      0.022      1.896
REMARK  5 active torsions:
REMARK  status: ('A' for Active; 'I' for Inactive)
REMARK    1  A    between atoms: N1_1  and  N2_4
REMARK    2  A    between atoms: N2_4  and  C1_6
REMARK    3  A    between atoms: C2_12  and  C3_13
REMARK    4  A    between atoms: C3_13  and  S1_14
REMARK    5  A    between atoms: S1_14  and  C4_15
ROOT
HETATM    1  C3  UNL     1      -0.888   8.572  12.495  1.00  0.00     0.145 C
ENDROOT
BRANCH   1   2
HETATM    2  C2  UNL     1      -1.551   9.313  11.405  1.00  0.00     0.091 A
HETATM    3  C1  UNL     1      -1.257  10.487  10.791  1.00  0.00     0.167 A
HETATM    4  N3  UNL     1      -2.251  10.647   9.832  1.00  0.00    -0.222 N
HETATM    5  O1  UNL     1      -3.066   9.656   9.870  1.00  0.00    -0.155 OA
ATOM      6  H3  UNL     1      -2.322  11.437   9.191  1.00  0.00     0.198 HD
HETATM    7  N4  UNL     1      -2.669   8.850  10.797  1.00  0.00    -0.241 N
ATOM      8  H4  UNL     1      -3.138   7.978  11.040  1.00  0.00     0.196 HD
BRANCH   3   9
HETATM    9  N2  UNL     1      -0.330  11.293  10.984  1.00  0.00    -0.289 N
ATOM     10  H2  UNL     1      -0.082  11.430  11.964  1.00  0.00     0.188 HD
BRANCH   9  11
HETATM   11  N1  UNL     1       0.399  12.014  10.111  1.00  0.00    -0.344 N
ATOM     12  H12 UNL     1       0.122  12.995  10.062  1.00  0.00     0.176 HD
ATOM     13  H11 UNL     1       1.170  11.738   9.504  1.00  0.00     0.176 HD
ENDBRANCH   9  11
ENDBRANCH   3   9
ENDBRANCH   1   2
BRANCH   1  14
HETATM   14  S1  UNL     1      -1.798   7.050  12.885  1.00  0.00    -0.087 SA
BRANCH  14  15
HETATM   15  C4  UNL     1      -2.286   7.021  14.600  1.00  0.00     0.152 A
HETATM   16  N5  UNL     1      -3.556   7.100  15.030  1.00  0.00    -0.289 N
HETATM   17  C5  UNL     1      -3.925   7.071  16.320  1.00  0.00     0.330 A
ATOM     18  H5  UNL     1      -4.290   7.188  14.328  1.00  0.00     0.172 HD
HETATM   19  O2  UNL     1      -5.127   7.147  16.675  1.00  0.00    -0.246 OA
HETATM   20  N6  UNL     1      -2.978   6.955  17.266  1.00  0.00    -0.260 N
HETATM   21  C6  UNL     1      -1.682   6.872  16.888  1.00  0.00     0.330 A
ATOM     22  H6  UNL     1      -3.233   6.931  18.253  1.00  0.00     0.175 HD
HETATM   23  O3  UNL     1      -0.828   6.766  17.814  1.00  0.00    -0.246 OA
HETATM   24  N7  UNL     1      -1.349   6.904  15.590  1.00  0.00    -0.289 N
ATOM     25  H7  UNL     1      -0.364   6.840  15.333  1.00  0.00     0.172 HD
ENDBRANCH  14  15
ENDBRANCH   1  14
TORSDOF 5
ENDMDL