MODEL 4
REMARK VINA RESULT: -8.315671452      0.998      1.321
REMARK  4 active torsions:
REMARK  status: ('A' for Active; 'I' for Inactive)
REMARK    1  A    between atoms: N1_1  and  C1_4
REMARK    2  A    between atoms: C2_9  and  C3_10
REMARK       I    between atoms: C3_10  and  N4_12
REMARK    3  A    between atoms: N4_12  and  N5_14
REMARK       I    between atoms: N5_14  and  C4_16
REMARK    4  A    between atoms: C4_16  and  C5_18
ROOT
HETATM    1  C3  UNL     1      -1.445   9.316  11.539  1.00  0.00     0.312 C
HETATM    2  O1  UNL     1      -2.543   8.721  11.333  1.00  0.00    -0.262 OA
HETATM    3  N4  UNL     1      -0.727   8.983  12.708  1.00  0.00    -0.260 N
ATOM      4  H4  UNL     1       0.160   9.453  12.891  1.00  0.00     0.190 HD
ENDROOT
BRANCH   3   5
HETATM    5  N5  UNL     1      -1.180   8.043  13.616  1.00  0.00    -0.262 N
HETATM    6  C4  UNL     1      -1.884   8.460  14.770  1.00  0.00     0.289 C
HETATM    7  O2  UNL     1      -2.081   9.687  14.942  1.00  0.00    -0.264 OA
ATOM      8  H5  UNL     1      -1.007   7.051  13.454  1.00  0.00     0.190 HD
BRANCH   6   9
HETATM    9  C5  UNL     1      -2.367   7.468  15.736  1.00  0.00     0.142 A
HETATM   10  N6  UNL     1      -1.865   7.371  16.977  1.00  0.00    -0.294 N
HETATM   11  N7  UNL     1      -2.307   6.473  17.842  1.00  0.00    -0.311 N
ATOM     12  H6  UNL     1      -1.121   8.009  17.261  1.00  0.00     0.187 HD
HETATM   13  C6  UNL     1      -3.281   5.588  17.572  1.00  0.00     0.109 A
ATOM     14  H7  UNL     1      -1.884   6.451  18.769  1.00  0.00     0.186 HD
HETATM   15  C7  UNL     1      -3.838   5.638  16.312  1.00  0.00     0.047 A
HETATM   16  C8  UNL     1      -3.368   6.585  15.404  1.00  0.00     0.081 A
HETATM   17  N8  UNL     1      -3.915   6.663  14.107  1.00  0.00    -0.100 NA
ENDBRANCH   6   9
ENDBRANCH   3   5
BRANCH   1  18
HETATM   18  C2  UNL     1      -0.922  10.311  10.618  1.00  0.00     0.236 A
HETATM   19  N3  UNL     1      -0.189  11.376  10.947  1.00  0.00    -0.272 N
HETATM   20  N2  UNL     1       0.123  12.079   9.866  1.00  0.00    -0.263 N
ATOM     21  H3  UNL     1       0.091  11.617  11.897  1.00  0.00     0.189 HD
HETATM   22  C1  UNL     1      -0.443  11.410   8.849  1.00  0.00     0.238 A
ATOM     23  H2  UNL     1       0.673  12.937   9.818  1.00  0.00     0.190 HD
HETATM   24  O3  UNL     1      -1.080  10.334   9.312  1.00  0.00    -0.254 OA
BRANCH  22  25
HETATM   25  N1  UNL     1      -0.426  11.694   7.591  1.00  0.00    -0.364 N
ATOM     26  H12 UNL     1       0.334  12.232   7.177  1.00  0.00     0.159 HD
ATOM     27  H11 UNL     1      -1.108  11.447   6.874  1.00  0.00     0.159 HD
ENDBRANCH  22  25
ENDBRANCH   1  18
TORSDOF 4
ENDMDL