MODEL 5
REMARK VINA RESULT: -7.083129794      3.181      4.737
REMARK  7 active torsions:
REMARK  status: ('A' for Active; 'I' for Inactive)
REMARK    1  A    between atoms: N1_1  and  C1_4
REMARK    2  A    between atoms: C5_13  and  C6_14
REMARK    3  A    between atoms: C6_14  and  C7_16
REMARK    4  A    between atoms: C7_16  and  O3_17
REMARK    5  A    between atoms: O3_17  and  C8_18
REMARK    6  A    between atoms: C8_18  and  O5_20
REMARK    7  A    between atoms: O5_20  and  N4_21
ROOT
HETATM    1  C1  UNL     1       0.331   6.183   9.030  1.00  0.00     0.679 A
HETATM    2  N2  UNL     1       1.071   5.970  10.131  1.00  0.00    -0.154 N
ATOM      3  H2  UNL     1       1.810   5.267  10.144  1.00  0.00     0.187 HD
HETATM    4  C2  UNL     1       0.802   6.716  11.210  1.00  0.00     0.288 A
HETATM    5  O1  UNL     1       1.497   6.522  12.253  1.00  0.00    -0.265 OA
HETATM    6  C3  UNL     1      -0.200   7.679  11.214  1.00  0.00     0.130 A
HETATM    7  N3  UNL     1      -0.655   8.535  12.141  1.00  0.00    -0.359 N
ATOM      8  H3  UNL     1      -0.280   8.602  13.087  1.00  0.00     0.165 HD
HETATM    9  C4  UNL     1      -1.655   9.288  11.682  1.00  0.00     0.106 A
HETATM   10  C5  UNL     1      -1.859   8.881  10.353  1.00  0.00     0.061 A
HETATM   11  C9  UNL     1      -0.945   7.873  10.065  1.00  0.00     0.097 A
HETATM   12  N5  UNL     1      -0.668   7.118   8.982  1.00  0.00    -0.189 N
ATOM     13  H5  UNL     1      -1.205   7.244   8.123  1.00  0.00     0.184 HD
ENDROOT
BRANCH  10  14
HETATM   14  C6  UNL     1      -2.869   9.440   9.471  1.00  0.00     0.208 C
HETATM   15  O2  UNL     1      -4.046   8.932   9.550  1.00  0.00    -0.285 OA
BRANCH  14  16
HETATM   16  C7  UNL     1      -2.713  10.506   8.506  1.00  0.00     0.203 C
BRANCH  16  17
HETATM   17  O3  UNL     1      -1.840  11.540   8.898  1.00  0.00    -0.262 OA
BRANCH  17  18
HETATM   18  C8  UNL     1      -0.539  11.684   8.468  1.00  0.00     0.432 C
HETATM   19  O4  UNL     1      -0.289  11.405   7.277  1.00  0.00    -0.227 OA
BRANCH  18  20
HETATM   20  O5  UNL     1       0.485  12.123   9.311  1.00  0.00    -0.182 OA
BRANCH  20  21
HETATM   21  N4  UNL     1       0.349  12.024  10.682  1.00  0.00    -0.300 N
ATOM     22  H42 UNL     1       1.175  11.820  11.245  1.00  0.00     0.184 HD
ATOM     23  H41 UNL     1      -0.563  12.154  11.119  1.00  0.00     0.184 HD
ENDBRANCH  20  21
ENDBRANCH  18  20
ENDBRANCH  17  18
ENDBRANCH  16  17
ENDBRANCH  14  16
ENDBRANCH  10  14
BRANCH   1  24
HETATM   24  N1  UNL     1       0.525   5.506   7.946  1.00  0.00    -0.234 N
ATOM     25  H12 UNL     1       1.498   5.359   7.680  1.00  0.00     0.174 HD
ATOM     26  H11 UNL     1      -0.256   5.146   7.396  1.00  0.00     0.174 HD
ENDBRANCH   1  24
TORSDOF 7
ENDMDL