MODEL 4
REMARK VINA RESULT: -7.961607779      4.983      7.345
REMARK  6 active torsions:
REMARK  status: ('A' for Active; 'I' for Inactive)
REMARK    1  A    between atoms: C3_3  and  O1_4
REMARK    2  A    between atoms: C4_6  and  N1_7
REMARK    3  A    between atoms: N2_9  and  N3_11
REMARK       I    between atoms: C5_13  and  N4_14
REMARK       I    between atoms: C5_13  and  N5_18
REMARK    4  A    between atoms: N4_14  and  O2_16
REMARK    5  A    between atoms: N5_18  and  N6_20
REMARK    6  A    between atoms: N8_25  and  O5_26
ROOT
HETATM    1  N1  UNL     1       0.348   6.745   8.524  1.00  0.00    -0.267 N
ATOM      2  H1  UNL     1       1.022   7.331   8.028  1.00  0.00     0.190 HD
HETATM    3  N2  UNL     1      -0.633   7.313   9.119  1.00  0.00    -0.227 N
ATOM      4  H2  UNL     1      -1.317   6.747   9.621  1.00  0.00     0.209 HD
ENDROOT
BRANCH   3   5
HETATM    5  N3  UNL     1      -0.771   8.702   9.087  1.00  0.00    -0.114 N
HETATM    6  C5  UNL     1      -0.609   9.399  10.142  1.00  0.00     0.737 C
HETATM    7  N4  UNL     1      -0.286   8.771  11.358  1.00  0.00    -0.096 N
HETATM    8  N5  UNL     1      -0.752  10.801  10.089  1.00  0.00    -0.069 N
ATOM      9  H4  UNL     1      -0.922   8.880  12.149  1.00  0.00     0.213 HD
ATOM     10  H5  UNL     1      -1.550  11.242  10.546  1.00  0.00     0.212 HD
ATOM     11  H3  UNL     1      -1.004   9.164   8.209  1.00  0.00     0.207 HD
BRANCH   7  12
HETATM   12  O2  UNL     1       0.822   8.037  11.522  1.00  0.00    -0.276 OA
ATOM     13  H2  UNL     1       1.057   7.639  12.352  1.00  0.00     0.245 HD
ENDBRANCH   7  12
BRANCH   8  14
HETATM   14  N6  UNL     1       0.180  11.593   9.421  1.00  0.00    -0.024 N
HETATM   15  O3  UNL     1       0.984  12.264  10.071  1.00  0.00    -0.516 OA
HETATM   16  O4  UNL     1       0.190  11.615   8.052  1.00  0.00    -0.516 OA
ENDBRANCH   8  14
ENDBRANCH   3   5
BRANCH   1  17
HETATM   17  C4  UNL     1       0.540   5.358   8.520  1.00  0.00     0.173 A
HETATM   18  C3  UNL     1       0.358   4.549   7.415  1.00  0.00     0.139 A
HETATM   19  C2  UNL     1       0.648   3.265   7.831  1.00  0.00     0.092 A
HETATM   20  C1  UNL     1       0.588   2.047   6.972  1.00  0.00     0.076 C
HETATM   21  N8  UNL     1       0.984   3.307   9.122  1.00  0.00    -0.164 N
HETATM   22  N7  UNL     1       0.920   4.563   9.535  1.00  0.00    -0.255 N
ATOM     23  H7  UNL     1       1.127   4.881  10.482  1.00  0.00     0.191 HD
BRANCH  18  24
HETATM   24  O1  UNL     1      -0.035   4.905   6.124  1.00  0.00    -0.355 OA
ATOM     25  H1  UNL     1       0.526   5.313   5.475  1.00  0.00     0.218 HD
ENDBRANCH  18  24
BRANCH  21  26
HETATM   26  O5  UNL     1       1.340   2.190   9.874  1.00  0.00    -0.268 OA
ATOM     27  H5  UNL     1       1.160   2.091  10.801  1.00  0.00     0.247 HD
ENDBRANCH  21  26
ENDBRANCH   1  17
TORSDOF 6
ENDMDL