MODEL 2
REMARK VINA RESULT: -6.757197370      1.150      1.619
REMARK  3 active torsions:
REMARK  status: ('A' for Active; 'I' for Inactive)
REMARK       I    between atoms: C1_4  and  N2_5
REMARK       I    between atoms: C1_4  and  N4_15
REMARK    1  A    between atoms: N2_5  and  N3_7
REMARK    2  A    between atoms: C4_11  and  C5_12
REMARK    3  A    between atoms: N4_15  and  N5_17
ROOT
HETATM    1  N1  UNL     1      -0.934   8.999  13.486  1.00  0.00    -0.232 N
ATOM      2  H11 UNL     1      -0.344   9.706  13.048  1.00  0.00     0.174 HD
ATOM      3  H12 UNL     1      -1.098   8.977  14.493  1.00  0.00     0.174 HD
HETATM    4  C1  UNL     1      -1.511   8.083  12.793  1.00  0.00     0.705 C
HETATM    5  N2  UNL     1      -2.332   7.099  13.404  1.00  0.00    -0.128 N
ATOM      6  H2  UNL     1      -3.222   6.839  12.980  1.00  0.00     0.206 HD
HETATM    7  N4  UNL     1      -1.279   8.114  11.376  1.00  0.00    -0.123 N
ATOM      8  H4  UNL     1      -0.679   7.406  10.954  1.00  0.00     0.206 HD
ENDROOT
BRANCH   5   9
HETATM    9  N3  UNL     1      -1.921   6.503  14.563  1.00  0.00    -0.267 N
HETATM   10  C2  UNL     1      -0.829   5.634  14.523  1.00  0.00     0.156 C
HETATM   11  S1  UNL     1      -0.587   5.250  16.305  1.00  0.00    -0.120 SA
HETATM   12  C3  UNL     1      -2.247   5.779  16.822  1.00  0.00     0.118 C
HETATM   13  C4  UNL     1      -2.851   6.302  15.564  1.00  0.00     0.218 C
BRANCH  13  14
HETATM   14  C5  UNL     1      -3.508   7.587  15.917  1.00  0.00     0.199 C
HETATM   15  O1  UNL     1      -2.933   8.700  15.879  1.00  0.00    -0.646 OA
HETATM   16  O2  UNL     1      -4.835   7.561  16.313  1.00  0.00    -0.646 OA
ENDBRANCH  13  14
ENDBRANCH   5   9
BRANCH   7  17
HETATM   17  N5  UNL     1      -1.855   9.087  10.566  1.00  0.00    -0.231 N
HETATM   18  C6  UNL     1      -1.386  10.312  10.305  1.00  0.00     0.224 A
HETATM   19  N6  UNL     1      -2.221  10.971   9.475  1.00  0.00    -0.293 N
HETATM   20  N7  UNL     1      -3.228  10.165   9.202  1.00  0.00    -0.293 N
ATOM     21  H6  UNL     1      -2.095  11.919   9.122  1.00  0.00     0.187 HD
HETATM   22  C7  UNL     1      -3.016   8.998   9.869  1.00  0.00     0.224 A
ATOM     23  H7  UNL     1      -4.023  10.379   8.599  1.00  0.00     0.187 HD
ENDBRANCH   7  17
TORSDOF 3
ENDMDL