MODEL 3
REMARK VINA RESULT: -7.276206930      1.883      2.304
REMARK  6 active torsions:
REMARK  status: ('A' for Active; 'I' for Inactive)
REMARK    1  A    between atoms: C3_3  and  N1_4
REMARK    2  A    between atoms: C5_8  and  C6_9
REMARK    3  A    between atoms: C8_13  and  N4_14
REMARK    4  A    between atoms: N4_14  and  N5_16
REMARK    5  A    between atoms: C10_21  and  O1_22
REMARK    6  A    between atoms: C11_25  and  C12_26
ROOT
HETATM    1  C1  UNL     1      -1.330   3.366  18.633  1.00  0.00     0.014 C
HETATM    2  C2  UNL     1      -1.298   4.531  18.324  1.00  0.00    -0.096 C
HETATM    3  C3  UNL     1      -1.244   5.944  17.955  1.00  0.00     0.242 C
ENDROOT
BRANCH   3   4
HETATM    4  N1  UNL     1      -0.731   6.129  16.621  1.00  0.00    -0.278 N
HETATM    5  N2  UNL     1       0.346   5.588  16.109  1.00  0.00    -0.307 N
HETATM    6  C4  UNL     1       0.502   5.994  14.842  1.00  0.00     0.125 A
ATOM      7  H2  UNL     1       0.974   4.953  16.602  1.00  0.00     0.186 HD
HETATM    8  C5  UNL     1      -0.562   6.849  14.552  1.00  0.00     0.064 A
HETATM    9  C11 UNL     1      -1.324   6.925  15.670  1.00  0.00     0.105 A
BRANCH   8  10
HETATM   10  C6  UNL     1      -0.726   7.483  13.266  1.00  0.00     0.165 A
HETATM   11  N3  UNL     1      -0.690   6.728  12.178  1.00  0.00    -0.333 N
HETATM   12  C7  UNL     1      -0.841   7.260  10.880  1.00  0.00     0.080 A
ATOM     13  H3  UNL     1      -0.549   5.723  12.283  1.00  0.00     0.168 HD
HETATM   14  C8  UNL     1      -0.796   6.457   9.831  1.00  0.00     0.138 C
HETATM   15  C9  UNL     1      -1.042   8.692  10.718  1.00  0.00     0.132 A
HETATM   16  N6  UNL     1      -1.201   9.295   9.447  1.00  0.00    -0.095 NA
HETATM   17  C10 UNL     1      -1.077   9.450  11.822  1.00  0.00     0.212 A
HETATM   18  O2  UNL     1      -0.920   8.818  13.009  1.00  0.00    -0.268 OA
BRANCH  14  19
HETATM   19  N4  UNL     1      -0.600   5.054   9.954  1.00  0.00    -0.316 N
ATOM     20  H4  UNL     1      -0.180   4.692  10.810  1.00  0.00     0.185 HD
BRANCH  19  21
HETATM   21  N5  UNL     1      -0.958   4.153   8.950  1.00  0.00    -0.345 N
ATOM     22  H52 UNL     1      -1.807   4.348   8.419  1.00  0.00     0.176 HD
ATOM     23  H51 UNL     1      -0.407   3.322   8.735  1.00  0.00     0.176 HD
ENDBRANCH  19  21
ENDBRANCH  14  19
BRANCH  17  24
HETATM   24  O1  UNL     1      -1.271  10.824  11.678  1.00  0.00    -0.339 OA
ATOM     25  H1  UNL     1      -0.637  11.318  11.171  1.00  0.00     0.220 HD
ENDBRANCH  17  24
ENDBRANCH   8  10
BRANCH   9  26
HETATM   26  C12 UNL     1      -2.542   7.670  15.915  1.00  0.00     0.290 C
HETATM   27  O3  UNL     1      -2.588   8.829  16.304  1.00  0.00    -0.300 OA
ENDBRANCH   9  26
ENDBRANCH   3   4
TORSDOF 6
ENDMDL