MODEL 1
REMARK VINA RESULT: -7.752046414      0.000      0.000
REMARK  4 active torsions:
REMARK  status: ('A' for Active; 'I' for Inactive)
REMARK    1  A    between atoms: N1_1  and  C1_5
REMARK    2  A    between atoms: C1_5  and  C2_6
REMARK       I    between atoms: C2_6  and  N2_8
REMARK    3  A    between atoms: N2_8  and  N3_10
REMARK       I    between atoms: N3_10  and  C3_12
REMARK       I    between atoms: C3_12  and  N4_14
REMARK    4  A    between atoms: N5_16  and  C4_18
ROOT
HETATM    1  N3  UNL     1      -0.961   5.418   9.702  1.00  0.00    -0.248 N
ATOM      2  H3  UNL     1      -1.598   4.852  10.262  1.00  0.00     0.192 HD
HETATM    3  C3  UNL     1      -0.433   6.610  10.221  1.00  0.00     0.353 C
HETATM    4  O2  UNL     1       0.344   7.302   9.541  1.00  0.00    -0.244 OA
HETATM    5  N4  UNL     1      -0.777   7.037  11.519  1.00  0.00    -0.250 N
ATOM      6  H4  UNL     1      -0.637   6.364  12.272  1.00  0.00     0.192 HD
HETATM    7  N5  UNL     1      -1.238   8.158  11.844  1.00  0.00    -0.291 N
ATOM      8  H5  UNL     1      -1.455   8.365  12.819  1.00  0.00     0.187 HD
ENDROOT
BRANCH   7   9
HETATM    9  C4  UNL     1      -1.452   9.132  10.836  1.00  0.00     0.130 A
HETATM   10  C5  UNL     1      -0.775  10.179  10.331  1.00  0.00     0.098 A
HETATM   11  N6  UNL     1       0.404  10.966  10.380  1.00  0.00    -0.347 N
HETATM   12  C7  UNL     1      -1.814  10.500   9.380  1.00  0.00     0.130 A
HETATM   13  C6  UNL     1       0.539  11.960   9.577  1.00  0.00     0.197 A
ATOM     14  H6  UNL     1       1.140  10.744  11.049  1.00  0.00     0.167 HD
HETATM   15  N7  UNL     1      -0.483  12.273   8.645  1.00  0.00    -0.296 N
HETATM   16  N8  UNL     1      -1.635  11.504   8.596  1.00  0.00    -0.294 N
ATOM     17  H7  UNL     1      -0.370  13.063   8.010  1.00  0.00     0.187 HD
ATOM     18  H8  UNL     1      -2.362  11.742   7.920  1.00  0.00     0.187 HD
HETATM   19  C8  UNL     1      -2.554   9.374   9.916  1.00  0.00     0.232 A
HETATM   20  O3  UNL     1      -3.676   8.887   9.636  1.00  0.00    -0.283 OA
ENDBRANCH   7   9
BRANCH   1  21
HETATM   21  N2  UNL     1      -0.606   5.007   8.405  1.00  0.00    -0.265 N
HETATM   22  C2  UNL     1       0.525   4.167   8.217  1.00  0.00     0.261 C
HETATM   23  O1  UNL     1       1.220   3.780   9.185  1.00  0.00    -0.270 OA
ATOM     24  H2  UNL     1      -1.158   5.310   7.603  1.00  0.00     0.190 HD
BRANCH  22  25
HETATM   25  C1  UNL     1       0.914   3.724   6.860  1.00  0.00     0.333 C
BRANCH  25  26
HETATM   26  N1  UNL     1       0.165   4.397   5.827  1.00  0.00    -0.071 N
ATOM     27  H13 UNL     1      -0.362   3.732   5.261  1.00  0.00     0.274 HD
ATOM     28  H12 UNL     1      -0.613   4.926   6.222  1.00  0.00     0.274 HD
ATOM     29  H11 UNL     1       0.755   4.991   5.245  1.00  0.00     0.274 HD
ENDBRANCH  25  26
ENDBRANCH  22  25
ENDBRANCH   1  21
TORSDOF 4
ENDMDL