MODEL 4
REMARK VINA RESULT: -7.433430775      2.109      6.267
REMARK  5 active torsions:
REMARK  status: ('A' for Active; 'I' for Inactive)
REMARK    1  A    between atoms: C2_2  and  N1_3
REMARK    2  A    between atoms: C2_2  and  C3_7
REMARK    3  A    between atoms: C3_7  and  N2_8
REMARK    4  A    between atoms: C3_7  and  N3_12
REMARK       I    between atoms: N3_12  and  C4_14
REMARK    5  A    between atoms: C4_14  and  C5_16
ROOT
HETATM    1  N3  UNL     1      -1.475   9.366  10.817  1.00  0.00    -0.326 N
ATOM      2  H3  UNL     1      -2.450   9.527  11.071  1.00  0.00     0.165 HD
HETATM    3  C4  UNL     1      -0.686   8.425  11.536  1.00  0.00     0.272 C
HETATM    4  O1  UNL     1       0.506   8.254  11.199  1.00  0.00    -0.266 OA
ENDROOT
BRANCH   3   5
HETATM    5  C5  UNL     1      -1.271   7.652  12.677  1.00  0.00     0.137 A
HETATM    6  N4  UNL     1      -1.363   6.317  12.531  1.00  0.00    -0.319 N
HETATM    7  S1  UNL     1      -2.045   5.782  13.960  1.00  0.00    -0.006 SA
ATOM      8  H4  UNL     1      -1.079   5.757  11.727  1.00  0.00     0.174 HD
HETATM    9  C6  UNL     1      -2.216   7.282  14.753  1.00  0.00     0.121 A
HETATM   10  C7  UNL     1      -2.709   7.707  15.999  1.00  0.00     0.281 A
HETATM   11  C8  UNL     1      -1.716   8.168  13.835  1.00  0.00     0.106 A
HETATM   12  O2  UNL     1      -3.142   6.806  16.755  1.00  0.00    -0.265 OA
HETATM   13  N5  UNL     1      -2.711   9.015  16.350  1.00  0.00    -0.251 N
HETATM   14  N6  UNL     1      -2.217   9.820  15.428  1.00  0.00    -0.239 N
ATOM     15  H5  UNL     1      -3.063   9.348  17.247  1.00  0.00     0.192 HD
HETATM   16  N7  UNL     1      -1.749   9.474  14.260  1.00  0.00    -0.282 N
ATOM     17  H6  UNL     1      -2.200  10.815  15.651  1.00  0.00     0.208 HD
ATOM     18  H7  UNL     1      -1.394  10.200  13.639  1.00  0.00     0.188 HD
ENDBRANCH   3   5
BRANCH   1  19
HETATM   19  C3  UNL     1      -0.876  10.085   9.731  1.00  0.00     0.314 C
BRANCH  19  20
HETATM   20  C2  UNL     1      -1.878  10.508   8.683  1.00  0.00     0.229 C
HETATM   21  C1  UNL     1      -3.175   9.738   8.804  1.00  0.00     0.043 C
BRANCH  20  22
HETATM   22  N1  UNL     1      -1.347  10.455   7.353  1.00  0.00    -0.072 N
ATOM     23  H13 UNL     1      -0.333  10.351   7.363  1.00  0.00     0.274 HD
ATOM     24  H12 UNL     1      -1.594   9.580   6.891  1.00  0.00     0.274 HD
ATOM     25  H11 UNL     1      -1.632  11.261   6.797  1.00  0.00     0.274 HD
ENDBRANCH  20  22
ENDBRANCH  19  20
BRANCH  19  26
HETATM   26  N2  UNL     1      -0.181  11.227  10.302  1.00  0.00    -0.056 N
ATOM     27  H23 UNL     1      -0.583  12.107   9.978  1.00  0.00     0.276 HD
ATOM     28  H22 UNL     1      -0.376  11.320  11.299  1.00  0.00     0.276 HD
ATOM     29  H21 UNL     1       0.822  11.187  10.121  1.00  0.00     0.276 HD
ENDBRANCH  19  26
ENDBRANCH   1  19
TORSDOF 5
ENDMDL