MODEL 3
REMARK VINA RESULT: -8.178099210      1.385      1.410
REMARK  4 active torsions:
REMARK  status: ('A' for Active; 'I' for Inactive)
REMARK       I    between atoms: C2_2  and  N1_4
REMARK    1  A    between atoms: N1_4  and  C3_6
REMARK    2  A    between atoms: C3_6  and  C8_20
REMARK    3  A    between atoms: N2_7  and  N3_9
REMARK    4  A    between atoms: C6_13  and  C7_14
ROOT
HETATM    1  C3  UNL     1      -0.409   9.078  11.005  1.00  0.00     0.170 C
HETATM    2  N2  UNL     1      -0.687   9.055  12.267  1.00  0.00    -0.281 N
ATOM      3  H2  UNL     1      -0.805   9.955  12.733  1.00  0.00     0.188 HD
ENDROOT
BRANCH   1   4
HETATM    4  N1  UNL     1      -0.291  10.316  10.379  1.00  0.00    -0.309 N
HETATM    5  C2  UNL     1      -0.378  10.649   9.011  1.00  0.00     0.219 C
HETATM    6  C1  UNL     1      -0.227  12.070   8.540  1.00  0.00     0.117 C
HETATM    7  O1  UNL     1      -0.583   9.770   8.164  1.00  0.00    -0.274 OA
ATOM      8  H1  UNL     1      -0.115  11.101  11.006  1.00  0.00     0.170 HD
ENDBRANCH   1   4
BRANCH   1   9
HETATM    9  C8  UNL     1      -0.235   7.810  10.346  1.00  0.00     0.183 A
HETATM   10  N6  UNL     1      -1.198   7.145   9.609  1.00  0.00    -0.266 N
HETATM   11  N7  UNL     1      -0.684   6.041   9.116  1.00  0.00    -0.226 N
ATOM     12  H6  UNL     1      -2.157   7.463   9.470  1.00  0.00     0.190 HD
HETATM   13  N8  UNL     1       0.562   5.941   9.488  1.00  0.00    -0.226 N
ATOM     14  H7  UNL     1      -1.182   5.367   8.534  1.00  0.00     0.210 HD
HETATM   15  N9  UNL     1       0.827   7.000  10.223  1.00  0.00    -0.266 N
ATOM     16  H8  UNL     1       1.207   5.186   9.253  1.00  0.00     0.210 HD
ATOM     17  H9  UNL     1       1.736   7.183  10.650  1.00  0.00     0.190 HD
ENDBRANCH   1   9
BRANCH   2  18
HETATM   18  N3  UNL     1      -0.838   7.935  13.032  1.00  0.00    -0.282 N
HETATM   19  C4  UNL     1      -1.396   7.835  14.162  1.00  0.00     0.143 A
HETATM   20  C5  UNL     1      -1.558   6.719  14.948  1.00  0.00     0.096 A
HETATM   21  N5  UNL     1      -1.958   8.855  14.831  1.00  0.00    -0.243 N
HETATM   22  C6  UNL     1      -2.232   7.137  16.087  1.00  0.00     0.167 A
HETATM   23  O3  UNL     1      -2.440   8.417  15.957  1.00  0.00    -0.231 OA
ATOM     24  H5  UNL     1      -1.999   9.821  14.508  1.00  0.00     0.196 HD
ATOM     25  H3  UNL     1      -0.453   7.073  12.645  1.00  0.00     0.188 HD
BRANCH  22  26
HETATM   26  C7  UNL     1      -2.616   6.291  17.193  1.00  0.00     0.290 C
HETATM   27  N4  UNL     1      -3.847   5.588  17.194  1.00  0.00    -0.055 NA
HETATM   28  O2  UNL     1      -1.873   6.149  18.193  1.00  0.00    -0.269 OA
ENDBRANCH  22  26
ENDBRANCH   2  18
TORSDOF 4
ENDMDL