MODEL 2
REMARK VINA RESULT: -7.010977690      2.000      3.377
REMARK  3 active torsions:
REMARK  status: ('A' for Active; 'I' for Inactive)
REMARK    1  A    between atoms: N1_2  and  C3_4
REMARK    2  A    between atoms: C5_11  and  N4_12
REMARK    3  A    between atoms: C6_15  and  C7_16
ROOT
HETATM    1  C3  UNL     1      -2.505   6.058  15.075  1.00  0.00     0.119 A
HETATM    2  N2  UNL     1      -2.866   6.877  14.016  1.00  0.00    -0.294 N
ATOM      3  H2  UNL     1      -3.850   6.960  13.764  1.00  0.00     0.172 HD
HETATM    4  C4  UNL     1      -1.962   7.552  13.326  1.00  0.00     0.327 A
HETATM    5  O1  UNL     1      -2.321   8.301  12.351  1.00  0.00    -0.247 OA
HETATM    6  N3  UNL     1      -0.675   7.431  13.669  1.00  0.00    -0.294 N
ATOM      7  H3  UNL     1       0.029   7.947  13.141  1.00  0.00     0.172 HD
HETATM    8  C5  UNL     1      -0.283   6.651  14.686  1.00  0.00     0.115 A
HETATM    9  C6  UNL     1      -1.216   5.913  15.449  1.00  0.00     0.062 A
ENDROOT
BRANCH   9  10
HETATM   10  C7  UNL     1      -0.733   5.114  16.524  1.00  0.00     0.232 A
HETATM   11  C8  UNL     1      -1.056   5.592  17.887  1.00  0.00     0.139 A
HETATM   12  N5  UNL     1      -0.947   6.951  18.328  1.00  0.00    -0.084 NA
HETATM   13  N6  UNL     1      -1.405   4.586  18.591  1.00  0.00    -0.178 N
HETATM   14  C9  UNL     1      -1.348   3.417  17.794  1.00  0.00     0.702 A
ATOM     15  H6  UNL     1      -1.682   4.619  19.572  1.00  0.00     0.185 HD
HETATM   16  N7  UNL     1      -1.557   2.089  17.874  1.00  0.00    -0.185 N
HETATM   17  N9  UNL     1      -0.950   3.710  16.548  1.00  0.00    -0.106 N
HETATM   18  C10 UNL     1      -1.278   1.605  16.663  1.00  0.00     0.215 A
ATOM     19  H7  UNL     1      -1.865   1.562  18.691  1.00  0.00     0.185 HD
HETATM   20  N8  UNL     1      -0.912   2.603  15.875  1.00  0.00    -0.278 N
ATOM     21  H8  UNL     1      -0.642   2.515  14.895  1.00  0.00     0.188 HD
ENDBRANCH   9  10
BRANCH   1  22
HETATM   22  N1  UNL     1      -3.573   5.405  15.679  1.00  0.00    -0.375 N
HETATM   23  C1  UNL     1      -4.242   5.959  16.823  1.00  0.00     0.150 C
HETATM   24  C2  UNL     1      -4.095   4.178  15.133  1.00  0.00     0.150 C
ENDBRANCH   1  22
BRANCH   8  25
HETATM   25  N4  UNL     1       0.959   6.554  14.991  1.00  0.00    -0.385 N
ATOM     26  H42 UNL     1       1.648   6.688  14.250  1.00  0.00     0.157 HD
ATOM     27  H41 UNL     1       1.242   6.352  15.949  1.00  0.00     0.157 HD
ENDBRANCH   8  25
TORSDOF 3
ENDMDL