MODEL 4
REMARK VINA RESULT: -8.570748267      0.629      1.252
REMARK  4 active torsions:
REMARK  status: ('A' for Active; 'I' for Inactive)
REMARK    1  A    between atoms: C3_6  and  N2_7
REMARK    2  A    between atoms: N3_10  and  C6_11
REMARK    3  A    between atoms: C6_11  and  N4_12
REMARK    4  A    between atoms: C7_19  and  N8_20
ROOT
HETATM    1  N2  UNL     1      -1.269   7.831  13.339  1.00  0.00    -0.358 N
HETATM    2  C4  UNL     1       0.097   7.887  12.947  1.00  0.00     0.169 C
HETATM    3  C5  UNL     1       0.266   7.485  11.519  1.00  0.00     0.084 C
HETATM    4  N3  UNL     1      -0.696   7.922  10.611  1.00  0.00    -0.352 N
HETATM    5  C8  UNL     1      -1.852   8.571  11.067  1.00  0.00     0.084 C
HETATM    6  C9  UNL     1      -2.289   8.284  12.464  1.00  0.00     0.169 C
ENDROOT
BRANCH   4   7
HETATM    7  C6  UNL     1      -0.212   8.558   9.405  1.00  0.00     0.297 C
BRANCH   7   8
HETATM    8  N4  UNL     1      -0.184   9.993   9.486  1.00  0.00    -0.089 N
HETATM    9  N5  UNL     1       0.350  10.699  10.443  1.00  0.00    -0.209 N
HETATM   10  N6  UNL     1       0.181  11.971  10.174  1.00  0.00    -0.213 N
ATOM     11  H5  UNL     1       0.822  10.324  11.266  1.00  0.00     0.210 HD
HETATM   12  N7  UNL     1      -0.468  12.067   9.031  1.00  0.00    -0.115 N
ATOM     13  H6  UNL     1       0.498  12.751  10.750  1.00  0.00     0.210 HD
HETATM   14  C7  UNL     1      -0.709  10.823   8.581  1.00  0.00     0.711 A
ATOM     15  H7  UNL     1      -0.741  12.935   8.569  1.00  0.00     0.207 HD
BRANCH  14  16
HETATM   16  N8  UNL     1      -1.336  10.500   7.471  1.00  0.00    -0.232 N
ATOM     17  H82 UNL     1      -1.018   9.835   6.766  1.00  0.00     0.174 HD
ATOM     18  H81 UNL     1      -2.231  10.858   7.139  1.00  0.00     0.174 HD
ENDBRANCH  14  16
ENDBRANCH   7   8
ENDBRANCH   4   7
BRANCH   1  19
HETATM   19  C3  UNL     1      -1.611   7.316  14.613  1.00  0.00     0.108 A
HETATM   20  C2  UNL     1      -2.893   7.384  15.116  1.00  0.00     0.096 A
HETATM   21  C1  UNL     1      -3.262   6.896  16.347  1.00  0.00     0.103 A
HETATM   22  N1  UNL     1      -4.435   6.949  16.828  1.00  0.00    -0.385 N
HETATM   23  N10 UNL     1      -2.279   6.321  17.084  1.00  0.00    -0.339 N
ATOM     24  H12 UNL     1      -5.174   7.382  16.275  1.00  0.00     0.157 HD
ATOM     25  H11 UNL     1      -4.709   6.587  17.742  1.00  0.00     0.157 HD
HETATM   26  C10 UNL     1      -1.023   6.246  16.606  1.00  0.00     0.183 A
ATOM     27  H10 UNL     1      -2.492   5.942  18.006  1.00  0.00     0.168 HD
HETATM   28  N9  UNL     1      -0.683   6.722  15.416  1.00  0.00    -0.339 N
ATOM     29  H9  UNL     1       0.283   6.642  15.098  1.00  0.00     0.168 HD
ENDBRANCH   1  19
TORSDOF 4
ENDMDL