MODEL 1
REMARK VINA RESULT: -7.058894409      0.000      0.000
REMARK  6 active torsions:
REMARK  status: ('A' for Active; 'I' for Inactive)
REMARK    1  A    between atoms: O1_2  and  N1_3
REMARK    2  A    between atoms: N1_3  and  C2_5
REMARK    3  A    between atoms: C3_8  and  N3_9
REMARK    4  A    between atoms: N3_9  and  N4_11
REMARK    5  A    between atoms: C4_16  and  N6_17
REMARK    6  A    between atoms: C9_25  and  N8_26
ROOT
HETATM    1  C2  UNL     1       0.100   7.632  10.043  1.00  0.00     0.185 C
HETATM    2  N2  UNL     1      -0.412   8.908  10.009  1.00  0.00    -0.169 N
ATOM      3  H2  UNL     1      -0.354   9.391   9.113  1.00  0.00     0.186 HD
HETATM    4  C3  UNL     1      -0.984   9.601  11.027  1.00  0.00     0.712 C
HETATM    5  N5  UNL     1      -1.010   9.301  12.357  1.00  0.00    -0.021 N
ATOM      6  H5  UNL     1      -1.238  10.050  13.012  1.00  0.00     0.203 HD
HETATM    7  C4  UNL     1      -0.756   8.084  12.859  1.00  0.00     0.696 C
HETATM    8  N7  UNL     1      -0.101   6.997  12.352  1.00  0.00    -0.173 N
ATOM      9  H7  UNL     1      -0.127   6.132  12.892  1.00  0.00     0.186 HD
HETATM   10  C9  UNL     1       0.590   6.990  11.160  1.00  0.00     0.161 C
ENDROOT
BRANCH   7  11
HETATM   11  N6  UNL     1      -1.270   7.874  14.189  1.00  0.00    -0.213 N
HETATM   12  C5  UNL     1      -0.968   6.681  14.914  1.00  0.00     0.167 C
HETATM   13  C6  UNL     1      -1.351   6.674  16.349  1.00  0.00     0.188 C
HETATM   14  O2  UNL     1      -1.750   7.871  16.881  1.00  0.00    -0.388 OA
HETATM   15  C7  UNL     1      -2.710   8.511  16.100  1.00  0.00     0.188 C
HETATM   16  C8  UNL     1      -2.106   8.885  14.798  1.00  0.00     0.167 C
ENDBRANCH   7  11
BRANCH   4  17
HETATM   17  N3  UNL     1      -1.591  10.689  10.736  1.00  0.00    -0.138 N
ATOM     18  H3  UNL     1      -1.714  11.372  11.483  1.00  0.00     0.205 HD
BRANCH  17  19
HETATM   19  N4  UNL     1      -2.090  11.012   9.492  1.00  0.00    -0.331 N
ATOM     20  H42 UNL     1      -2.484  10.243   8.949  1.00  0.00     0.177 HD
ATOM     21  H41 UNL     1      -2.094  11.946   9.084  1.00  0.00     0.177 HD
ENDBRANCH  17  19
ENDBRANCH   4  17
BRANCH  10  22
HETATM   22  N8  UNL     1       1.715   6.388  11.129  1.00  0.00    -0.382 N
ATOM     23  H82 UNL     1       2.409   6.714  10.458  1.00  0.00     0.157 HD
ATOM     24  H81 UNL     1       1.902   5.595  11.743  1.00  0.00     0.157 HD
ENDBRANCH  10  22
BRANCH   1  25
HETATM   25  N1  UNL     1       0.129   6.982   8.965  1.00  0.00    -0.247 N
ATOM     26  H1  UNL     1       0.311   7.512   8.112  1.00  0.00     0.196 HD
BRANCH  25  27
HETATM   27  O1  UNL     1      -0.057   5.650   8.829  1.00  0.00    -0.284 OA
HETATM   28  C1  UNL     1       0.552   4.902   7.804  1.00  0.00     0.237 C
ENDBRANCH  25  27
ENDBRANCH   1  25
TORSDOF 6
ENDMDL