MODEL 2
REMARK VINA RESULT: -8.442020416      1.335      1.335
REMARK  5 active torsions:
REMARK  status: ('A' for Active; 'I' for Inactive)
REMARK    1  A    between atoms: N1_1  and  C1_4
REMARK    2  A    between atoms: C2_7  and  C3_8
REMARK    3  A    between atoms: C3_8  and  S1_9
REMARK    4  A    between atoms: S1_9  and  C4_10
REMARK    5  A    between atoms: N9_26  and  O2_27
ROOT
HETATM    1  C1  UNL     1      -0.975   7.282  10.105  1.00  0.00     0.713 A
HETATM    2  N2  UNL     1      -0.944   7.010  11.424  1.00  0.00    -0.177 N
ATOM      3  H2  UNL     1      -1.136   6.056  11.728  1.00  0.00     0.185 HD
HETATM    4  C2  UNL     1      -0.673   7.937  12.357  1.00  0.00     0.123 A
HETATM    5  N6  UNL     1      -0.422   9.193  11.942  1.00  0.00    -0.174 N
ATOM      6  H6  UNL     1      -0.214   9.915  12.633  1.00  0.00     0.185 HD
HETATM    7  C6  UNL     1      -0.439   9.518  10.633  1.00  0.00     0.751 A
HETATM    8  N7  UNL     1      -0.716   8.553   9.744  1.00  0.00     0.096 N
HETATM    9  N8  UNL     1      -0.679   9.095   8.516  1.00  0.00    -0.213 N
ATOM     10  H8  UNL     1      -0.848   8.612   7.634  1.00  0.00     0.193 HD
HETATM   11  C7  UNL     1      -0.380  10.394   8.670  1.00  0.00     0.382 A
HETATM   12  O1  UNL     1      -0.260  11.221   7.733  1.00  0.00    -0.242 OA
HETATM   13  N9  UNL     1      -0.226  10.680   9.971  1.00  0.00     0.008 N
ENDROOT
BRANCH   4  14
HETATM   14  C3  UNL     1      -0.647   7.603  13.804  1.00  0.00     0.160 C
BRANCH  14  15
HETATM   15  S1  UNL     1      -1.983   8.490  14.649  1.00  0.00    -0.085 SA
BRANCH  15  16
HETATM   16  C4  UNL     1      -2.815   7.441  15.830  1.00  0.00     0.160 A
HETATM   17  N3  UNL     1      -2.429   6.304  16.396  1.00  0.00    -0.331 N
HETATM   18  C5  UNL     1      -3.383   5.851  17.237  1.00  0.00     0.199 A
ATOM     19  H3  UNL     1      -1.539   5.839  16.221  1.00  0.00     0.168 HD
HETATM   20  N4  UNL     1      -4.372   6.767  17.157  1.00  0.00    -0.294 N
HETATM   21  N5  UNL     1      -4.036   7.722  16.315  1.00  0.00    -0.279 N
ATOM     22  H4  UNL     1      -5.251   6.724  17.672  1.00  0.00     0.187 HD
ATOM     23  H5  UNL     1      -4.604   8.535  16.073  1.00  0.00     0.189 HD
ENDBRANCH  15  16
ENDBRANCH  14  15
ENDBRANCH   4  14
BRANCH   1  24
HETATM   24  N1  UNL     1      -1.240   6.359   9.239  1.00  0.00    -0.232 N
ATOM     25  H12 UNL     1      -1.412   5.391   9.511  1.00  0.00     0.174 HD
ATOM     26  H11 UNL     1      -1.288   6.570   8.242  1.00  0.00     0.174 HD
ENDBRANCH   1  24
BRANCH  13  27
HETATM   27  O2  UNL     1       0.084  11.892  10.547  1.00  0.00    -0.265 OA
ATOM     28  H2  UNL     1       0.960  12.228  10.699  1.00  0.00     0.246 HD
ENDBRANCH  13  27
TORSDOF 5
ENDMDL