MODEL 1
REMARK VINA RESULT: -8.924686044      0.000      0.000
REMARK  4 active torsions:
REMARK  status: ('A' for Active; 'I' for Inactive)
REMARK    1  A    between atoms: C1_2  and  C2_3
REMARK       I    between atoms: C1_2  and  N5_22
REMARK    2  A    between atoms: C2_3  and  O2_4
REMARK    3  A    between atoms: C2_3  and  N1_6
REMARK    4  A    between atoms: N1_6  and  C3_8
ROOT
HETATM    1  C3  UNL     1      -1.015   8.382  12.701  1.00  0.00     0.164 C
HETATM    2  N2  UNL     1      -1.344   9.124  13.729  1.00  0.00    -0.285 N
ATOM      3  H2  UNL     1      -1.243  10.138  13.765  1.00  0.00     0.184 HD
HETATM    4  N3  UNL     1      -1.850   8.345  14.766  1.00  0.00    -0.121 NA
HETATM    5  C4  UNL     1      -2.027   6.974  14.347  1.00  0.00     0.121 C
HETATM    6  C5  UNL     1      -3.488   6.744  14.091  1.00  0.00     0.064 C
HETATM    7  C6  UNL     1      -3.897   5.399  14.596  1.00  0.00     0.235 C
HETATM    8  N4  UNL     1      -3.629   5.371  16.030  1.00  0.00    -0.075 N
ATOM      9  H41 UNL     1      -4.070   4.565  16.474  1.00  0.00     0.277 HD
ATOM     10  H42 UNL     1      -4.131   6.115  16.516  1.00  0.00     0.277 HD
HETATM   11  C7  UNL     1      -2.233   5.420  16.310  1.00  0.00     0.235 C
HETATM   12  C8  UNL     1      -1.383   5.974  15.225  1.00  0.00     0.064 C
HETATM   13  C9  UNL     1      -1.336   6.976  13.032  1.00  0.00     0.220 C
HETATM   14  O3  UNL     1      -1.072   5.969  12.333  1.00  0.00    -0.287 OA
ENDROOT
BRANCH   1  15
HETATM   15  N1  UNL     1      -0.473   8.875  11.493  1.00  0.00    -0.339 N
ATOM     16  H1  UNL     1       0.355   8.406  11.127  1.00  0.00     0.164 HD
BRANCH  15  17
HETATM   17  C2  UNL     1      -0.999   9.997  10.729  1.00  0.00     0.320 C
BRANCH  17  18
HETATM   18  C1  UNL     1      -0.275  10.293   9.500  1.00  0.00     0.333 C
HETATM   19  O1  UNL     1      -0.397   9.487   8.522  1.00  0.00    -0.262 OA
HETATM   20  N5  UNL     1       0.556  11.412   9.325  1.00  0.00    -0.073 N
HETATM   21  O4  UNL     1       0.827  12.255  10.196  1.00  0.00    -0.529 OA
HETATM   22  O5  UNL     1       1.179  11.622   8.088  1.00  0.00    -0.529 OA
ENDBRANCH  17  18
BRANCH  17  23
HETATM   23  O2  UNL     1      -0.974  11.152  11.552  1.00  0.00    -0.368 OA
ATOM     24  H2  UNL     1      -0.277  11.050  12.189  1.00  0.00     0.212 HD
ENDBRANCH  17  23
ENDBRANCH  15  17
ENDBRANCH   1  15
TORSDOF 4
ENDMDL