MODEL 2
REMARK VINA RESULT: -7.411365210      1.673      2.196
REMARK  8 active torsions:
REMARK  status: ('A' for Active; 'I' for Inactive)
REMARK    1  A    between atoms: N1_2  and  N2_3
REMARK    2  A    between atoms: N1_2  and  C2_7
REMARK    3  A    between atoms: N2_3  and  O1_5
REMARK    4  A    between atoms: C2_7  and  O2_8
REMARK    5  A    between atoms: C2_7  and  C3_10
REMARK    6  A    between atoms: C4_11  and  O3_12
REMARK    7  A    between atoms: C5_15  and  C6_16
REMARK       I    between atoms: C6_16  and  N3_18
REMARK    8  A    between atoms: C8_22  and  C9_23
ROOT
HETATM    1  C6  UNL     1      -1.716   8.025  12.880  1.00  0.00     0.289 C
HETATM    2  O5  UNL     1      -1.650   7.210  11.918  1.00  0.00    -0.264 OA
HETATM    3  N3  UNL     1      -1.331   9.350  12.704  1.00  0.00    -0.258 N
ATOM      4  H3  UNL     1      -1.391  10.027  13.465  1.00  0.00     0.181 HD
HETATM    5  C7  UNL     1      -0.847   9.723  11.413  1.00  0.00     0.184 C
HETATM    6  N4  UNL     1      -0.446  10.022  10.383  1.00  0.00    -0.172 NA
ENDROOT
BRANCH   1   7
HETATM    7  C5  UNL     1      -2.214   7.522  14.159  1.00  0.00     0.163 A
HETATM    8  O4  UNL     1      -3.348   7.954  14.709  1.00  0.00    -0.281 OA
HETATM    9  C4  UNL     1      -3.605   7.386  15.828  1.00  0.00     0.199 A
HETATM   10  C3  UNL     1      -2.558   6.461  16.099  1.00  0.00     0.093 A
HETATM   11  C8  UNL     1      -1.711   6.581  15.030  1.00  0.00     0.088 A
BRANCH   9  12
HETATM   12  O3  UNL     1      -4.710   7.601  16.678  1.00  0.00    -0.340 OA
ATOM     13  H3  UNL     1      -4.675   8.112  17.479  1.00  0.00     0.220 HD
ENDBRANCH   9  12
BRANCH  10  14
HETATM   14  C2  UNL     1      -2.558   5.722  17.328  1.00  0.00     0.174 C
BRANCH  14  15
HETATM   15  N1  UNL     1      -1.537   5.489  18.221  1.00  0.00    -0.255 N
HETATM   16  C1  UNL     1      -1.168   4.280  18.873  1.00  0.00     0.182 C
BRANCH  15  17
HETATM   17  N2  UNL     1      -0.662   6.600  18.587  1.00  0.00    -0.206 N
ATOM     18  H2  UNL     1      -0.358   7.275  17.886  1.00  0.00     0.216 HD
BRANCH  17  19
HETATM   19  O1  UNL     1      -0.295   6.707  19.768  1.00  0.00    -0.274 OA
ATOM     20  H1  UNL     1       0.605   6.495  19.988  1.00  0.00     0.246 HD
ENDBRANCH  17  19
ENDBRANCH  15  17
ENDBRANCH  14  15
BRANCH  14  21
HETATM   21  O2  UNL     1      -3.693   5.165  17.665  1.00  0.00    -0.344 OA
ATOM     22  H2  UNL     1      -4.413   5.378  17.085  1.00  0.00     0.219 HD
ENDBRANCH  14  21
ENDBRANCH  10  14
BRANCH  11  23
HETATM   23  C9  UNL     1      -0.424   5.935  14.837  1.00  0.00     0.269 C
HETATM   24  N5  UNL     1       0.736   6.298  15.623  1.00  0.00    -0.057 NA
HETATM   25  O6  UNL     1      -0.207   5.023  13.979  1.00  0.00    -0.271 OA
ENDBRANCH  11  23
ENDBRANCH   1   7
TORSDOF 8
ENDMDL