MODEL 3
REMARK VINA RESULT: -7.617419819      2.630      3.808
REMARK  4 active torsions:
REMARK  status: ('A' for Active; 'I' for Inactive)
REMARK    1  A    between atoms: N1_1  and  C1_4
REMARK    2  A    between atoms: C2_7  and  N3_8
REMARK       I    between atoms: N3_8  and  C3_10
REMARK       I    between atoms: C3_10  and  N4_12
REMARK    3  A    between atoms: N4_12  and  N5_14
REMARK    4  A    between atoms: N5_14  and  O2_15
ROOT
HETATM    1  C1  UNL     1      30.842  23.405  41.392  1.00  0.00     0.679 A
HETATM    2  N2  UNL     1      31.797  24.023  40.653  1.00  0.00    -0.174 N
ATOM      3  H2  UNL     1      32.609  24.415  41.130  1.00  0.00     0.186 HD
HETATM    4  C2  UNL     1      31.715  24.139  39.315  1.00  0.00     0.163 A
HETATM    5  C4  UNL     1      30.609  23.602  38.691  1.00  0.00     0.170 A
HETATM    6  O3  UNL     1      30.251  23.556  37.437  1.00  0.00    -0.253 OA
HETATM    7  C5  UNL     1      29.121  22.943  37.327  1.00  0.00     0.371 A
HETATM    8  O4  UNL     1      28.456  22.702  36.264  1.00  0.00    -0.238 OA
HETATM    9  N6  UNL     1      28.710  22.567  38.552  1.00  0.00    -0.285 N
ATOM     10  H6  UNL     1      27.850  22.064  38.771  1.00  0.00     0.172 HD
HETATM   11  C6  UNL     1      29.635  22.973  39.430  1.00  0.00     0.163 A
HETATM   12  N7  UNL     1      29.766  22.883  40.777  1.00  0.00    -0.174 N
ATOM     13  H7  UNL     1      29.044  22.416  41.326  1.00  0.00     0.186 HD
ENDROOT
BRANCH   4  14
HETATM   14  N3  UNL     1      32.605  24.721  38.588  1.00  0.00    -0.291 N
HETATM   15  C3  UNL     1      33.657  24.025  37.933  1.00  0.00     0.339 C
HETATM   16  O1  UNL     1      33.682  23.893  36.675  1.00  0.00    -0.245 OA
HETATM   17  N4  UNL     1      34.683  23.481  38.745  1.00  0.00    -0.229 N
ATOM     18  H4  UNL     1      34.667  23.586  39.759  1.00  0.00     0.189 HD
ATOM     19  H3  UNL     1      32.552  25.733  38.476  1.00  0.00     0.172 HD
BRANCH  17  20
HETATM   20  N5  UNL     1      35.735  22.786  38.095  1.00  0.00     0.022 NA
BRANCH  20  21
HETATM   21  O2  UNL     1      36.390  23.484  37.269  1.00  0.00    -0.277 OA
ATOM     22  H2  UNL     1      36.551  23.057  36.436  1.00  0.00     0.240 HD
ENDBRANCH  20  21
ENDBRANCH  17  20
ENDBRANCH   4  14
BRANCH   1  23
HETATM   23  N1  UNL     1      30.969  23.320  42.671  1.00  0.00    -0.234 N
ATOM     24  H12 UNL     1      31.483  22.545  43.090  1.00  0.00     0.174 HD
ATOM     25  H11 UNL     1      30.556  24.031  43.275  1.00  0.00     0.174 HD
ENDBRANCH   1  23
TORSDOF 4
ENDMDL