MODEL 4
REMARK VINA RESULT: -8.274780330      2.163      3.035
REMARK  2 active torsions:
REMARK  status: ('A' for Active; 'I' for Inactive)
REMARK    1  A    between atoms: N4_13  and  N5_15
REMARK    2  A    between atoms: N6_17  and  C7_19
ROOT
HETATM    1  C1  UNL     1      28.728  21.670  40.959  1.00  0.00     0.047 C
HETATM    2  C2  UNL     1      29.380  22.489  41.757  1.00  0.00     0.070 C
HETATM    3  N1  UNL     1      28.982  22.596  43.108  1.00  0.00    -0.342 N
ATOM      4  H1  UNL     1      28.291  21.900  43.390  1.00  0.00     0.167 HD
HETATM    5  C3  UNL     1      29.362  23.493  44.155  1.00  0.00     0.122 C
HETATM    6  N2  UNL     1      28.805  23.272  45.427  1.00  0.00    -0.083 NA
HETATM    7  C4  UNL     1      30.203  24.527  44.029  1.00  0.00     0.119 C
HETATM    8  C5  UNL     1      30.929  25.010  42.869  1.00  0.00     0.250 C
HETATM    9  O1  UNL     1      31.537  26.092  43.024  1.00  0.00    -0.268 OA
HETATM   10  N3  UNL     1      31.055  24.437  41.581  1.00  0.00    -0.307 N
ATOM     11  H3  UNL     1      31.621  24.958  40.911  1.00  0.00     0.170 HD
HETATM   12  C6  UNL     1      30.479  23.210  41.104  1.00  0.00     0.150 C
HETATM   13  N4  UNL     1      30.962  22.699  40.022  1.00  0.00    -0.269 N
ATOM     14  H4  UNL     1      30.594  21.830  39.634  1.00  0.00     0.190 HD
ENDROOT
BRANCH  13  15
HETATM   15  N5  UNL     1      32.009  23.387  39.402  1.00  0.00    -0.227 N
HETATM   16  N6  UNL     1      31.858  23.920  38.261  1.00  0.00    -0.115 N
ATOM     17  H6  UNL     1      30.970  23.864  37.761  1.00  0.00     0.207 HD
ATOM     18  H5  UNL     1      32.910  23.461  39.874  1.00  0.00     0.209 HD
BRANCH  16  19
HETATM   19  C7  UNL     1      32.976  24.598  37.709  1.00  0.00     0.726 A
HETATM   20  N7  UNL     1      33.240  24.762  36.407  1.00  0.00    -0.112 N
HETATM   21  N8  UNL     1      34.376  25.450  36.338  1.00  0.00     0.009 NA
ATOM     22  H7  UNL     1      32.681  24.426  35.624  1.00  0.00     0.203 HD
HETATM   23  N9  UNL     1      34.823  25.717  37.558  1.00  0.00    -0.211 N
HETATM   24  N10 UNL     1      33.971  25.199  38.416  1.00  0.00    -0.117 N
ATOM     25  H9  UNL     1      35.673  26.231  37.788  1.00  0.00     0.206 HD
ATOM     26  H10 UNL     1      34.044  25.239  39.433  1.00  0.00     0.207 HD
ENDBRANCH  16  19
ENDBRANCH  13  15
TORSDOF 2
ENDMDL