MODEL 2
REMARK VINA RESULT: -7.070384917      1.600      6.548
REMARK  5 active torsions:
REMARK  status: ('A' for Active; 'I' for Inactive)
REMARK    1  A    between atoms: C3_3  and  C4_4
REMARK       I    between atoms: C4_4  and  N1_6
REMARK       I    between atoms: N1_6  and  C5_8
REMARK    2  A    between atoms: C7_14  and  C8_15
REMARK    3  A    between atoms: C8_15  and  O4_16
REMARK    4  A    between atoms: C8_15  and  N4_18
REMARK    5  A    between atoms: N4_18  and  N5_20
ROOT
HETATM    1  C1  UNL     1      32.546  25.507  42.623  1.00  0.00     0.052 C
HETATM    2  C2  UNL     1      31.773  24.595  41.782  1.00  0.00    -0.004 A
HETATM    3  C3  UNL     1      30.712  23.859  42.227  1.00  0.00     0.152 A
HETATM    4  O3  UNL     1      30.211  23.210  41.163  1.00  0.00    -0.289 OA
HETATM    5  C6  UNL     1      30.904  23.505  40.107  1.00  0.00     0.173 A
HETATM    6  N3  UNL     1      30.615  22.970  38.824  1.00  0.00    -0.073 NA
HETATM    7  C7  UNL     1      31.934  24.398  40.449  1.00  0.00     0.073 A
ENDROOT
BRANCH   7   8
HETATM    8  C8  UNL     1      32.871  24.899  39.497  1.00  0.00     0.169 C
BRANCH   8   9
HETATM    9  O4  UNL     1      32.389  25.618  38.516  1.00  0.00    -0.344 OA
ATOM     10  H4  UNL     1      32.803  25.517  37.667  1.00  0.00     0.219 HD
ENDBRANCH   8   9
BRANCH   8  11
HETATM   11  N4  UNL     1      34.246  24.765  39.400  1.00  0.00    -0.286 N
ATOM     12  H4  UNL     1      34.840  25.497  39.788  1.00  0.00     0.188 HD
BRANCH  11  13
HETATM   13  N5  UNL     1      34.857  23.644  38.779  1.00  0.00    -0.343 N
ATOM     14  H52 UNL     1      35.448  23.814  37.965  1.00  0.00     0.176 HD
ATOM     15  H51 UNL     1      34.725  22.691  39.120  1.00  0.00     0.176 HD
ENDBRANCH  11  13
ENDBRANCH   8  11
ENDBRANCH   7   8
BRANCH   3  16
HETATM   16  C4  UNL     1      30.088  23.658  43.516  1.00  0.00     0.283 C
HETATM   17  O1  UNL     1      29.633  22.487  43.839  1.00  0.00    -0.265 OA
HETATM   18  N1  UNL     1      29.926  24.659  44.499  1.00  0.00    -0.276 N
HETATM   19  C5  UNL     1      29.262  24.380  45.740  1.00  0.00     0.335 C
ATOM     20  H1  UNL     1      30.288  25.597  44.323  1.00  0.00     0.173 HD
HETATM   21  N2  UNL     1      29.120  25.405  46.694  1.00  0.00    -0.040 NA
HETATM   22  O2  UNL     1      28.827  23.231  45.935  1.00  0.00    -0.251 OA
ENDBRANCH   3  16
TORSDOF 5
ENDMDL