MODEL 3
REMARK VINA RESULT: -7.536779912      3.017      5.714
REMARK  3 active torsions:
REMARK  status: ('A' for Active; 'I' for Inactive)
REMARK    1  A    between atoms: N1_1  and  C1_4
REMARK    2  A    between atoms: C6_18  and  N6_19
REMARK    3  A    between atoms: N6_19  and  C7_21
ROOT
HETATM    1  C1  UNL     1      28.620  21.794  40.684  1.00  0.00     0.118 A
HETATM    2  C2  UNL     1      29.841  22.353  40.389  1.00  0.00     0.100 A
HETATM    3  C3  UNL     1      30.480  23.220  41.277  1.00  0.00     0.134 A
HETATM    4  N2  UNL     1      31.638  23.901  41.269  1.00  0.00    -0.325 N
ATOM      5  H2  UNL     1      32.331  23.898  40.520  1.00  0.00     0.169 HD
HETATM    6  C4  UNL     1      31.722  24.587  42.424  1.00  0.00     0.155 A
HETATM    7  N3  UNL     1      32.661  25.418  42.924  1.00  0.00    -0.174 N
ATOM      8  H3  UNL     1      33.505  25.622  42.390  1.00  0.00     0.186 HD
HETATM    9  C5  UNL     1      32.469  25.970  44.130  1.00  0.00     0.679 A
HETATM   10  N4  UNL     1      33.377  26.763  44.593  1.00  0.00    -0.234 N
ATOM     11  H41 UNL     1      33.231  27.183  45.510  1.00  0.00     0.174 HD
ATOM     12  H42 UNL     1      34.211  26.948  44.035  1.00  0.00     0.174 HD
HETATM   13  N5  UNL     1      31.353  25.722  44.878  1.00  0.00    -0.174 N
ATOM     14  H5  UNL     1      31.249  26.164  45.791  1.00  0.00     0.186 HD
HETATM   15  C6  UNL     1      30.390  24.903  44.424  1.00  0.00     0.156 A
HETATM   16  C8  UNL     1      30.576  24.331  43.187  1.00  0.00     0.149 A
HETATM   17  N7  UNL     1      29.844  23.479  42.428  1.00  0.00    -0.218 N
HETATM   18  N8  UNL     1      28.669  22.937  42.707  1.00  0.00    -0.232 N
ATOM     19  H8  UNL     1      28.218  23.159  43.594  1.00  0.00     0.209 HD
HETATM   20  N9  UNL     1      28.057  22.109  41.859  1.00  0.00    -0.271 N
ATOM     21  H9  UNL     1      27.151  21.711  42.108  1.00  0.00     0.190 HD
ENDROOT
BRANCH  15  22
HETATM   22  N6  UNL     1      29.334  24.660  45.116  1.00  0.00    -0.318 N
ATOM     23  H6  UNL     1      28.471  24.467  44.607  1.00  0.00     0.169 HD
BRANCH  22  24
HETATM   24  C7  UNL     1      29.277  24.641  46.513  1.00  0.00     0.354 C
HETATM   25  O1  UNL     1      30.205  24.135  47.176  1.00  0.00    -0.283 OA
ENDBRANCH  22  24
ENDBRANCH  15  22
BRANCH   1  26
HETATM   26  N1  UNL     1      28.068  20.998  39.835  1.00  0.00    -0.384 N
ATOM     27  H12 UNL     1      27.917  20.007  40.022  1.00  0.00     0.157 HD
ATOM     28  H11 UNL     1      27.765  21.362  38.932  1.00  0.00     0.157 HD
ENDBRANCH   1  26
TORSDOF 3
ENDMDL