MODEL 5
REMARK VINA RESULT: -6.942822214      1.939      3.971
REMARK  5 active torsions:
REMARK  status: ('A' for Active; 'I' for Inactive)
REMARK    1  A    between atoms: O1_2  and  C2_3
REMARK    2  A    between atoms: C2_3  and  C3_7
REMARK    3  A    between atoms: C5_11  and  N3_12
REMARK    4  A    between atoms: C6_17  and  N5_18
REMARK    5  A    between atoms: N5_18  and  C7_20
ROOT
HETATM    1  C3  UNL     1      30.518  24.372  40.521  1.00  0.00     0.075 A
HETATM    2  C4  UNL     1      29.905  24.872  41.668  1.00  0.00     0.125 A
HETATM    3  N2  UNL     1      30.627  25.368  42.682  1.00  0.00    -0.201 N
ATOM      4  H2  UNL     1      30.146  25.725  43.508  1.00  0.00     0.183 HD
HETATM    5  C5  UNL     1      31.971  25.406  42.637  1.00  0.00     0.677 A
HETATM    6  N4  UNL     1      32.557  24.932  41.546  1.00  0.00    -0.175 N
ATOM      7  H4  UNL     1      33.576  24.957  41.504  1.00  0.00     0.186 HD
HETATM    8  C6  UNL     1      31.896  24.420  40.493  1.00  0.00     0.152 A
ENDROOT
BRANCH   8   9
HETATM    9  N5  UNL     1      32.590  23.928  39.354  1.00  0.00    -0.172 N
ATOM     10  H5  UNL     1      32.660  22.920  39.219  1.00  0.00     0.186 HD
BRANCH   9  11
HETATM   11  C7  UNL     1      33.135  24.715  38.481  1.00  0.00     0.715 A
HETATM   12  N6  UNL     1      34.302  25.353  38.493  1.00  0.00    -0.115 N
HETATM   13  N7  UNL     1      34.414  26.049  37.353  1.00  0.00    -0.213 N
ATOM     14  H6  UNL     1      34.994  25.318  39.241  1.00  0.00     0.207 HD
HETATM   15  N8  UNL     1      33.340  25.857  36.633  1.00  0.00    -0.213 N
ATOM     16  H7  UNL     1      35.208  26.633  37.091  1.00  0.00     0.210 HD
HETATM   17  N9  UNL     1      32.540  25.034  37.317  1.00  0.00    -0.115 N
ATOM     18  H8  UNL     1      33.148  26.261  35.716  1.00  0.00     0.210 HD
ATOM     19  H9  UNL     1      31.626  24.703  37.007  1.00  0.00     0.207 HD
ENDBRANCH   9  11
ENDBRANCH   8   9
BRANCH   1  20
HETATM   20  C2  UNL     1      29.733  23.831  39.418  1.00  0.00     0.151 C
HETATM   21  N1  UNL     1      29.094  22.733  39.631  1.00  0.00    -0.379 N
ATOM     22  H12 UNL     1      28.545  22.356  38.859  1.00  0.00     0.158 HD
ATOM     23  H11 UNL     1      29.157  22.285  40.545  1.00  0.00     0.158 HD
BRANCH  20  24
HETATM   24  O1  UNL     1      29.648  24.432  38.193  1.00  0.00    -0.340 OA
HETATM   25  C1  UNL     1      28.495  24.420  37.374  1.00  0.00     0.211 C
ENDBRANCH  20  24
ENDBRANCH   1  20
BRANCH   5  26
HETATM   26  N3  UNL     1      32.621  25.897  43.646  1.00  0.00    -0.234 N
ATOM     27  H32 UNL     1      32.778  26.895  43.784  1.00  0.00     0.174 HD
ATOM     28  H31 UNL     1      33.001  25.261  44.346  1.00  0.00     0.174 HD
ENDBRANCH   5  26
TORSDOF 5
ENDMDL