MODEL 5
REMARK VINA RESULT: -6.447889438      2.325      5.245
REMARK  4 active torsions:
REMARK  status: ('A' for Active; 'I' for Inactive)
REMARK    1  A    between atoms: O1_2  and  C2_3
REMARK       I    between atoms: C2_3  and  N1_5
REMARK    2  A    between atoms: N1_5  and  C3_7
REMARK    3  A    between atoms: C6_14  and  N4_15
REMARK    4  A    between atoms: N4_15  and  N5_17
ROOT
HETATM    1  C3  UNL     1      29.064  25.386  44.180  1.00  0.00     0.147 C
HETATM    2  C4  UNL     1      29.802  26.037  45.188  1.00  0.00     0.151 C
HETATM    3  N2  UNL     1      29.104  26.451  46.351  1.00  0.00    -0.080 NA
HETATM    4  N3  UNL     1      31.136  26.282  45.112  1.00  0.00    -0.307 N
ATOM      5  H3  UNL     1      31.535  26.749  45.926  1.00  0.00     0.170 HD
HETATM    6  C5  UNL     1      32.027  25.998  44.113  1.00  0.00     0.292 C
HETATM    7  O3  UNL     1      33.221  26.302  44.367  1.00  0.00    -0.264 OA
HETATM    8  C6  UNL     1      31.801  25.430  42.877  1.00  0.00     0.192 C
HETATM    9  N6  UNL     1      30.614  25.190  42.279  1.00  0.00    -0.302 N
ATOM     10  H6  UNL     1      30.635  24.821  41.328  1.00  0.00     0.171 HD
HETATM   11  C7  UNL     1      29.403  25.397  42.835  1.00  0.00     0.277 C
HETATM   12  O4  UNL     1      28.427  25.640  42.044  1.00  0.00    -0.266 OA
ENDROOT
BRANCH   1  13
HETATM   13  N1  UNL     1      27.918  24.746  44.639  1.00  0.00    -0.295 N
HETATM   14  C2  UNL     1      27.760  23.484  45.230  1.00  0.00     0.365 C
HETATM   15  O2  UNL     1      28.725  22.732  45.439  1.00  0.00    -0.238 OA
ATOM     16  H1  UNL     1      27.056  25.279  44.528  1.00  0.00     0.171 HD
BRANCH  14  17
HETATM   17  O1  UNL     1      26.511  22.989  45.622  1.00  0.00    -0.309 OA
HETATM   18  C1  UNL     1      25.410  23.809  45.865  1.00  0.00     0.215 C
ENDBRANCH  14  17
ENDBRANCH   1  13
BRANCH   8  19
HETATM   19  N4  UNL     1      32.848  25.090  42.217  1.00  0.00    -0.287 N
ATOM     20  H4  UNL     1      33.728  25.001  42.724  1.00  0.00     0.188 HD
BRANCH  19  21
HETATM   21  N5  UNL     1      32.850  24.834  40.853  1.00  0.00    -0.343 N
ATOM     22  H52 UNL     1      33.314  25.517  40.253  1.00  0.00     0.176 HD
ATOM     23  H51 UNL     1      32.420  24.011  40.429  1.00  0.00     0.176 HD
ENDBRANCH  19  21
ENDBRANCH   8  19
TORSDOF 4
ENDMDL