MODEL 3
REMARK VINA RESULT: -7.407112774      1.420      5.145
REMARK  3 active torsions:
REMARK  status: ('A' for Active; 'I' for Inactive)
REMARK    1  A    between atoms: N1_2  and  C3_4
REMARK    2  A    between atoms: C4_7  and  N3_8
REMARK       I    between atoms: N3_8  and  C5_9
REMARK       I    between atoms: C5_9  and  N4_10
REMARK       I    between atoms: C5_9  and  N5_14
REMARK    3  A    between atoms: C7_21  and  N7_22
ROOT
HETATM    1  C3  UNL     1      29.819  23.988  38.153  1.00  0.00     0.683 A
HETATM    2  N2  UNL     1      31.098  23.974  37.826  1.00  0.00    -0.162 N
ATOM      3  H2  UNL     1      31.331  23.750  36.858  1.00  0.00     0.187 HD
HETATM    4  C4  UNL     1      32.138  24.234  38.679  1.00  0.00     0.222 A
HETATM    5  C6  UNL     1      31.788  24.534  39.980  1.00  0.00     0.138 A
HETATM    6  N6  UNL     1      32.698  24.813  40.930  1.00  0.00    -0.335 N
ATOM      7  H6  UNL     1      33.686  24.803  40.676  1.00  0.00     0.168 HD
HETATM    8  C7  UNL     1      32.363  25.109  42.211  1.00  0.00     0.115 A
HETATM    9  C8  UNL     1      31.055  25.133  42.587  1.00  0.00     0.137 A
HETATM   10  N8  UNL     1      30.119  24.858  41.657  1.00  0.00    -0.346 N
ATOM     11  H8  UNL     1      29.134  24.871  41.921  1.00  0.00     0.167 HD
HETATM   12  C9  UNL     1      30.461  24.561  40.369  1.00  0.00     0.153 A
HETATM   13  N9  UNL     1      29.521  24.290  39.450  1.00  0.00    -0.174 N
ATOM     14  H9  UNL     1      28.542  24.311  39.733  1.00  0.00     0.186 HD
ENDROOT
BRANCH   4  15
HETATM   15  N3  UNL     1      33.275  24.189  38.271  1.00  0.00    -0.369 NA
HETATM   16  C5  UNL     1      34.430  23.686  37.804  1.00  0.00     0.556 C
HETATM   17  N4  UNL     1      35.409  23.246  38.797  1.00  0.00    -0.021 N
HETATM   18  N5  UNL     1      35.146  24.747  37.042  1.00  0.00    -0.021 N
ATOM     19  H43 UNL     1      35.607  24.010  39.444  1.00  0.00     0.280 HD
ATOM     20  H42 UNL     1      34.975  22.573  39.429  1.00  0.00     0.280 HD
ATOM     21  H41 UNL     1      36.286  22.864  38.443  1.00  0.00     0.280 HD
ATOM     22  H53 UNL     1      34.571  25.150  36.302  1.00  0.00     0.280 HD
ATOM     23  H52 UNL     1      35.285  25.595  37.592  1.00  0.00     0.280 HD
ATOM     24  H51 UNL     1      36.023  24.365  36.688  1.00  0.00     0.280 HD
ENDBRANCH   4  15
BRANCH   1  25
HETATM   25  N1  UNL     1      28.762  23.715  37.249  1.00  0.00    -0.226 N
HETATM   26  C1  UNL     1      28.994  22.893  36.102  1.00  0.00     0.168 C
HETATM   27  C2  UNL     1      27.466  24.271  37.491  1.00  0.00     0.168 C
ENDBRANCH   1  25
BRANCH   8  28
HETATM   28  N7  UNL     1      33.314  25.373  43.068  1.00  0.00    -0.384 N
ATOM     29  H72 UNL     1      34.291  25.391  42.778  1.00  0.00     0.157 HD
ATOM     30  H71 UNL     1      33.064  25.558  44.040  1.00  0.00     0.157 HD
ENDBRANCH   8  28
TORSDOF 3
ENDMDL