MODEL 3
REMARK VINA RESULT: -6.729230239      1.010      1.275
REMARK  6 active torsions:
REMARK  status: ('A' for Active; 'I' for Inactive)
REMARK    1  A    between atoms: N2_6  and  N3_8
REMARK    2  A    between atoms: N3_8  and  C4_10
REMARK    3  A    between atoms: C4_10  and  N4_12
REMARK    4  A    between atoms: N4_12  and  N5_14
REMARK    5  A    between atoms: N6_17  and  N7_18
REMARK    6  A    between atoms: C5_21  and  N8_22
ROOT
HETATM    1  C1  UNL     1      28.219  23.210  44.988  1.00  0.00     0.073 C
HETATM    2  C2  UNL     1      29.259  23.787  44.120  1.00  0.00     0.075 A
HETATM    3  N1  UNL     1      30.043  23.086  43.265  1.00  0.00    -0.189 N
ATOM      4  H1  UNL     1      30.015  22.078  43.114  1.00  0.00     0.184 HD
HETATM    5  C3  UNL     1      30.863  23.957  42.653  1.00  0.00     0.720 A
HETATM    6  N2  UNL     1      31.764  23.703  41.768  1.00  0.00    -0.128 N
ATOM      7  H2  UNL     1      31.906  22.739  41.465  1.00  0.00     0.205 HD
HETATM    8  N6  UNL     1      30.593  25.192  43.122  1.00  0.00    -0.067 N
HETATM    9  C5  UNL     1      29.599  25.119  44.036  1.00  0.00     0.234 A
ENDROOT
BRANCH   6  10
HETATM   10  N3  UNL     1      32.550  24.714  41.214  1.00  0.00    -0.261 N
ATOM     11  H3  UNL     1      32.960  25.425  41.820  1.00  0.00     0.190 HD
BRANCH  10  12
HETATM   12  C4  UNL     1      32.786  24.763  39.813  1.00  0.00     0.205 C
HETATM   13  S1  UNL     1      31.526  24.737  38.776  1.00  0.00    -0.038 SA
BRANCH  12  14
HETATM   14  N4  UNL     1      34.099  24.836  39.300  1.00  0.00    -0.282 N
ATOM     15  H4  UNL     1      34.571  25.740  39.260  1.00  0.00     0.189 HD
BRANCH  14  16
HETATM   16  N5  UNL     1      34.764  23.698  38.847  1.00  0.00    -0.343 N
ATOM     17  H52 UNL     1      34.322  23.138  38.119  1.00  0.00     0.176 HD
ATOM     18  H51 UNL     1      35.669  23.427  39.228  1.00  0.00     0.176 HD
ENDBRANCH  14  16
ENDBRANCH  12  14
ENDBRANCH  10  12
ENDBRANCH   6  10
BRANCH   8  19
HETATM   19  N7  UNL     1      31.187  26.406  42.781  1.00  0.00    -0.322 N
ATOM     20  H72 UNL     1      30.890  26.938  41.964  1.00  0.00     0.178 HD
ATOM     21  H71 UNL     1      31.942  26.903  43.254  1.00  0.00     0.178 HD
ENDBRANCH   8  19
BRANCH   9  22
HETATM   22  N8  UNL     1      28.999  26.165  44.779  1.00  0.00    -0.093 N
HETATM   23  O1  UNL     1      29.613  26.762  45.687  1.00  0.00    -0.530 OA
HETATM   24  O2  UNL     1      27.718  26.556  44.523  1.00  0.00    -0.530 OA
ENDBRANCH   9  22
TORSDOF 6
ENDMDL