MODEL 3
REMARK VINA RESULT: -7.292957151      1.366      2.245
REMARK  6 active torsions:
REMARK  status: ('A' for Active; 'I' for Inactive)
REMARK    1  A    between atoms: N1_1  and  C1_4
REMARK    2  A    between atoms: C2_7  and  N3_8
REMARK    3  A    between atoms: N3_8  and  O1_10
REMARK    4  A    between atoms: O1_10  and  C3_11
REMARK    5  A    between atoms: C3_11  and  O2_12
REMARK    6  A    between atoms: C3_11  and  C4_14
ROOT
HETATM    1  C1  UNL     1      30.592  22.996  40.026  1.00  0.00     0.153 A
HETATM    2  N2  UNL     1      31.901  23.303  39.999  1.00  0.00    -0.172 N
ATOM      3  H2  UNL     1      32.413  23.398  40.876  1.00  0.00     0.186 HD
HETATM    4  C2  UNL     1      32.556  23.489  38.816  1.00  0.00     0.705 A
HETATM    5  N5  UNL     1      31.844  23.354  37.691  1.00  0.00    -0.166 N
ATOM      6  H5  UNL     1      32.327  23.491  36.804  1.00  0.00     0.186 HD
HETATM    7  C5  UNL     1      30.545  23.052  37.652  1.00  0.00     0.197 A
HETATM    8  C6  UNL     1      29.874  22.862  38.845  1.00  0.00     0.167 A
HETATM    9  O4  UNL     1      28.548  22.560  38.550  1.00  0.00    -0.318 OA
HETATM   10  C7  UNL     1      28.295  22.964  37.201  1.00  0.00     0.354 C
HETATM   11  O5  UNL     1      29.592  22.858  36.638  1.00  0.00    -0.307 OA
ENDROOT
BRANCH   4  12
HETATM   12  N3  UNL     1      33.792  23.776  38.879  1.00  0.00    -0.093 N
ATOM     13  H3  UNL     1      34.035  24.632  39.378  1.00  0.00     0.213 HD
BRANCH  12  14
HETATM   14  O1  UNL     1      34.819  23.069  38.357  1.00  0.00    -0.224 OA
BRANCH  14  15
HETATM   15  C3  UNL     1      35.485  23.575  37.213  1.00  0.00     0.377 C
BRANCH  15  16
HETATM   16  O2  UNL     1      35.513  22.546  36.277  1.00  0.00    -0.362 OA
ATOM     17  H2  UNL     1      36.130  22.806  35.603  1.00  0.00     0.213 HD
ENDBRANCH  15  16
BRANCH  15  18
HETATM   18  C4  UNL     1      34.810  24.749  36.643  1.00  0.00     0.288 C
HETATM   19  N4  UNL     1      33.986  24.584  35.499  1.00  0.00    -0.057 NA
HETATM   20  O3  UNL     1      34.921  25.917  37.119  1.00  0.00    -0.271 OA
ENDBRANCH  15  18
ENDBRANCH  14  15
ENDBRANCH  12  14
ENDBRANCH   4  12
BRANCH   1  21
HETATM   21  N1  UNL     1      29.934  22.811  41.130  1.00  0.00    -0.383 N
ATOM     22  H12 UNL     1      29.510  21.893  41.262  1.00  0.00     0.157 HD
ATOM     23  H11 UNL     1      29.833  23.535  41.842  1.00  0.00     0.157 HD
ENDBRANCH   1  21
TORSDOF 6
ENDMDL