MODEL 1
REMARK VINA RESULT: -6.755324403      0.000      0.000
REMARK  6 active torsions:
REMARK  status: ('A' for Active; 'I' for Inactive)
REMARK    1  A    between atoms: N1_2  and  C2_4
REMARK    2  A    between atoms: C3_7  and  O1_8
REMARK    3  A    between atoms: C4_10  and  N3_11
REMARK    4  A    between atoms: C5_14  and  N4_15
REMARK    5  A    between atoms: N4_15  and  O4_17
REMARK    6  A    between atoms: O4_17  and  C6_18
ROOT
HETATM    1  C2  UNL     1      31.809  24.409  41.787  1.00  0.00     0.681 A
HETATM    2  N2  UNL     1      30.882  23.521  42.169  1.00  0.00    -0.168 N
ATOM      3  H2  UNL     1      30.623  22.769  41.530  1.00  0.00     0.186 HD
HETATM    4  C3  UNL     1      30.284  23.595  43.368  1.00  0.00     0.192 A
HETATM    5  C4  UNL     1      30.595  24.582  44.257  1.00  0.00     0.200 A
HETATM    6  C5  UNL     1      31.557  25.492  43.846  1.00  0.00     0.178 A
HETATM    7  N7  UNL     1      32.133  25.385  42.639  1.00  0.00    -0.172 N
ATOM      8  H7  UNL     1      32.838  26.069  42.364  1.00  0.00     0.186 HD
ENDROOT
BRANCH   6   9
HETATM    9  N4  UNL     1      31.878  26.452  44.676  1.00  0.00    -0.239 N
ATOM     10  H4  UNL     1      32.443  26.271  45.505  1.00  0.00     0.196 HD
BRANCH   9  11
HETATM   11  O4  UNL     1      31.424  27.712  44.384  1.00  0.00    -0.203 OA
BRANCH  11  12
HETATM   12  C6  UNL     1      30.082  27.997  44.558  1.00  0.00     0.249 C
HETATM   13  N5  UNL     1      29.662  28.148  45.766  1.00  0.00    -0.366 N
ATOM     14  H52 UNL     1      30.262  28.068  46.587  1.00  0.00     0.159 HD
ATOM     15  H51 UNL     1      28.673  28.358  45.895  1.00  0.00     0.159 HD
HETATM   16  N6  UNL     1      29.249  28.107  43.419  1.00  0.00    -0.055 NA
ENDBRANCH  11  12
ENDBRANCH   9  11
ENDBRANCH   6   9
BRANCH   5  17
HETATM   17  N3  UNL     1      30.002  24.701  45.515  1.00  0.00    -0.107 N
HETATM   18  O2  UNL     1      30.629  24.495  46.561  1.00  0.00    -0.531 OA
HETATM   19  O3  UNL     1      28.674  25.059  45.612  1.00  0.00    -0.531 OA
ENDBRANCH   5  17
BRANCH   4  20
HETATM   20  O1  UNL     1      29.324  22.663  43.743  1.00  0.00    -0.344 OA
ATOM     21  H1  UNL     1      28.446  22.937  43.982  1.00  0.00     0.219 HD
ENDBRANCH   4  20
BRANCH   1  22
HETATM   22  N1  UNL     1      32.371  24.314  40.623  1.00  0.00    -0.230 N
HETATM   23  C1  UNL     1      32.330  25.432  39.730  1.00  0.00     0.165 C
ATOM     24  H1  UNL     1      32.837  23.450  40.345  1.00  0.00     0.177 HD
ENDBRANCH   1  22
TORSDOF 6
ENDMDL