MODEL 2
REMARK VINA RESULT: -6.596874567      3.620      5.208
REMARK  6 active torsions:
REMARK  status: ('A' for Active; 'I' for Inactive)
REMARK       I    between atoms: N1_2  and  C2_4
REMARK    1  A    between atoms: C2_4  and  C3_6
REMARK    2  A    between atoms: C3_6  and  O3_8
REMARK    3  A    between atoms: O3_8  and  C4_9
REMARK    4  A    between atoms: C5_10  and  N2_11
REMARK    5  A    between atoms: C8_16  and  N4_17
REMARK    6  A    between atoms: C9_22  and  N6_23
ROOT
HETATM    1  C4  UNL     1      -2.411   7.539  15.330  1.00  0.00     0.168 A
HETATM    2  C5  UNL     1      -1.895   6.812  14.299  1.00  0.00     0.156 A
HETATM    3  N3  UNL     1      -1.451   7.545  13.230  1.00  0.00    -0.174 N
ATOM      4  H3  UNL     1      -1.055   7.050  12.430  1.00  0.00     0.186 HD
HETATM    5  C8  UNL     1      -1.515   8.883  13.188  1.00  0.00     0.679 A
HETATM    6  N5  UNL     1      -2.032   9.570  14.229  1.00  0.00    -0.174 N
ATOM      7  H5  UNL     1      -2.074  10.589  14.187  1.00  0.00     0.186 HD
HETATM    8  C9  UNL     1      -2.488   8.940  15.310  1.00  0.00     0.152 A
ENDROOT
BRANCH   1   9
HETATM    9  O3  UNL     1      -2.891   6.858  16.466  1.00  0.00    -0.263 OA
BRANCH   9  10
HETATM   10  C3  UNL     1      -1.968   6.434  17.423  1.00  0.00     0.356 C
HETATM   11  O2  UNL     1      -1.209   7.302  17.910  1.00  0.00    -0.253 OA
BRANCH  10  12
HETATM   12  C2  UNL     1      -1.862   5.064  17.864  1.00  0.00     0.317 C
HETATM   13  N1  UNL     1      -0.682   4.617  18.505  1.00  0.00    -0.357 N
HETATM   14  C1  UNL     1      -0.499   3.262  18.972  1.00  0.00     0.149 C
ATOM     15  H1  UNL     1       0.077   5.283  18.643  1.00  0.00     0.162 HD
HETATM   16  O1  UNL     1      -2.797   4.246  17.693  1.00  0.00    -0.262 OA
ENDBRANCH  10  12
ENDBRANCH   9  10
ENDBRANCH   1   9
BRANCH   2  17
HETATM   17  N2  UNL     1      -1.791   5.419  14.304  1.00  0.00    -0.373 N
HETATM   18  C6  UNL     1      -2.821   4.445  14.165  1.00  0.00     0.150 C
HETATM   19  C7  UNL     1      -0.421   4.873  14.478  1.00  0.00     0.150 C
ENDBRANCH   2  17
BRANCH   8  20
HETATM   20  N6  UNL     1      -2.985   9.546  16.316  1.00  0.00    -0.383 N
ATOM     21  H62 UNL     1      -2.962   9.170  17.264  1.00  0.00     0.157 HD
ATOM     22  H61 UNL     1      -3.431  10.453  16.177  1.00  0.00     0.157 HD
ENDBRANCH   8  20
BRANCH   5  23
HETATM   23  N4  UNL     1      -1.093   9.550  12.181  1.00  0.00    -0.234 N
ATOM     24  H42 UNL     1      -0.626   9.039  11.431  1.00  0.00     0.174 HD
ATOM     25  H41 UNL     1      -1.215  10.560  12.113  1.00  0.00     0.174 HD
ENDBRANCH   5  23
TORSDOF 6
ENDMDL