MODEL 1
REMARK VINA RESULT: -6.914110760      0.000      0.000
REMARK  6 active torsions:
REMARK  status: ('A' for Active; 'I' for Inactive)
REMARK    1  A    between atoms: C4_5  and  N1_6
REMARK    2  A    between atoms: C5_11  and  N4_12
REMARK    3  A    between atoms: C6_15  and  C8_17
REMARK    4  A    between atoms: C8_17  and  O2_18
REMARK    5  A    between atoms: C8_17  and  C9_20
REMARK    6  A    between atoms: C9_20  and  O3_22
ROOT
HETATM    1  C1  UNL     1       1.711   5.590  11.376  1.00  0.00     0.017 C
HETATM    2  C2  UNL     1       1.010   6.445  10.908  1.00  0.00    -0.057 C
HETATM    3  C3  UNL     1       0.162   7.502  10.329  1.00  0.00     0.345 C
HETATM    4  O1  UNL     1      -1.159   7.092  10.206  1.00  0.00    -0.320 OA
HETATM    5  C4  UNL     1      -1.881   8.277  10.380  1.00  0.00     0.305 C
HETATM    6  C6  UNL     1      -1.125   8.916  11.488  1.00  0.00     0.135 C
HETATM    7  C7  UNL     1      -1.400  10.361  11.691  1.00  0.00     0.054 C
HETATM    8  O4  UNL     1       0.214   8.660  11.064  1.00  0.00    -0.332 OA
ENDROOT
BRANCH   5   9
HETATM    9  N1  UNL     1      -1.842   9.009   9.143  1.00  0.00    -0.075 N
HETATM   10  N2  UNL     1      -0.973   9.345   8.211  1.00  0.00    -0.209 N
HETATM   11  N3  UNL     1      -1.898   9.982   7.545  1.00  0.00    -0.116 N
ATOM     12  H2  UNL     1       0.022   9.175   8.068  1.00  0.00     0.209 HD
HETATM   13  C5  UNL     1      -2.806   9.657   8.478  1.00  0.00     0.712 A
ATOM     14  H3  UNL     1      -1.921  10.511   6.673  1.00  0.00     0.207 HD
BRANCH  13  15
HETATM   15  N4  UNL     1      -4.089   9.889   8.640  1.00  0.00    -0.232 N
ATOM     16  H42 UNL     1      -4.637  10.676   8.989  1.00  0.00     0.174 HD
ATOM     17  H41 UNL     1      -4.961   9.384   8.480  1.00  0.00     0.174 HD
ENDBRANCH  13  15
ENDBRANCH   5   9
BRANCH   6  18
HETATM   18  C8  UNL     1      -1.287   8.083  12.725  1.00  0.00     0.185 C
BRANCH  18  19
HETATM   19  O2  UNL     1      -0.374   8.546  13.731  1.00  0.00    -0.390 OA
ATOM     20  H2  UNL     1       0.020   7.798  14.165  1.00  0.00     0.210 HD
ENDBRANCH  18  19
BRANCH  18  21
HETATM   21  C9  UNL     1      -2.623   8.185  13.404  1.00  0.00     0.146 C
HETATM   22  C10 UNL     1      -2.305   8.720  14.814  1.00  0.00     0.042 C
BRANCH  21  23
HETATM   23  O3  UNL     1      -3.319   7.027  13.564  1.00  0.00    -0.393 OA
ATOM     24  H3  UNL     1      -3.090   6.308  12.988  1.00  0.00     0.210 HD
ENDBRANCH  21  23
ENDBRANCH  18  21
ENDBRANCH   6  18
TORSDOF 6
ENDMDL