MODEL 1
REMARK VINA RESULT: -7.104230889      0.000      0.000
REMARK  6 active torsions:
REMARK  status: ('A' for Active; 'I' for Inactive)
REMARK    1  A    between atoms: C2_2  and  O1_3
REMARK    2  A    between atoms: O1_3  and  C3_4
REMARK    3  A    between atoms: C3_4  and  N1_5
REMARK    4  A    between atoms: N3_9  and  N4_11
REMARK    5  A    between atoms: C6_17  and  N6_18
REMARK    6  A    between atoms: C8_23  and  N8_24
ROOT
HETATM    1  N1  UNL     1      -1.240   7.044  11.862  1.00  0.00    -0.261 N
HETATM    2  N2  UNL     1      -0.872   6.314  10.808  1.00  0.00    -0.278 N
ATOM      3  H2  UNL     1      -0.882   5.295  10.783  1.00  0.00     0.189 HD
HETATM    4  C4  UNL     1      -0.491   7.090   9.787  1.00  0.00     0.164 A
HETATM    5  N3  UNL     1      -0.073   6.763   8.614  1.00  0.00    -0.289 N
ATOM      6  H3  UNL     1       0.180   7.489   7.943  1.00  0.00     0.188 HD
HETATM    7  C5  UNL     1      -0.618   8.406  10.202  1.00  0.00     0.128 A
HETATM    8  N5  UNL     1      -0.371   9.560   9.565  1.00  0.00    -0.186 N
ATOM      9  H5  UNL     1      -0.025   9.568   8.606  1.00  0.00     0.184 HD
HETATM   10  C6  UNL     1      -0.595  10.708  10.236  1.00  0.00     0.679 A
HETATM   11  N7  UNL     1      -1.053  10.672  11.501  1.00  0.00    -0.175 N
ATOM     12  H7  UNL     1      -1.214  11.557  11.982  1.00  0.00     0.186 HD
HETATM   13  C8  UNL     1      -1.310   9.531  12.164  1.00  0.00     0.145 A
HETATM   14  C9  UNL     1      -1.088   8.331  11.504  1.00  0.00     0.128 A
ENDROOT
BRANCH   5  15
HETATM   15  N4  UNL     1       0.034   5.403   8.252  1.00  0.00    -0.344 N
ATOM     16  H42 UNL     1      -0.657   5.006   7.615  1.00  0.00     0.176 HD
ATOM     17  H41 UNL     1       0.791   4.832   8.625  1.00  0.00     0.176 HD
ENDBRANCH   5  15
BRANCH   1  18
HETATM   18  C3  UNL     1      -1.702   6.525  13.147  1.00  0.00     0.317 C
BRANCH  18  19
HETATM   19  O1  UNL     1      -3.035   6.853  13.259  1.00  0.00    -0.371 OA
BRANCH  19  20
HETATM   20  C2  UNL     1      -3.540   6.701  14.533  1.00  0.00     0.165 C
HETATM   21  C1  UNL     1      -4.639   5.688  14.640  1.00  0.00     0.033 C
ENDBRANCH  19  20
ENDBRANCH  18  19
ENDBRANCH   1  18
BRANCH  10  22
HETATM   22  N6  UNL     1      -0.380  11.857   9.688  1.00  0.00    -0.230 N
HETATM   23  C7  UNL     1      -0.496  11.991   8.244  1.00  0.00     0.165 C
ATOM     24  H6  UNL     1      -0.131  12.663  10.262  1.00  0.00     0.177 HD
ENDBRANCH  10  22
BRANCH  13  25
HETATM   25  N8  UNL     1      -1.749   9.509  13.367  1.00  0.00    -0.383 N
ATOM     26  H82 UNL     1      -1.944  10.391  13.842  1.00  0.00     0.157 HD
ATOM     27  H81 UNL     1      -1.914   8.644  13.882  1.00  0.00     0.157 HD
ENDBRANCH  13  25
TORSDOF 6
ENDMDL