MODEL 2
REMARK VINA RESULT: -7.337208420      0.998      1.002
REMARK  6 active torsions:
REMARK  status: ('A' for Active; 'I' for Inactive)
REMARK    1  A    between atoms: C3_5  and  N2_6
REMARK    2  A    between atoms: C4_9  and  N3_10
REMARK    3  A    between atoms: N3_10  and  C5_12
REMARK    4  A    between atoms: C5_12  and  C6_13
REMARK    5  A    between atoms: C6_13  and  N4_14
REMARK    6  A    between atoms: C7_20  and  C8_21
ROOT
HETATM    1  C1  UNL     1       0.203   7.742   9.147  1.00  0.00     0.070 C
HETATM    2  C2  UNL     1      -0.229   8.120  10.517  1.00  0.00     0.036 A
HETATM    3  N1  UNL     1      -0.063   7.164  11.497  1.00  0.00    -0.342 N
ATOM      4  H1  UNL     1       0.329   6.261  11.231  1.00  0.00     0.167 HD
HETATM    5  C3  UNL     1      -0.391   7.360  12.782  1.00  0.00     0.144 A
HETATM    6  C4  UNL     1      -0.921   8.562  13.171  1.00  0.00     0.146 A
HETATM    7  N5  UNL     1      -1.081   9.483  12.234  1.00  0.00    -0.336 N
ATOM      8  H5  UNL     1      -1.474  10.381  12.516  1.00  0.00     0.168 HD
HETATM    9  C7  UNL     1      -0.753   9.315  10.891  1.00  0.00     0.091 A
ENDROOT
BRANCH   6  10
HETATM   10  N3  UNL     1      -1.255   8.808  14.394  1.00  0.00    -0.372 N
ATOM     11  H3  UNL     1      -0.503   9.055  15.036  1.00  0.00     0.161 HD
BRANCH  10  12
HETATM   12  C5  UNL     1      -2.570   8.768  14.932  1.00  0.00     0.148 C
BRANCH  12  13
HETATM   13  C6  UNL     1      -2.550   7.840  16.154  1.00  0.00     0.249 C
BRANCH  13  14
HETATM   14  N4  UNL     1      -3.941   7.538  16.501  1.00  0.00    -0.078 N
ATOM     15  H43 UNL     1      -4.442   7.059  15.753  1.00  0.00     0.274 HD
ATOM     16  H42 UNL     1      -4.025   6.808  17.208  1.00  0.00     0.274 HD
ATOM     17  H41 UNL     1      -4.385   8.414  16.779  1.00  0.00     0.274 HD
ENDBRANCH  13  14
ENDBRANCH  12  13
ENDBRANCH  10  12
ENDBRANCH   6  10
BRANCH   5  18
HETATM   18  N2  UNL     1      -0.228   6.451  13.686  1.00  0.00    -0.382 N
ATOM     19  H22 UNL     1      -0.413   5.481  13.427  1.00  0.00     0.157 HD
ATOM     20  H21 UNL     1       0.075   6.670  14.636  1.00  0.00     0.157 HD
ENDBRANCH   5  18
BRANCH   9  21
HETATM   21  C8  UNL     1      -1.002  10.437  10.027  1.00  0.00     0.154 A
HETATM   22  N6  UNL     1      -2.265  10.605   9.458  1.00  0.00    -0.234 N
HETATM   23  O1  UNL     1      -2.280  11.645   8.718  1.00  0.00    -0.153 OA
ATOM     24  H6  UNL     1      -3.062   9.986   9.612  1.00  0.00     0.197 HD
HETATM   25  N7  UNL     1      -1.141  12.217   8.720  1.00  0.00    -0.204 N
HETATM   26  C9  UNL     1      -0.307  11.466   9.547  1.00  0.00     0.297 A
ATOM     27  H7  UNL     1      -0.886  13.064   8.212  1.00  0.00     0.200 HD
HETATM   28  O2  UNL     1       0.849  11.869   9.674  1.00  0.00    -0.264 OA
ENDBRANCH   9  21
TORSDOF 6
ENDMDL