MODEL 5
REMARK VINA RESULT: -7.547864066      2.449      6.285
REMARK  7 active torsions:
REMARK  status: ('A' for Active; 'I' for Inactive)
REMARK    1  A    between atoms: C2_2  and  N1_3
REMARK    2  A    between atoms: C2_2  and  C4_7
REMARK    3  A    between atoms: N1_3  and  C3_5
REMARK    4  A    between atoms: C4_7  and  O2_8
REMARK    5  A    between atoms: C4_7  and  N2_10
REMARK    6  A    between atoms: N2_10  and  C5_12
REMARK    7  A    between atoms: C9_22  and  N6_23
ROOT
HETATM    1  C5  UNL     1      -0.843   8.467  12.022  1.00  0.00     0.119 A
HETATM    2  C6  UNL     1      -0.897   7.099  11.995  1.00  0.00     0.138 A
HETATM    3  N3  UNL     1      -1.451   6.403  13.031  1.00  0.00    -0.347 N
ATOM      4  H3  UNL     1      -1.484   5.385  12.995  1.00  0.00     0.167 HD
HETATM    5  C7  UNL     1      -1.956   7.052  14.100  1.00  0.00     0.137 A
HETATM    6  N4  UNL     1      -2.508   6.386  15.136  1.00  0.00    -0.337 N
ATOM      7  H4  UNL     1      -2.536   5.367  15.092  1.00  0.00     0.168 HD
HETATM    8  C8  UNL     1      -3.019   6.983  16.214  1.00  0.00     0.183 A
HETATM    9  N5  UNL     1      -2.974   8.321  16.256  1.00  0.00    -0.337 N
ATOM     10  H5  UNL     1      -3.359   8.798  17.071  1.00  0.00     0.168 HD
HETATM   11  C9  UNL     1      -2.432   9.077  15.249  1.00  0.00     0.131 A
HETATM   12  C10 UNL     1      -1.912   8.433  14.150  1.00  0.00     0.122 A
HETATM   13  N7  UNL     1      -1.357   9.091  13.109  1.00  0.00    -0.335 N
ATOM     14  H7  UNL     1      -1.324  10.110  13.144  1.00  0.00     0.168 HD
ENDROOT
BRANCH   1  15
HETATM   15  N2  UNL     1      -0.321   9.115  11.046  1.00  0.00    -0.347 N
ATOM     16  H2  UNL     1       0.589   8.809  10.701  1.00  0.00     0.163 HD
BRANCH  15  17
HETATM   17  C4  UNL     1      -0.939  10.245  10.409  1.00  0.00     0.241 C
BRANCH  17  18
HETATM   18  C2  UNL     1      -0.685  10.282   8.922  1.00  0.00     0.128 C
HETATM   19  C1  UNL     1      -0.564  11.666   8.381  1.00  0.00     0.036 C
BRANCH  18  20
HETATM   20  N1  UNL     1      -1.702   9.557   8.221  1.00  0.00    -0.360 N
ATOM     21  H1  UNL     1      -1.479   9.133   7.321  1.00  0.00     0.162 HD
BRANCH  20  22
HETATM   22  C3  UNL     1      -3.017   9.414   8.749  1.00  0.00     0.348 C
HETATM   23  O1  UNL     1      -3.930  10.225   8.440  1.00  0.00    -0.284 OA
ENDBRANCH  20  22
ENDBRANCH  18  20
ENDBRANCH  17  18
BRANCH  17  24
HETATM   24  O2  UNL     1      -0.482  11.429  10.984  1.00  0.00    -0.375 OA
ATOM     25  H2  UNL     1      -1.125  11.744  11.608  1.00  0.00     0.212 HD
ENDBRANCH  17  24
ENDBRANCH  15  17
ENDBRANCH   1  15
BRANCH  11  26
HETATM   26  N6  UNL     1      -2.416  10.342  15.340  1.00  0.00    -0.383 N
ATOM     27  H62 UNL     1      -3.281  10.884  15.336  1.00  0.00     0.157 HD
ATOM     28  H61 UNL     1      -1.529  10.837  15.421  1.00  0.00     0.157 HD
ENDBRANCH  11  26
TORSDOF 7
ENDMDL