MODEL 1
REMARK VINA RESULT: -6.308613734      0.000      0.000
REMARK  6 active torsions:
REMARK  status: ('A' for Active; 'I' for Inactive)
REMARK    1  A    between atoms: C2_3  and  C3_4
REMARK    2  A    between atoms: C3_4  and  S1_5
REMARK    3  A    between atoms: S1_5  and  N2_6
REMARK    4  A    between atoms: C4_11  and  N3_12
REMARK    5  A    between atoms: C5_15  and  N4_16
REMARK    6  A    between atoms: C6_21  and  N6_22
ROOT
HETATM    1  C1  UNL     1       0.348   5.086  16.088  1.00  0.00     0.175 C
HETATM    2  N1  UNL     1      -0.377   6.133  15.353  1.00  0.00    -0.188 N
HETATM    3  C2  UNL     1      -1.363   6.821  15.965  1.00  0.00     0.081 A
HETATM    4  C4  UNL     1      -1.883   7.897  15.262  1.00  0.00     0.171 A
HETATM    5  C5  UNL     1      -1.421   8.233  13.994  1.00  0.00     0.150 A
HETATM    6  N5  UNL     1      -0.444   7.520  13.421  1.00  0.00    -0.175 N
ATOM      7  H5  UNL     1      -0.100   7.766  12.493  1.00  0.00     0.186 HD
HETATM    8  C6  UNL     1       0.078   6.472  14.087  1.00  0.00     0.679 A
ENDROOT
BRANCH   3   9
HETATM    9  C3  UNL     1      -1.796   6.612  17.345  1.00  0.00     0.223 C
BRANCH   9  10
HETATM   10  S1  UNL     1      -2.984   5.418  17.705  1.00  0.00     0.229 S
HETATM   11  O1  UNL     1      -3.106   4.542  16.349  1.00  0.00    -0.206 OA
HETATM   12  O2  UNL     1      -2.872   4.441  18.760  1.00  0.00    -0.206 OA
BRANCH  10  13
HETATM   13  N2  UNL     1      -4.614   6.075  17.675  1.00  0.00    -0.328 N
ATOM     14  H22 UNL     1      -4.861   6.927  17.172  1.00  0.00     0.168 HD
ATOM     15  H21 UNL     1      -5.267   5.508  18.214  1.00  0.00     0.168 HD
ENDBRANCH  10  13
ENDBRANCH   9  10
ENDBRANCH   3   9
BRANCH   4  16
HETATM   16  N3  UNL     1      -2.966   8.665  15.751  1.00  0.00    -0.110 N
HETATM   17  O3  UNL     1      -4.119   8.239  15.755  1.00  0.00    -0.532 OA
HETATM   18  O4  UNL     1      -2.732   9.931  16.210  1.00  0.00    -0.532 OA
ENDBRANCH   4  16
BRANCH   8  19
HETATM   19  N6  UNL     1       1.005   5.786  13.559  1.00  0.00    -0.234 N
ATOM     20  H62 UNL     1       0.793   4.877  13.147  1.00  0.00     0.174 HD
ATOM     21  H61 UNL     1       1.955   6.157  13.548  1.00  0.00     0.174 HD
ENDBRANCH   8  19
BRANCH   5  22
HETATM   22  N4  UNL     1      -1.938   9.245  13.332  1.00  0.00    -0.383 N
ATOM     23  H42 UNL     1      -2.739   9.735  13.730  1.00  0.00     0.157 HD
ATOM     24  H41 UNL     1      -1.545   9.545  12.440  1.00  0.00     0.157 HD
ENDBRANCH   5  22
TORSDOF 6
ENDMDL