MODEL 4
REMARK VINA RESULT: -7.527309050      1.754      1.964
REMARK  3 active torsions:
REMARK  status: ('A' for Active; 'I' for Inactive)
REMARK    1  A    between atoms: C2_2  and  N1_3
REMARK    2  A    between atoms: C3_6  and  C4_7
REMARK    3  A    between atoms: C5_12  and  N5_13
ROOT
HETATM    1  N1  UNL     1      -2.675   7.159  13.649  1.00  0.00    -0.242 N
HETATM    2  N2  UNL     1      -2.419   8.199  12.887  1.00  0.00    -0.289 N
ATOM      3  H2  UNL     1      -2.873   9.085  13.107  1.00  0.00     0.187 HD
HETATM    4  C3  UNL     1      -1.605   8.152  11.852  1.00  0.00     0.126 A
HETATM    5  C7  UNL     1      -0.952   6.956  11.504  1.00  0.00     0.134 A
HETATM    6  N7  UNL     1      -0.200   6.898  10.555  1.00  0.00    -0.383 N
ATOM      7  H71 UNL     1       0.274   6.030  10.302  1.00  0.00     0.157 HD
ATOM      8  H72 UNL     1       0.005   7.700   9.959  1.00  0.00     0.157 HD
HETATM    9  N8  UNL     1      -1.227   5.876  12.308  1.00  0.00    -0.292 N
ATOM     10  H8  UNL     1      -0.792   4.973  12.117  1.00  0.00     0.172 HD
HETATM   11  C8  UNL     1      -2.062   6.010  13.332  1.00  0.00     0.342 A
HETATM   12  O2  UNL     1      -2.298   4.988  14.062  1.00  0.00    -0.245 OA
ENDROOT
BRANCH   4  13
HETATM   13  C4  UNL     1      -1.332   9.336  11.008  1.00  0.00     0.149 A
HETATM   14  N3  UNL     1      -0.186  10.024  11.083  1.00  0.00    -0.279 N
HETATM   15  N4  UNL     1       0.032  11.087  10.309  1.00  0.00    -0.132 N
ATOM     16  H3  UNL     1       0.533   9.730  11.743  1.00  0.00     0.188 HD
HETATM   17  C5  UNL     1      -0.865  11.537   9.414  1.00  0.00     0.693 A
ATOM     18  H4  UNL     1       0.919  11.582  10.400  1.00  0.00     0.205 HD
HETATM   19  N6  UNL     1      -2.028  10.868   9.313  1.00  0.00    -0.153 N
HETATM   20  C6  UNL     1      -2.268   9.777  10.097  1.00  0.00     0.290 A
ATOM     21  H6  UNL     1      -2.734  11.178   8.645  1.00  0.00     0.187 HD
HETATM   22  O1  UNL     1      -3.349   9.156  10.003  1.00  0.00    -0.265 OA
BRANCH  17  23
HETATM   23  N5  UNL     1      -0.622  12.578   8.672  1.00  0.00    -0.233 N
ATOM     24  H52 UNL     1       0.280  13.053   8.710  1.00  0.00     0.174 HD
ATOM     25  H51 UNL     1      -1.322  12.951   8.032  1.00  0.00     0.174 HD
ENDBRANCH  17  23
ENDBRANCH   4  13
BRANCH   1  26
HETATM   26  C2  UNL     1      -3.579   7.296  14.762  1.00  0.00     0.149 C
HETATM   27  C1  UNL     1      -3.019   8.246  15.823  1.00  0.00     0.028 C
ENDBRANCH   1  26
TORSDOF 3
ENDMDL