MODEL 3
REMARK VINA RESULT: -6.926661636      0.684      1.178
REMARK  7 active torsions:
REMARK  status: ('A' for Active; 'I' for Inactive)
REMARK    1  A    between atoms: O1_2  and  C2_3
REMARK    2  A    between atoms: C2_3  and  O2_4
REMARK    3  A    between atoms: C2_3  and  C3_6
REMARK    4  A    between atoms: C3_6  and  N1_7
REMARK    5  A    between atoms: N1_7  and  C4_9
REMARK    6  A    between atoms: C7_16  and  N4_17
REMARK    7  A    between atoms: C8_22  and  N6_23
ROOT
HETATM    1  C4  UNL     1      -0.801   6.684   9.926  1.00  0.00     0.132 A
HETATM    2  N2  UNL     1       0.169   6.435  10.821  1.00  0.00    -0.337 N
ATOM      3  H2  UNL     1       0.572   5.500  10.878  1.00  0.00     0.168 HD
HETATM    4  C5  UNL     1       0.623   7.412  11.656  1.00  0.00     0.182 A
HETATM    5  N3  UNL     1       0.097   8.646  11.586  1.00  0.00    -0.347 N
ATOM      6  H3  UNL     1       0.443   9.372  12.213  1.00  0.00     0.167 HD
HETATM    7  C6  UNL     1      -0.886   8.947  10.696  1.00  0.00     0.109 A
HETATM    8  C7  UNL     1      -1.415  10.204  10.632  1.00  0.00     0.144 A
HETATM    9  N5  UNL     1      -2.397  10.453   9.723  1.00  0.00    -0.175 N
ATOM     10  H5  UNL     1      -2.799  11.388   9.667  1.00  0.00     0.186 HD
HETATM   11  C8  UNL     1      -2.849   9.493   8.898  1.00  0.00     0.678 A
HETATM   12  N7  UNL     1      -2.321   8.257   8.970  1.00  0.00    -0.186 N
ATOM     13  H7  UNL     1      -2.664   7.529   8.344  1.00  0.00     0.184 HD
HETATM   14  C9  UNL     1      -1.354   7.966   9.846  1.00  0.00     0.123 A
ENDROOT
BRANCH   1  15
HETATM   15  N1  UNL     1      -1.287   5.829   9.106  1.00  0.00    -0.370 N
ATOM     16  H1  UNL     1      -1.946   6.147   8.396  1.00  0.00     0.161 HD
BRANCH  15  17
HETATM   17  C3  UNL     1      -0.932   4.429   9.153  1.00  0.00     0.181 C
BRANCH  17  18
HETATM   18  C2  UNL     1       0.389   4.172   8.413  1.00  0.00     0.273 C
BRANCH  18  19
HETATM   19  O1  UNL     1       0.207   3.094   7.555  1.00  0.00    -0.365 OA
HETATM   20  C1  UNL     1       0.647   3.370   6.258  1.00  0.00     0.204 C
ENDBRANCH  18  19
BRANCH  18  21
HETATM   21  O2  UNL     1       1.392   3.882   9.330  1.00  0.00    -0.370 OA
ATOM     22  H2  UNL     1       1.977   4.625   9.416  1.00  0.00     0.212 HD
ENDBRANCH  18  21
ENDBRANCH  17  18
ENDBRANCH  15  17
ENDBRANCH   1  15
BRANCH   8  23
HETATM   23  N4  UNL     1      -0.974  11.106  11.423  1.00  0.00    -0.383 N
ATOM     24  H42 UNL     1      -0.392  11.877  11.097  1.00  0.00     0.157 HD
ATOM     25  H41 UNL     1      -1.209  11.057  12.414  1.00  0.00     0.157 HD
ENDBRANCH   8  23
BRANCH  11  26
HETATM   26  N6  UNL     1      -3.798   9.761   8.031  1.00  0.00    -0.234 N
ATOM     27  H62 UNL     1      -3.961  10.720   7.722  1.00  0.00     0.174 HD
ATOM     28  H61 UNL     1      -4.379   9.010   7.658  1.00  0.00     0.174 HD
ENDBRANCH  11  26
TORSDOF 7
ENDMDL