MODEL 5
REMARK VINA RESULT: -8.034800628      1.495      2.053
REMARK  4 active torsions:
REMARK  status: ('A' for Active; 'I' for Inactive)
REMARK    1  A    between atoms: N1_1  and  C1_4
REMARK    2  A    between atoms: C3_8  and  C4_9
REMARK    3  A    between atoms: N3_10  and  N4_12
REMARK    4  A    between atoms: N4_12  and  C5_14
ROOT
HETATM    1  C4  UNL     1      -1.514   8.754  13.229  1.00  0.00     0.126 C
HETATM    2  N3  UNL     1      -1.782   9.936  12.785  1.00  0.00    -0.297 N
ATOM      3  H3  UNL     1      -2.565  10.450  13.189  1.00  0.00     0.186 HD
ENDROOT
BRANCH   2   4
HETATM    4  N4  UNL     1      -1.036  10.530  11.771  1.00  0.00    -0.132 N
ATOM      5  H4  UNL     1      -0.288  11.193  11.976  1.00  0.00     0.205 HD
BRANCH   4   6
HETATM    6  C5  UNL     1      -1.338  10.196  10.539  1.00  0.00     0.701 A
HETATM    7  N5  UNL     1      -0.386   9.680   9.748  1.00  0.00    -0.186 N
HETATM    8  C6  UNL     1      -0.695   9.341   8.495  1.00  0.00     0.202 A
ATOM      9  H5  UNL     1       0.562   9.548  10.099  1.00  0.00     0.185 HD
HETATM   10  N6  UNL     1      -1.956   9.515   8.023  1.00  0.00    -0.304 N
HETATM   11  C7  UNL     1      -2.906  10.033   8.819  1.00  0.00     0.339 A
ATOM     12  H6  UNL     1      -2.182   9.253   7.063  1.00  0.00     0.171 HD
HETATM   13  O1  UNL     1      -4.076  10.186   8.360  1.00  0.00    -0.246 OA
HETATM   14  N7  UNL     1      -2.577  10.366  10.073  1.00  0.00    -0.140 N
ATOM     15  H7  UNL     1      -3.290  10.760  10.687  1.00  0.00     0.189 HD
ENDBRANCH   4   6
ENDBRANCH   2   4
BRANCH   1  16
HETATM   16  C3  UNL     1      -2.319   8.170  14.289  1.00  0.00     0.065 A
HETATM   17  C2  UNL     1      -2.752   8.934  15.347  1.00  0.00     0.124 A
HETATM   18  N2  UNL     1      -3.507   8.350  16.324  1.00  0.00    -0.201 N
HETATM   19  C1  UNL     1      -3.827   7.047  16.263  1.00  0.00     0.678 A
ATOM     20  H2  UNL     1      -3.833   8.912  17.110  1.00  0.00     0.183 HD
HETATM   21  N8  UNL     1      -3.410   6.299  15.241  1.00  0.00    -0.156 N
HETATM   22  C8  UNL     1      -2.654   6.835  14.238  1.00  0.00     0.272 A
ATOM     23  H8  UNL     1      -3.660   5.311  15.207  1.00  0.00     0.187 HD
HETATM   24  O2  UNL     1      -2.276   6.097  13.282  1.00  0.00    -0.267 OA
BRANCH  19  25
HETATM   25  N1  UNL     1      -4.550   6.476  17.195  1.00  0.00    -0.234 N
ATOM     26  H12 UNL     1      -4.971   7.069  17.911  1.00  0.00     0.174 HD
ATOM     27  H11 UNL     1      -4.696   5.466  17.213  1.00  0.00     0.174 HD
ENDBRANCH  19  25
ENDBRANCH   1  16
TORSDOF 4
ENDMDL