MODEL 2
REMARK VINA RESULT: -7.141693431      1.421      1.662
REMARK  4 active torsions:
REMARK  status: ('A' for Active; 'I' for Inactive)
REMARK    1  A    between atoms: C2_2  and  N1_3
REMARK    2  A    between atoms: C2_2  and  C3_7
REMARK    3  A    between atoms: C3_7  and  N2_8
REMARK    4  A    between atoms: N2_8  and  C4_10
ROOT
HETATM    1  C4  UNL     1      -0.847   7.465  14.180  1.00  0.00     0.083 A
HETATM    2  C5  UNL     1      -0.437   6.126  14.130  1.00  0.00     0.146 A
HETATM    3  C6  UNL     1       0.605   5.785  13.192  1.00  0.00     0.120 C
HETATM    4  N3  UNL     1       1.456   5.505  12.453  1.00  0.00    -0.190 NA
HETATM    5  N4  UNL     1      -1.003   5.205  14.931  1.00  0.00    -0.306 N
HETATM    6  C7  UNL     1      -0.549   3.831  14.846  1.00  0.00     0.160 C
HETATM    7  C8  UNL     1      -1.969   5.484  15.809  1.00  0.00     0.277 A
HETATM    8  O1  UNL     1      -2.484   4.595  16.551  1.00  0.00    -0.265 OA
HETATM    9  C9  UNL     1      -2.398   6.802  15.884  1.00  0.00     0.133 A
HETATM   10  N5  UNL     1      -3.335   7.366  16.666  1.00  0.00    -0.293 N
ATOM     11  H5  UNL     1      -3.910   6.888  17.360  1.00  0.00     0.187 HD
HETATM   12  N6  UNL     1      -3.371   8.638  16.372  1.00  0.00    -0.284 N
ATOM     13  H6  UNL     1      -3.997   9.308  16.818  1.00  0.00     0.188 HD
HETATM   14  C10 UNL     1      -2.479   8.964  15.403  1.00  0.00     0.128 A
HETATM   15  N7  UNL     1      -2.293  10.140  14.928  1.00  0.00    -0.384 N
ATOM     16  H71 UNL     1      -1.622  10.385  14.199  1.00  0.00     0.157 HD
ATOM     17  H72 UNL     1      -2.769  11.007  15.176  1.00  0.00     0.157 HD
HETATM   18  C11 UNL     1      -1.838   7.797  15.069  1.00  0.00     0.072 A
ENDROOT
BRANCH   1  19
HETATM   19  N2  UNL     1      -0.231   8.400  13.322  1.00  0.00    -0.385 N
ATOM     20  H2  UNL     1       0.477   9.028  13.702  1.00  0.00     0.159 HD
BRANCH  19  21
HETATM   21  C3  UNL     1      -0.574   8.494  11.914  1.00  0.00     0.152 C
BRANCH  21  22
HETATM   22  C2  UNL     1      -1.654   9.496  11.689  1.00  0.00     0.197 C
HETATM   23  C1  UNL     1      -2.622   9.096  10.626  1.00  0.00     0.041 C
BRANCH  22  24
HETATM   24  N1  UNL     1      -1.114  10.814  11.423  1.00  0.00    -0.074 N
ATOM     25  H13 UNL     1      -1.575  11.531  11.984  1.00  0.00     0.274 HD
ATOM     26  H12 UNL     1      -0.168  10.916  11.791  1.00  0.00     0.274 HD
ATOM     27  H11 UNL     1      -1.158  11.027  10.427  1.00  0.00     0.274 HD
ENDBRANCH  22  24
ENDBRANCH  21  22
ENDBRANCH  19  21
ENDBRANCH   1  19
TORSDOF 4
ENDMDL