MODEL 5
REMARK VINA RESULT: -5.365745636      1.781      2.599
REMARK  1 active torsions:
REMARK  status: ('A' for Active; 'I' for Inactive)
REMARK       I    between atoms: C1_4  and  N3_6
REMARK    1  A    between atoms: C2_7  and  N4_8
ROOT
HETATM    1  N1  UNL     1      -0.126   8.309  11.187  1.00  0.00    -0.373 N
ATOM      2  H11 UNL     1      -0.763   8.773  11.834  1.00  0.00     0.158 HD
ATOM      3  H12 UNL     1       0.402   7.500  11.512  1.00  0.00     0.158 HD
HETATM    4  C1  UNL     1      -0.016   8.758   9.999  1.00  0.00     0.213 C
HETATM    5  N2  UNL     1       0.866   8.116   9.105  1.00  0.00    -0.062 NA
HETATM    6  N3  UNL     1      -0.747   9.877   9.549  1.00  0.00    -0.065 N
HETATM    7  C2  UNL     1      -2.082  10.087   9.590  1.00  0.00     0.703 A
HETATM    8  N5  UNL     1      -2.409  11.280   9.063  1.00  0.00    -0.128 N
ATOM      9  H5  UNL     1      -3.347  11.672   8.976  1.00  0.00     0.205 HD
HETATM   10  N6  UNL     1      -1.282  11.839   8.683  1.00  0.00    -0.236 N
ATOM     11  H6  UNL     1      -1.197  12.756   8.244  1.00  0.00     0.192 HD
HETATM   12  C3  UNL     1      -0.262  11.014   8.964  1.00  0.00     0.362 A
HETATM   13  O1  UNL     1       0.966  11.219   8.740  1.00  0.00    -0.244 OA
ENDROOT
BRANCH   7  14
HETATM   14  N4  UNL     1      -2.945   9.237  10.079  1.00  0.00    -0.233 N
ATOM     15  H42 UNL     1      -2.932   8.893  11.039  1.00  0.00     0.174 HD
ATOM     16  H41 UNL     1      -3.716   8.834   9.548  1.00  0.00     0.174 HD
ENDBRANCH   7  14
TORSDOF 1
ENDMDL