MODEL 3
REMARK VINA RESULT: -5.389801592      2.789      3.124
REMARK  3 active torsions:
REMARK  status: ('A' for Active; 'I' for Inactive)
REMARK       I    between atoms: C1_4  and  N2_5
REMARK       I    between atoms: C1_4  and  N4_10
REMARK    1  A    between atoms: N2_5  and  N3_7
REMARK       I    between atoms: N4_10  and  C2_12
REMARK    2  A    between atoms: C2_12  and  C3_14
REMARK    3  A    between atoms: N5_15  and  O2_17
ROOT
HETATM    1  N1  UNL     1       0.133  12.098   9.658  1.00  0.00    -0.233 N
ATOM      2  H11 UNL     1       0.827  12.202  10.399  1.00  0.00     0.174 HD
ATOM      3  H12 UNL     1       0.118  12.723   8.853  1.00  0.00     0.174 HD
HETATM    4  C1  UNL     1      -0.726  11.157   9.759  1.00  0.00     0.692 C
HETATM    5  N2  UNL     1      -1.686  11.012   8.732  1.00  0.00    -0.139 N
ATOM      6  H2  UNL     1      -2.678  11.107   8.947  1.00  0.00     0.205 HD
HETATM    7  N4  UNL     1      -0.706  10.295  10.868  1.00  0.00    -0.154 N
ATOM      8  H4  UNL     1       0.005  10.437  11.586  1.00  0.00     0.187 HD
HETATM    9  C2  UNL     1      -1.638   9.233  11.030  1.00  0.00     0.276 C
HETATM   10  O1  UNL     1      -2.535   9.013  10.177  1.00  0.00    -0.266 OA
ENDROOT
BRANCH   5  11
HETATM   11  N3  UNL     1      -1.277  10.736   7.412  1.00  0.00    -0.331 N
ATOM     12  H32 UNL     1      -1.011   9.783   7.168  1.00  0.00     0.177 HD
ATOM     13  H31 UNL     1      -1.248  11.483   6.717  1.00  0.00     0.177 HD
ENDBRANCH   5  11
BRANCH   9  14
HETATM   14  C3  UNL     1      -1.588   8.360  12.194  1.00  0.00     0.188 C
HETATM   15  N5  UNL     1      -0.777   8.544  13.160  1.00  0.00    -0.275 N
ATOM     16  H5  UNL     1      -0.128   9.331  13.135  1.00  0.00     0.193 HD
BRANCH  15  17
HETATM   17  O2  UNL     1      -0.774   7.697  14.224  1.00  0.00    -0.290 OA
ATOM     18  H2  UNL     1      -0.009   7.164  14.410  1.00  0.00     0.244 HD
ENDBRANCH  15  17
ENDBRANCH   9  14
TORSDOF 3
ENDMDL