MODEL 3
REMARK VINA RESULT: -6.120308575      1.057      3.825
REMARK  2 active torsions:
REMARK  status: ('A' for Active; 'I' for Inactive)
REMARK    1  A    between atoms: C3_9  and  N3_10
REMARK    2  A    between atoms: N3_10  and  O3_12
ROOT
HETATM    1  O1  UNL     1       0.840  12.261   9.924  1.00  0.00    -0.246 OA
HETATM    2  C1  UNL     1       0.098  11.311   9.588  1.00  0.00     0.342 A
HETATM    3  N1  UNL     1      -1.204  11.541   9.275  1.00  0.00    -0.260 N
ATOM      4  H1  UNL     1      -1.581  12.489   9.312  1.00  0.00     0.175 HD
HETATM    5  C2  UNL     1      -1.990  10.515   8.916  1.00  0.00     0.342 A
HETATM    6  O2  UNL     1      -3.191  10.789   8.636  1.00  0.00    -0.246 OA
HETATM    7  N2  UNL     1      -1.523   9.263   8.857  1.00  0.00    -0.139 N
ATOM      8  H2  UNL     1      -2.139   8.499   8.580  1.00  0.00     0.189 HD
HETATM    9  C3  UNL     1      -0.254   9.021   9.159  1.00  0.00     0.710 A
HETATM   10  N4  UNL     1       0.525  10.040   9.516  1.00  0.00    -0.139 N
ATOM     11  H4  UNL     1       1.500   9.845   9.747  1.00  0.00     0.189 HD
ENDROOT
BRANCH   9  12
HETATM   12  N3  UNL     1       0.156   7.799   9.089  1.00  0.00    -0.098 N
ATOM     13  H3  UNL     1       1.131   7.623   8.846  1.00  0.00     0.213 HD
BRANCH  12  14
HETATM   14  O3  UNL     1      -0.666   6.729   9.327  1.00  0.00    -0.276 OA
ATOM     15  H3  UNL     1      -1.614   6.795   9.301  1.00  0.00     0.245 HD
ENDBRANCH  12  14
ENDBRANCH   9  12
TORSDOF 2
ENDMDL