MODEL 1
REMARK VINA RESULT: -5.818634738      0.000      0.000
REMARK  1 active torsions:
REMARK  status: ('A' for Active; 'I' for Inactive)
REMARK       I    between atoms: C1_4  and  N3_6
REMARK    1  A    between atoms: C3_12  and  N6_13
ROOT
HETATM    1  N1  UNL     1       0.576  12.147  10.406  1.00  0.00    -0.372 N
ATOM      2  H11 UNL     1       0.165  11.867  11.297  1.00  0.00     0.158 HD
ATOM      3  H12 UNL     1       1.183  12.965  10.348  1.00  0.00     0.158 HD
HETATM    4  C1  UNL     1       0.318  11.456   9.357  1.00  0.00     0.207 C
HETATM    5  N2  UNL     1       0.888  11.845   8.121  1.00  0.00    -0.062 NA
HETATM    6  N3  UNL     1      -0.524  10.321   9.438  1.00  0.00    -0.190 N
HETATM    7  N4  UNL     1      -0.109   9.093   9.754  1.00  0.00    -0.008 NA
HETATM    8  N5  UNL     1      -1.134   8.256   9.745  1.00  0.00    -0.246 N
ATOM      9  H5  UNL     1      -1.104   7.257   9.950  1.00  0.00     0.187 HD
HETATM   10  C2  UNL     1      -2.224   8.973   9.413  1.00  0.00     0.303 A
HETATM   11  O1  UNL     1      -3.410   8.536   9.296  1.00  0.00    -0.263 OA
HETATM   12  C3  UNL     1      -1.855  10.285   9.215  1.00  0.00     0.192 A
ENDROOT
BRANCH  12  13
HETATM   13  N6  UNL     1      -2.640  11.252   8.887  1.00  0.00    -0.380 N
ATOM     14  H62 UNL     1      -2.577  11.817   8.039  1.00  0.00     0.158 HD
ATOM     15  H61 UNL     1      -3.443  11.620   9.397  1.00  0.00     0.158 HD
ENDBRANCH  12  13
TORSDOF 1
ENDMDL