MODEL 3
REMARK VINA RESULT: -5.458433054      3.727      4.871
REMARK  3 active torsions:
REMARK  status: ('A' for Active; 'I' for Inactive)
REMARK       I    between atoms: C1_4  and  N3_6
REMARK    1  A    between atoms: N3_6  and  N4_8
REMARK       I    between atoms: N4_8  and  C2_10
REMARK    2  A    between atoms: C2_10  and  C3_12
REMARK    3  A    between atoms: N5_13  and  O2_15
ROOT
HETATM    1  N4  UNL     1       0.325   8.085   9.097  1.00  0.00    -0.263 N
ATOM      2  H4  UNL     1       1.339   8.167   9.163  1.00  0.00     0.190 HD
HETATM    3  C2  UNL     1      -0.458   9.239   9.113  1.00  0.00     0.277 C
HETATM    4  O1  UNL     1      -1.700   9.241   9.030  1.00  0.00    -0.265 OA
ENDROOT
BRANCH   1   5
HETATM    5  N3  UNL     1      -0.254   6.821   8.990  1.00  0.00    -0.271 N
HETATM    6  C1  UNL     1       0.445   5.648   8.643  1.00  0.00     0.200 C
HETATM    7  N1  UNL     1       0.469   5.198   7.440  1.00  0.00    -0.372 N
HETATM    8  N2  UNL     1       1.156   4.922   9.639  1.00  0.00    -0.062 NA
ATOM      9  H12 UNL     1       0.975   4.349   7.189  1.00  0.00     0.158 HD
ATOM     10  H11 UNL     1      -0.040   5.718   6.726  1.00  0.00     0.158 HD
ATOM     11  H3  UNL     1      -1.253   6.740   9.177  1.00  0.00     0.189 HD
ENDBRANCH   1   5
BRANCH   3  12
HETATM   12  C3  UNL     1       0.187  10.574   9.230  1.00  0.00     0.189 C
HETATM   13  N5  UNL     1      -0.019  11.306  10.258  1.00  0.00    -0.275 N
ATOM     14  H5  UNL     1      -0.629  10.981  11.008  1.00  0.00     0.193 HD
BRANCH  13  15
HETATM   15  O2  UNL     1       0.587  12.526  10.341  1.00  0.00    -0.290 OA
ATOM     16  H2  UNL     1       0.285  13.152  10.989  1.00  0.00     0.244 HD
ENDBRANCH  13  15
ENDBRANCH   3  12
TORSDOF 3
ENDMDL