MODEL 2
REMARK VINA RESULT: -5.794400326      1.132      1.132
REMARK  2 active torsions:
REMARK  status: ('A' for Active; 'I' for Inactive)
REMARK    1  A    between atoms: N1_1  and  N2_4
REMARK       I    between atoms: N2_4  and  C1_6
REMARK    2  A    between atoms: C1_6  and  C2_8
ROOT
HETATM    1  C2  UNL     1      -1.323   9.607  10.146  1.00  0.00     0.195 A
HETATM    2  N3  UNL     1      -1.952  10.728  10.187  1.00  0.00    -0.277 N
ATOM      3  H3  UNL     1      -2.419  11.072  11.026  1.00  0.00     0.189 HD
HETATM    4  N4  UNL     1      -1.941  11.420   9.001  1.00  0.00    -0.250 N
ATOM      5  H4  UNL     1      -2.373  12.323   8.808  1.00  0.00     0.192 HD
HETATM    6  C3  UNL     1      -1.200  10.612   8.105  1.00  0.00     0.340 A
HETATM    7  O2  UNL     1      -0.920  10.830   6.898  1.00  0.00    -0.245 OA
HETATM    8  N5  UNL     1      -0.802   9.453   8.828  1.00  0.00    -0.288 N
ATOM      9  H5  UNL     1      -0.254   8.668   8.474  1.00  0.00     0.172 HD
ENDROOT
BRANCH   1  10
HETATM   10  C1  UNL     1      -1.130   8.622  11.198  1.00  0.00     0.305 C
HETATM   11  N2  UNL     1      -1.131   8.981  12.564  1.00  0.00    -0.270 N
ATOM     12  H2  UNL     1      -1.269   9.955  12.834  1.00  0.00     0.189 HD
HETATM   13  O1  UNL     1      -0.961   7.430  10.859  1.00  0.00    -0.263 OA
BRANCH  11  14
HETATM   14  N1  UNL     1      -0.942   8.005  13.544  1.00  0.00    -0.342 N
ATOM     15  H12 UNL     1      -1.199   7.040  13.336  1.00  0.00     0.176 HD
ATOM     16  H11 UNL     1      -0.553   8.260  14.452  1.00  0.00     0.176 HD
ENDBRANCH  11  14
ENDBRANCH   1  10
TORSDOF 2
ENDMDL