MODEL 2
REMARK VINA RESULT: -5.907798287      1.631      3.688
REMARK  4 active torsions:
REMARK  status: ('A' for Active; 'I' for Inactive)
REMARK    1  A    between atoms: N1_1  and  N2_4
REMARK    2  A    between atoms: N2_4  and  N3_6
REMARK       I    between atoms: N3_6  and  C1_8
REMARK       I    between atoms: C1_8  and  N4_9
REMARK    3  A    between atoms: C2_11  and  O1_13
REMARK    4  A    between atoms: N6_15  and  C3_17
ROOT
HETATM    1  N3  UNL     1      -2.166   8.517   9.514  1.00  0.00    -0.118 N
ATOM      2  H3  UNL     1      -2.227   7.626  10.005  1.00  0.00     0.207 HD
HETATM    3  C1  UNL     1      -1.106   9.365   9.888  1.00  0.00     0.703 C
HETATM    4  N4  UNL     1      -0.422  10.110   8.900  1.00  0.00    -0.156 N
ATOM      5  H4  UNL     1      -0.432   9.781   7.935  1.00  0.00     0.187 HD
HETATM    6  C2  UNL     1       0.205  11.180   9.184  1.00  0.00     0.243 C
HETATM    7  N5  UNL     1       0.862  11.859   8.120  1.00  0.00    -0.056 NA
HETATM    8  N6  UNL     1      -0.760   9.464  11.111  1.00  0.00    -0.166 N
ATOM      9  H6  UNL     1       0.015  10.092  11.326  1.00  0.00     0.186 HD
ENDROOT
BRANCH   1  10
HETATM   10  N2  UNL     1      -3.116   8.752   8.571  1.00  0.00    -0.235 N
ATOM     11  H2  UNL     1      -3.338   8.040   7.874  1.00  0.00     0.208 HD
BRANCH  10  12
HETATM   12  N1  UNL     1      -3.762   9.931   8.567  1.00  0.00    -0.330 N
ATOM     13  H12 UNL     1      -3.398  10.699   8.003  1.00  0.00     0.178 HD
ATOM     14  H11 UNL     1      -4.607  10.039   9.127  1.00  0.00     0.178 HD
ENDBRANCH  10  12
ENDBRANCH   1  10
BRANCH   8  15
HETATM   15  C3  UNL     1      -1.352   8.784  12.185  1.00  0.00     0.368 C
HETATM   16  O2  UNL     1      -1.534   7.552  12.256  1.00  0.00    -0.283 OA
ENDBRANCH   8  15
BRANCH   6  17
HETATM   17  O1  UNL     1       0.291  11.728  10.456  1.00  0.00    -0.334 OA
ATOM     18  H1  UNL     1      -0.131  12.535  10.725  1.00  0.00     0.220 HD
ENDBRANCH   6  17
TORSDOF 4
ENDMDL