MODEL 1
REMARK VINA RESULT: -6.557165382      0.000      0.000
REMARK  1 active torsions:
REMARK  status: ('A' for Active; 'I' for Inactive)
REMARK    1  A    between atoms: N1_1  and  N2_4
ROOT
HETATM    1  N2  UNL     1      -1.682  11.483   8.134  1.00  0.00    -0.039 NA
HETATM    2  N3  UNL     1      -0.667  12.263   8.681  1.00  0.00    -0.234 N
ATOM      3  H3  UNL     1      -0.532  13.226   8.377  1.00  0.00     0.189 HD
HETATM    4  C1  UNL     1       0.178  11.693   9.673  1.00  0.00     0.341 C
HETATM    5  O1  UNL     1       1.326  12.177   9.864  1.00  0.00    -0.245 OA
HETATM    6  N4  UNL     1      -0.299  10.573  10.435  1.00  0.00    -0.259 N
ATOM      7  H4  UNL     1       0.271  10.131  11.156  1.00  0.00     0.175 HD
HETATM    8  C2  UNL     1      -1.610  10.115  10.130  1.00  0.00     0.341 C
HETATM    9  O2  UNL     1      -2.079   9.123  10.782  1.00  0.00    -0.245 OA
HETATM   10  N5  UNL     1      -2.341  10.773   9.123  1.00  0.00    -0.234 N
ATOM     11  H5  UNL     1      -3.360  10.727   9.122  1.00  0.00     0.189 HD
ENDROOT
BRANCH   1  12
HETATM   12  N1  UNL     1      -1.176  10.548   7.217  1.00  0.00    -0.327 NA
ATOM     13  H12 UNL     1      -0.167  10.693   7.163  1.00  0.00     0.174 HD
ATOM     14  H11 UNL     1      -1.605  10.654   6.299  1.00  0.00     0.174 HD
ENDBRANCH   1  12
TORSDOF 1
ENDMDL