MODEL 3
REMARK VINA RESULT: -5.974418450      1.872      2.411
REMARK  2 active torsions:
REMARK  status: ('A' for Active; 'I' for Inactive)
REMARK       I    between atoms: C1_4  and  N2_5
REMARK       I    between atoms: C1_4  and  N4_10
REMARK    1  A    between atoms: N2_5  and  N3_7
REMARK    2  A    between atoms: N6_15  and  O2_16
ROOT
HETATM    1  N1  UNL     1      -0.280   8.768  11.127  1.00  0.00    -0.232 N
ATOM      2  H11 UNL     1      -0.831   9.385  11.724  1.00  0.00     0.174 HD
ATOM      3  H12 UNL     1       0.297   8.062  11.585  1.00  0.00     0.174 HD
HETATM    4  C1  UNL     1      -0.331   8.894   9.842  1.00  0.00     0.714 C
HETATM    5  N2  UNL     1       0.432   8.039   9.015  1.00  0.00    -0.137 N
ATOM      6  H2  UNL     1       1.299   8.362   8.586  1.00  0.00     0.205 HD
HETATM    7  N4  UNL     1      -1.125   9.865   9.213  1.00  0.00    -0.007 N
HETATM    8  C2  UNL     1      -2.511  10.189   9.158  1.00  0.00     0.373 C
HETATM    9  O1  UNL     1      -3.603   9.562   9.332  1.00  0.00    -0.243 OA
HETATM   10  N5  UNL     1      -2.081  11.495   8.826  1.00  0.00    -0.226 N
ATOM     11  H5  UNL     1      -2.472  12.434   8.899  1.00  0.00     0.190 HD
HETATM   12  N6  UNL     1      -0.894  10.944   8.358  1.00  0.00     0.026 NA
ENDROOT
BRANCH   5  13
HETATM   13  N3  UNL     1      -0.031   6.748   8.803  1.00  0.00    -0.331 N
ATOM     14  H32 UNL     1      -0.627   6.299   9.499  1.00  0.00     0.177 HD
ATOM     15  H31 UNL     1       0.241   6.274   7.941  1.00  0.00     0.177 HD
ENDBRANCH   5  13
BRANCH  12  16
HETATM   16  O2  UNL     1      -0.970  10.500   7.066  1.00  0.00    -0.275 OA
ATOM     17  H2  UNL     1      -1.003  11.253   6.488  1.00  0.00     0.241 HD
ENDBRANCH  12  16
TORSDOF 2
ENDMDL