MODEL 2
REMARK VINA RESULT: -5.555417732      5.947      7.343
REMARK  1 active torsions:
REMARK  status: ('A' for Active; 'I' for Inactive)
REMARK       I    between atoms: C1_4  and  N3_6
REMARK    1  A    between atoms: N5_8  and  N6_9
ROOT
HETATM    1  N1  UNL     1      -1.556   8.816  13.305  1.00  0.00    -0.372 N
ATOM      2  H11 UNL     1      -2.473   9.237  13.454  1.00  0.00     0.158 HD
ATOM      3  H12 UNL     1      -0.990   9.052  12.491  1.00  0.00     0.158 HD
HETATM    4  C1  UNL     1      -1.077   7.967  14.143  1.00  0.00     0.210 C
HETATM    5  N2  UNL     1       0.198   7.382  13.937  1.00  0.00    -0.062 NA
HETATM    6  N3  UNL     1      -1.867   7.638  15.278  1.00  0.00    -0.161 N
HETATM    7  N4  UNL     1      -3.134   8.115  15.636  1.00  0.00     0.007 NA
HETATM    8  N5  UNL     1      -3.718   6.982  16.202  1.00  0.00    -0.026 NA
HETATM    9  N7  UNL     1      -2.715   6.546  17.073  1.00  0.00    -0.234 N
ATOM     10  H7  UNL     1      -2.814   6.186  18.022  1.00  0.00     0.189 HD
HETATM   11  C2  UNL     1      -1.511   6.726  16.312  1.00  0.00     0.359 C
HETATM   12  O1  UNL     1      -0.381   6.224  16.471  1.00  0.00    -0.244 OA
ENDROOT
BRANCH   8  13
HETATM   13  N6  UNL     1      -4.913   7.245  16.857  1.00  0.00    -0.329 NA
ATOM     14  H62 UNL     1      -4.858   8.071  17.454  1.00  0.00     0.174 HD
ATOM     15  H61 UNL     1      -5.675   7.494  16.226  1.00  0.00     0.174 HD
ENDBRANCH   8  13
TORSDOF 1
ENDMDL