MODEL 1
REMARK VINA RESULT: -7.664696394      0.000      0.000
REMARK  8 active torsions:
REMARK  status: ('A' for Active; 'I' for Inactive)
REMARK    1  A    between atoms: C2_2  and  O1_5
REMARK    2  A    between atoms: O1_5  and  C5_6
REMARK    3  A    between atoms: C5_6  and  C6_8
REMARK    4  A    between atoms: C6_8  and  N1_9
REMARK    5  A    between atoms: N1_9  and  C7_12
REMARK    6  A    between atoms: C7_12  and  C10_15
REMARK       I    between atoms: C10_15  and  N2_17
REMARK    7  A    between atoms: C14_23  and  C15_24
REMARK       I    between atoms: C15_24  and  N3_26
REMARK    8  A    between atoms: N3_26  and  C16_28
ROOT
HETATM    1  C10 UNL     1       7.645   7.894  20.276  1.00  0.00     0.257 C
HETATM    2  O3  UNL     1       8.441   7.672  21.276  1.00  0.00    -0.271 OA
HETATM    3  N2  UNL     1       7.479   9.218  19.830  1.00  0.00    -0.325 N
HETATM    4  C11 UNL     1       6.911   9.537  18.535  1.00  0.00     0.203 C
HETATM    5  S1  UNL     1       7.215  11.394  18.417  1.00  0.00    -0.121 SA
HETATM    6  C12 UNL     1       6.980  11.555  20.268  1.00  0.00     0.112 C
HETATM    7  C13 UNL     1       5.515  11.379  20.454  1.00  0.00     0.047 C
HETATM    8 CL1  UNL     1       7.652  13.041  20.865  1.00  0.00    -0.105 Cl
HETATM    9  C14 UNL     1       7.832  10.366  20.628  1.00  0.00     0.213 C
ENDROOT
BRANCH   1  10
HETATM   10  C7  UNL     1       7.021   6.650  19.765  1.00  0.00     0.199 C
HETATM   11  C8  UNL     1       5.552   6.590  19.784  1.00  0.00     0.056 C
HETATM   12  C9  UNL     1       7.611   5.508  20.605  1.00  0.00     0.056 C
BRANCH  10  13
HETATM   13  N1  UNL     1       7.476   6.440  18.378  1.00  0.00    -0.049 N
ATOM     14  H12 UNL     1       8.303   5.845  18.336  1.00  0.00     0.279 HD
ATOM     15  H11 UNL     1       7.878   7.288  17.978  1.00  0.00     0.279 HD
BRANCH  13  16
HETATM   16  C6  UNL     1       6.417   5.930  17.580  1.00  0.00     0.344 C
BRANCH  16  17
HETATM   17  C5  UNL     1       6.825   4.652  16.901  1.00  0.00     0.285 C
HETATM   18  O2  UNL     1       7.061   4.717  15.661  1.00  0.00    -0.263 OA
BRANCH  17  19
HETATM   19  O1  UNL     1       6.928   3.505  17.605  1.00  0.00    -0.310 OA
BRANCH  19  20
HETATM   20  C2  UNL     1       8.044   2.715  17.762  1.00  0.00     0.060 C
HETATM   21  C1  UNL     1       7.929   2.084  19.180  1.00  0.00     0.045 C
HETATM   22  C3  UNL     1       9.330   3.579  17.785  1.00  0.00     0.045 C
HETATM   23  C4  UNL     1       8.213   1.689  16.695  1.00  0.00     0.045 C
ENDBRANCH  19  20
ENDBRANCH  17  19
ENDBRANCH  16  17
ENDBRANCH  13  16
ENDBRANCH  10  13
ENDBRANCH   1  10
BRANCH   9  24
HETATM   24  C15 UNL     1       7.882  10.051  22.047  1.00  0.00     0.243 C
HETATM   25  O4  UNL     1       6.829   9.820  22.706  1.00  0.00    -0.271 OA
HETATM   26  N3  UNL     1       9.124   9.979  22.718  1.00  0.00    -0.354 N
ATOM     27  H3  UNL     1       9.929  10.245  22.151  1.00  0.00     0.162 HD
BRANCH  26  28
HETATM   28  C16 UNL     1       9.433   9.609  24.014  1.00  0.00     0.099 C
HETATM   29  C17 UNL     1      10.948   9.473  24.253  1.00  0.00     0.041 C
HETATM   30  C18 UNL     1      11.049   9.263  25.778  1.00  0.00     0.142 C
HETATM   31  S2  UNL     1       9.713   8.117  26.040  1.00  0.00     0.146 S
HETATM   32  O5  UNL     1      10.228   6.741  26.237  1.00  0.00    -0.228 OA
HETATM   33  O6  UNL     1       8.826   8.536  27.149  1.00  0.00    -0.228 OA
HETATM   34  C19 UNL     1       8.884   8.293  24.439  1.00  0.00     0.165 C
ENDBRANCH  26  28
ENDBRANCH   9  24
TORSDOF 8
ENDMDL