MODEL 3
REMARK VINA RESULT: -7.885813484      1.169      1.315
REMARK  7 active torsions:
REMARK  status: ('A' for Active; 'I' for Inactive)
REMARK    1  A    between atoms: O1_2  and  C2_3
REMARK    2  A    between atoms: C2_3  and  C3_4
REMARK    3  A    between atoms: C6_8  and  C8_11
REMARK    4  A    between atoms: C8_11  and  C9_12
REMARK    5  A    between atoms: C9_12  and  N2_13
REMARK    6  A    between atoms: C17_23  and  C18_24
REMARK       I    between atoms: C18_24  and  N3_26
REMARK    7  A    between atoms: N3_26  and  N4_28
ROOT
HETATM    1  C3  UNL     1       8.808   9.524  22.909  1.00  0.00     0.152 C
HETATM    2  C4  UNL     1       7.414   9.669  23.490  1.00  0.00     0.060 C
HETATM    3  C5  UNL     1       6.553  10.240  22.355  1.00  0.00     0.175 C
HETATM    4  O2  UNL     1       6.574   9.274  21.354  1.00  0.00    -0.343 OA
HETATM    5  C6  UNL     1       7.878   9.127  20.822  1.00  0.00     0.259 C
HETATM    6  C7  UNL     1       8.278  10.409  20.317  1.00  0.00     0.128 C
HETATM    7  N1  UNL     1       8.600  11.448  19.935  1.00  0.00    -0.191 NA
HETATM    8  O4  UNL     1       8.742   8.665  21.842  1.00  0.00    -0.336 OA
ENDROOT
BRANCH   5   9
HETATM    9  C8  UNL     1       7.842   8.025  19.809  1.00  0.00     0.116 C
BRANCH   9  10
HETATM   10  C9  UNL     1       6.907   6.919  20.047  1.00  0.00     0.279 C
BRANCH  10  11
HETATM   11  N2  UNL     1       6.221   6.304  18.994  1.00  0.00     0.091 N
HETATM   12  C10 UNL     1       6.986   6.035  17.798  1.00  0.00     0.289 C
HETATM   13  C11 UNL     1       7.648   4.762  18.130  1.00  0.00     0.101 C
HETATM   14  S1  UNL     1       8.278   3.772  16.775  1.00  0.00    -0.147 SA
HETATM   15  C17 UNL     1       6.500   3.949  18.699  1.00  0.00     0.116 C
HETATM   16  C12 UNL     1       8.565   2.138  17.564  1.00  0.00     0.020 C
HETATM   17  C13 UNL     1      10.088   2.060  17.753  1.00  0.00     0.031 C
HETATM   18  C14 UNL     1       8.198   1.012  16.651  1.00  0.00     0.031 C
HETATM   19  C15 UNL     1       7.977   2.072  18.906  1.00  0.00     0.009 C
HETATM   20  C16 UNL     1       7.070   2.845  19.450  1.00  0.00     0.007 C
HETATM   21 BR1  UNL     1       6.496   2.506  21.241  1.00  0.00    -0.055 Br
HETATM   22  C19 UNL     1       5.775   4.987  19.474  1.00  0.00     0.298 C
BRANCH  15  23
HETATM   23  C18 UNL     1       5.592   3.430  17.658  1.00  0.00     0.252 C
HETATM   24  O3  UNL     1       5.634   3.733  16.454  1.00  0.00    -0.270 OA
HETATM   25  N3  UNL     1       4.595   2.511  18.090  1.00  0.00    -0.276 N
ATOM     26  H3  UNL     1       4.546   2.252  19.075  1.00  0.00     0.189 HD
BRANCH  25  27
HETATM   27  N4  UNL     1       3.677   1.954  17.182  1.00  0.00    -0.343 N
ATOM     28  H42 UNL     1       4.034   1.560  16.311  1.00  0.00     0.176 HD
ATOM     29  H41 UNL     1       2.677   1.940  17.384  1.00  0.00     0.176 HD
ENDBRANCH  25  27
ENDBRANCH  15  23
ENDBRANCH  10  11
ENDBRANCH   9  10
ENDBRANCH   5   9
BRANCH   1  30
HETATM   30  C2  UNL     1       9.773   8.949  23.922  1.00  0.00     0.199 C
BRANCH  30  31
HETATM   31  O1  UNL     1       9.174   8.048  24.771  1.00  0.00    -0.393 OA
HETATM   32  C1  UNL     1       9.878   8.022  25.962  1.00  0.00     0.201 C
ENDBRANCH  30  31
ENDBRANCH   1  30
TORSDOF 7
ENDMDL