MODEL 4
REMARK VINA RESULT: -6.796769528      1.012      1.204
REMARK  10 active torsions:
REMARK  status: ('A' for Active; 'I' for Inactive)
REMARK    1  A    between atoms: N1_1  and  C1_5
REMARK    2  A    between atoms: C1_5  and  C2_6
REMARK    3  A    between atoms: C2_6  and  C3_7
REMARK    4  A    between atoms: C3_7  and  C5_17
REMARK    5  A    between atoms: N2_8  and  N3_10
REMARK    6  A    between atoms: N3_10  and  C4_12
REMARK    7  A    between atoms: C4_12  and  N4_14
REMARK    8  A    between atoms: N5_21  and  C9_22
REMARK    9  A    between atoms: C9_22  and  O3_23
REMARK   10  A    between atoms: N6_25  and  C10_27
ROOT
HETATM    1  C5  UNL     1       6.102   7.804  21.745  1.00  0.00     0.023 A
HETATM    2  C6  UNL     1       5.059   7.268  22.515  1.00  0.00     0.017 A
HETATM    3  C7  UNL     1       4.523   6.023  22.267  1.00  0.00     0.019 A
HETATM    4  C8  UNL     1       5.015   5.275  21.242  1.00  0.00     0.101 A
HETATM    5  N5  UNL     1       6.019   5.779  20.496  1.00  0.00    -0.281 N
HETATM    6  C16 UNL     1       6.558   7.015  20.736  1.00  0.00     0.101 A
HETATM    7 BR1  UNL     1       8.037   7.494  19.633  1.00  0.00    -0.030 Br
ENDROOT
BRANCH   1   8
HETATM    8  C3  UNL     1       6.517   9.144  22.058  1.00  0.00     0.040 C
HETATM    9  N2  UNL     1       6.116  10.131  21.263  1.00  0.00    -0.302 N
ATOM     10  H2  UNL     1       5.464   9.904  20.512  1.00  0.00     0.186 HD
BRANCH   8  11
HETATM   11  C2  UNL     1       7.457   9.598  23.104  1.00  0.00     0.086 C
BRANCH  11  12
HETATM   12  C1  UNL     1       8.717   8.763  22.994  1.00  0.00     0.235 C
BRANCH  12  13
HETATM   13  N1  UNL     1       9.798   9.456  22.327  1.00  0.00    -0.079 N
ATOM     14  H13 UNL     1      10.659   8.912  22.365  1.00  0.00     0.274 HD
ATOM     15  H12 UNL     1       9.655   9.469  21.317  1.00  0.00     0.274 HD
ATOM     16  H11 UNL     1       9.948  10.400  22.685  1.00  0.00     0.274 HD
ENDBRANCH  12  13
ENDBRANCH  11  12
ENDBRANCH   8  11
BRANCH   9  17
HETATM   17  N3  UNL     1       6.524  11.438  21.389  1.00  0.00    -0.271 N
ATOM     18  H3  UNL     1       6.470  11.866  22.313  1.00  0.00     0.189 HD
BRANCH  17  19
HETATM   19  C4  UNL     1       7.016  12.228  20.321  1.00  0.00     0.257 C
HETATM   20  S1  UNL     1       6.059  13.329  19.593  1.00  0.00    -0.033 SA
BRANCH  19  21
HETATM   21  N4  UNL     1       8.338  12.073  19.876  1.00  0.00    -0.085 N
HETATM   22  O1  UNL     1       8.932  10.989  19.993  1.00  0.00    -0.530 OA
HETATM   23  O2  UNL     1       8.985  13.132  19.302  1.00  0.00    -0.530 OA
ENDBRANCH  19  21
ENDBRANCH  17  19
ENDBRANCH   9  17
ENDBRANCH   1   8
BRANCH   5  24
HETATM   24  C9  UNL     1       6.520   4.994  19.435  1.00  0.00     0.229 C
HETATM   25  N6  UNL     1       7.283   3.967  19.621  1.00  0.00    -0.322 N
ATOM     26  H6  UNL     1       7.536   3.712  20.576  1.00  0.00     0.169 HD
BRANCH  24  27
HETATM   27  O3  UNL     1       6.198   5.312  18.122  1.00  0.00    -0.332 OA
ATOM     28  H3  UNL     1       6.717   5.950  17.647  1.00  0.00     0.221 HD
ENDBRANCH  24  27
BRANCH  25  29
HETATM   29  C10 UNL     1       7.784   3.182  18.551  1.00  0.00     0.036 A
HETATM   30  C11 UNL     1       9.152   3.054  18.346  1.00  0.00     0.029 A
HETATM   31  C12 UNL     1       9.670   2.298  17.315  1.00  0.00     0.004 A
HETATM   32  C13 UNL     1       8.813   1.635  16.441  1.00  0.00     0.019 A
HETATM   33  C14 UNL     1       7.452   1.754  16.634  1.00  0.00     0.014 A
HETATM   34  S2  UNL     1       6.377   0.880  15.481  1.00  0.00    -0.052 SA
HETATM   35  C15 UNL     1       6.960   2.514  17.669  1.00  0.00     0.049 A
ENDBRANCH  25  29
ENDBRANCH   5  24
TORSDOF 10
ENDMDL