MODEL 1
REMARK VINA RESULT: -7.701025920      0.000      0.000
REMARK  11 active torsions:
REMARK  status: ('A' for Active; 'I' for Inactive)
REMARK    1  A    between atoms: O1_2  and  C2_3
REMARK    2  A    between atoms: C2_3  and  C3_5
REMARK    3  A    between atoms: C4_6  and  C5_7
REMARK    4  A    between atoms: C5_7  and  C6_8
REMARK    5  A    between atoms: C6_8  and  N1_9
REMARK    6  A    between atoms: N2_12  and  O3_13
REMARK    7  A    between atoms: N3_18  and  C11_20
REMARK    8  A    between atoms: C11_20  and  C12_21
REMARK    9  A    between atoms: N4_26  and  O4_27
REMARK   10  A    between atoms: C19_31  and  O5_32
REMARK   11  A    between atoms: C20_34  and  O6_35
ROOT
HETATM    1  C5  UNL     1       6.480   8.155  22.709  1.00  0.00     0.059 C
HETATM    2  N3  UNL     1       6.032   7.172  22.249  1.00  0.00    -0.362 N
ATOM      3  H3  UNL     1       6.784   6.496  22.386  1.00  0.00     0.165 HD
ENDROOT
BRANCH   1   4
HETATM    4  C4  UNL     1       7.819   8.380  23.338  1.00  0.00     0.011 A
HETATM    5  C3  UNL     1       8.915   8.896  22.762  1.00  0.00     0.087 A
HETATM    6  C20 UNL     1      10.069   9.242  23.530  1.00  0.00     0.116 A
HETATM    7  C19 UNL     1      10.066   9.042  24.856  1.00  0.00     0.099 A
HETATM    8  C18 UNL     1       8.979   8.512  25.497  1.00  0.00     0.040 A
HETATM    9  C17 UNL     1       7.893   8.196  24.742  1.00  0.00     0.018 A
BRANCH   5  10
HETATM   10  C2  UNL     1       9.055   9.035  21.325  1.00  0.00     0.296 C
HETATM   11  O2  UNL     1       9.092   8.249  20.397  1.00  0.00    -0.259 OA
BRANCH  10  12
HETATM   12  O1  UNL     1       9.186  10.378  20.807  1.00  0.00    -0.322 OA
HETATM   13  C1  UNL     1       8.078  11.034  20.224  1.00  0.00     0.213 C
ENDBRANCH  10  12
ENDBRANCH   5  10
BRANCH   6  14
HETATM   14  O6  UNL     1      11.164   9.781  22.859  1.00  0.00    -0.357 OA
ATOM     15  H6  UNL     1      11.821  10.237  23.372  1.00  0.00     0.217 HD
ENDBRANCH   6  14
BRANCH   7  16
HETATM   16  O5  UNL     1      11.182   9.373  25.609  1.00  0.00    -0.358 OA
ATOM     17  H5  UNL     1      11.693  10.131  25.353  1.00  0.00     0.217 HD
ENDBRANCH   7  16
ENDBRANCH   1   4
BRANCH   1  18
HETATM   18  C6  UNL     1       5.612   9.404  22.767  1.00  0.00     0.127 C
BRANCH  18  19
HETATM   19  N1  UNL     1       4.484   9.410  23.572  1.00  0.00    -0.322 N
HETATM   20  C7  UNL     1       4.507   9.236  24.905  1.00  0.00     0.117 A
HETATM   21  C8  UNL     1       3.356   9.180  25.657  1.00  0.00     0.140 A
HETATM   22  N2  UNL     1       2.177   9.303  25.029  1.00  0.00    -0.243 N
HETATM   23  C9  UNL     1       2.123   9.477  23.699  1.00  0.00     0.160 A
HETATM   24  C10 UNL     1       3.262   9.530  22.971  1.00  0.00     0.103 A
HETATM   25 BR1  UNL     1       3.181   9.777  21.060  1.00  0.00    -0.029 Br
BRANCH  22  26
HETATM   26  O3  UNL     1       0.962   9.264  25.687  1.00  0.00    -0.284 OA
ATOM     27  H3  UNL     1       0.823   8.778  26.491  1.00  0.00     0.245 HD
ENDBRANCH  22  26
ENDBRANCH  18  19
ENDBRANCH   1  18
BRANCH   2  28
HETATM   28  C11 UNL     1       5.060   6.422  21.630  1.00  0.00     0.120 C
BRANCH  28  29
HETATM   29  C12 UNL     1       5.510   5.170  20.922  1.00  0.00     0.077 A
HETATM   30  C13 UNL     1       4.862   4.001  21.318  1.00  0.00     0.033 A
HETATM   31  C14 UNL     1       5.207   2.806  20.736  1.00  0.00     0.004 A
HETATM   32  C15 UNL     1       6.188   2.803  19.775  1.00  0.00     0.020 A
HETATM   33  C16 UNL     1       6.823   3.954  19.389  1.00  0.00     0.123 A
HETATM   34  N4  UNL     1       6.448   5.113  19.993  1.00  0.00    -0.235 N
BRANCH  34  35
HETATM   35  O4  UNL     1       7.111   6.239  19.586  1.00  0.00    -0.283 OA
ATOM     36  H4  UNL     1       7.416   6.333  18.691  1.00  0.00     0.245 HD
ENDBRANCH  34  35
ENDBRANCH  28  29
ENDBRANCH   2  28
TORSDOF 11
ENDMDL