MODEL 4
REMARK VINA RESULT: -8.600561956      0.983      1.227
REMARK  8 active torsions:
REMARK  status: ('A' for Active; 'I' for Inactive)
REMARK    1  A    between atoms: C10_13  and  C12_15
REMARK    2  A    between atoms: C12_15  and  O3_16
REMARK    3  A    between atoms: O3_16  and  C13_17
REMARK    4  A    between atoms: C13_17  and  C14_19
REMARK    5  A    between atoms: C15_21  and  C16_22
REMARK    6  A    between atoms: C16_22  and  N1_23
REMARK       I    between atoms: N1_23  and  C17_25
REMARK    7  A    between atoms: C17_25  and  O7_27
REMARK    8  A    between atoms: O7_27  and  C18_28
ROOT
HETATM    1  C13 UNL     1       7.677   9.225  19.618  1.00  0.00     0.290 C
HETATM    2  O4  UNL     1       8.788   9.855  19.528  1.00  0.00    -0.262 OA
ENDROOT
BRANCH   1   3
HETATM    3  O3  UNL     1       7.604   8.097  18.837  1.00  0.00    -0.319 OA
BRANCH   3   4
HETATM    4  C12 UNL     1       7.737   6.782  19.345  1.00  0.00     0.189 C
BRANCH   4   5
HETATM    5  C10 UNL     1       6.822   5.806  18.687  1.00  0.00     0.000 C
HETATM    6  C5  UNL     1       7.327   4.440  18.845  1.00  0.00     0.038 C
HETATM    7  C4  UNL     1       7.326   3.720  20.094  1.00  0.00     0.161 A
HETATM    8  C6  UNL     1       6.437   3.697  17.853  1.00  0.00     0.057 C
HETATM    9  C3  UNL     1       7.840   2.303  19.783  1.00  0.00     0.182 A
HETATM   10  O1  UNL     1       6.523   2.477  20.184  1.00  0.00    -0.370 OA
HETATM   11  C2  UNL     1       8.161   2.121  18.356  1.00  0.00    -0.029 C
HETATM   12  C1  UNL     1       9.250   1.445  18.031  1.00  0.00     0.019 C
HETATM   13  C7  UNL     1       7.333   2.654  17.238  1.00  0.00     0.159 C
HETATM   14  O2  UNL     1       7.919   3.760  16.568  1.00  0.00    -0.374 OA
HETATM   15  C8  UNL     1       6.706   4.491  16.627  1.00  0.00     0.145 C
HETATM   16  C9  UNL     1       6.846   5.909  17.168  1.00  0.00     0.098 C
HETATM   17 BR1  UNL     1       5.261   6.877  16.571  1.00  0.00    -0.088 Br
HETATM   18  C11 UNL     1       5.426   6.023  19.219  1.00  0.00     0.019 C
ENDBRANCH   4   5
ENDBRANCH   3   4
ENDBRANCH   1   3
BRANCH   1  19
HETATM   19  C14 UNL     1       6.626   9.749  20.514  1.00  0.00     0.252 A
HETATM   20  O5  UNL     1       6.345   8.930  21.610  1.00  0.00    -0.363 OA
HETATM   21  C15 UNL     1       6.752  10.281  21.809  1.00  0.00     0.179 A
BRANCH  21  22
HETATM   22  C16 UNL     1       8.035  10.487  22.557  1.00  0.00     0.160 C
BRANCH  22  23
HETATM   23  N1  UNL     1       8.340   9.445  23.510  1.00  0.00    -0.334 N
HETATM   24  C17 UNL     1       9.656   9.086  23.869  1.00  0.00     0.361 C
HETATM   25  O6  UNL     1      10.642   9.662  23.377  1.00  0.00    -0.239 OA
ATOM     26  H1  UNL     1       7.565   8.944  23.946  1.00  0.00     0.164 HD
BRANCH  24  27
HETATM   27  O7  UNL     1       9.901   8.063  24.798  1.00  0.00    -0.295 OA
BRANCH  27  28
HETATM   28  C18 UNL     1      10.225   8.351  26.141  1.00  0.00     0.184 C
HETATM   29  C19 UNL     1      11.671   7.973  26.416  1.00  0.00     0.266 C
HETATM   30  N2  UNL     1      11.270   7.282  27.623  1.00  0.00    -0.070 N
HETATM   31  C20 UNL     1       9.907   7.272  27.134  1.00  0.00     0.266 C
ATOM     32  H22 UNL     1      11.728   6.413  27.897  1.00  0.00     0.277 HD
ATOM     33  H21 UNL     1      11.488   7.674  28.539  1.00  0.00     0.277 HD
ENDBRANCH  27  28
ENDBRANCH  24  27
ENDBRANCH  22  23
ENDBRANCH  21  22
ENDBRANCH   1  19
TORSDOF 8
ENDMDL