MODEL 2
REMARK VINA RESULT: -8.202769440      1.638      1.794
REMARK  6 active torsions:
REMARK  status: ('A' for Active; 'I' for Inactive)
REMARK    1  A    between atoms: O1_2  and  C2_3
REMARK    2  A    between atoms: C4_5  and  C5_6
REMARK    3  A    between atoms: C5_6  and  N1_7
REMARK    4  A    between atoms: C8_10  and  O2_11
REMARK    5  A    between atoms: C10_13  and  O3_14
REMARK    6  A    between atoms: C12_16  and  O4_17
ROOT
HETATM    1  N1  UNL     1       5.967   7.553  19.737  1.00  0.00    -0.254 N
HETATM    2  C6  UNL     1       5.314   7.297  20.993  1.00  0.00     0.063 A
HETATM    3  C7  UNL     1       4.265   6.403  20.997  1.00  0.00     0.071 A
HETATM    4  C8  UNL     1       3.525   6.142  22.124  1.00  0.00     0.106 A
HETATM    5  C10 UNL     1       3.844   6.801  23.293  1.00  0.00     0.136 A
HETATM    6  C12 UNL     1       4.904   7.720  23.337  1.00  0.00     0.117 A
HETATM    7  C14 UNL     1       5.624   7.951  22.198  1.00  0.00     0.065 A
HETATM    8  C15 UNL     1       6.825   8.803  22.206  1.00  0.00     0.236 C
HETATM    9  N2  UNL     1       7.356   9.295  23.420  1.00  0.00    -0.303 N
ATOM     10  H2  UNL     1       6.891   9.404  24.321  1.00  0.00     0.167 HD
HETATM   11  C16 UNL     1       8.757   9.612  23.058  1.00  0.00     0.325 C
HETATM   12  O5  UNL     1       9.460  10.538  23.533  1.00  0.00    -0.247 OA
HETATM   13  N3  UNL     1       9.138   8.654  22.065  1.00  0.00    -0.275 N
ATOM     14  H3  UNL     1      10.036   8.573  21.588  1.00  0.00     0.173 HD
HETATM   15  C17 UNL     1       7.968   7.824  21.886  1.00  0.00     0.281 C
HETATM   16  O6  UNL     1       7.953   6.633  21.562  1.00  0.00    -0.268 OA
HETATM   17  N4  UNL     1       6.716   9.761  21.171  1.00  0.00    -0.257 N
HETATM   18  C18 UNL     1       7.238  11.047  21.314  1.00  0.00     0.168 C
HETATM   19  S1  UNL     1       6.898   9.031  19.650  1.00  0.00     0.326 S
HETATM   20  O7  UNL     1       6.347   9.944  18.559  1.00  0.00    -0.182 OA
HETATM   21  O8  UNL     1       8.314   8.756  19.244  1.00  0.00    -0.182 OA
ENDROOT
BRANCH   1  22
HETATM   22  C5  UNL     1       5.861   6.667  18.632  1.00  0.00     0.182 C
BRANCH  22  23
HETATM   23  C4  UNL     1       6.507   5.345  18.817  1.00  0.00    -0.036 A
HETATM   24  C3  UNL     1       7.802   5.111  18.352  1.00  0.00     0.048 A
HETATM   25  C2  UNL     1       8.436   3.899  18.499  1.00  0.00     0.107 A
HETATM   26  C21 UNL     1       7.792   2.842  19.129  1.00  0.00     0.149 A
HETATM   27  C20 UNL     1       6.514   3.056  19.594  1.00  0.00     0.046 A
HETATM   28  F1  UNL     1       8.412   1.655  19.272  1.00  0.00    -0.203 F
HETATM   29  C19 UNL     1       5.895   4.280  19.438  1.00  0.00     0.012 A
BRANCH  25  30
HETATM   30  O1  UNL     1       9.724   3.681  18.031  1.00  0.00    -0.353 OA
HETATM   31  C1  UNL     1       9.894   2.782  16.960  1.00  0.00     0.210 C
ENDBRANCH  25  30
ENDBRANCH  22  23
ENDBRANCH   1  22
BRANCH   4  32
HETATM   32  O2  UNL     1       2.465   5.248  22.163  1.00  0.00    -0.353 OA
HETATM   33  C9  UNL     1       2.647   3.846  22.131  1.00  0.00     0.210 C
ENDBRANCH   4  32
BRANCH   6  34
HETATM   34  O4  UNL     1       5.130   8.341  24.585  1.00  0.00    -0.352 OA
HETATM   35  C13 UNL     1       4.324   9.544  24.740  1.00  0.00     0.210 C
ENDBRANCH   6  34
BRANCH   5  36
HETATM   36  O3  UNL     1       3.136   6.588  24.476  1.00  0.00    -0.351 OA
HETATM   37  C11 UNL     1       1.828   7.123  24.586  1.00  0.00     0.210 C
ENDBRANCH   5  36
TORSDOF 6
ENDMDL