MODEL 5
REMARK VINA RESULT: -7.581095839      4.493      7.456
REMARK  8 active torsions:
REMARK  status: ('A' for Active; 'I' for Inactive)
REMARK    1  A    between atoms: C3_3  and  C4_4
REMARK    2  A    between atoms: C5_8  and  N3_9
REMARK    3  A    between atoms: N3_9  and  C7_11
REMARK    4  A    between atoms: C7_11  and  C8_12
REMARK    5  A    between atoms: C8_12  and  N4_13
REMARK    6  A    between atoms: C11_18  and  N6_19
REMARK    7  A    between atoms: N6_19  and  C12_21
REMARK    8  A    between atoms: C14_23  and  C15_24
ROOT
HETATM    1  C1  UNL     1      12.844   7.687  26.422  1.00  0.00     0.112 C
HETATM    2  C2  UNL     1      11.493   8.015  25.957  1.00  0.00    -0.103 C
HETATM    3  C3  UNL     1      10.376   8.271  25.557  1.00  0.00    -0.029 C
ENDROOT
BRANCH   3   4
HETATM    4  C4  UNL     1       9.046   8.557  25.063  1.00  0.00     0.192 A
HETATM    5  N1  UNL     1       8.725   8.964  23.827  1.00  0.00    -0.241 N
HETATM    6  N2  UNL     1       7.392   9.125  23.752  1.00  0.00     0.093 N
ATOM      7  H1  UNL     1       9.386   9.126  23.067  1.00  0.00     0.191 HD
HETATM    8  C5  UNL     1       6.567   9.510  22.765  1.00  0.00     0.731 A
HETATM    9  C19 UNL     1       6.863   8.815  24.953  1.00  0.00     0.735 A
HETATM   10  N5  UNL     1       5.229   9.574  23.013  1.00  0.00    -0.019 N
HETATM   11  C11 UNL     1       4.679   9.272  24.198  1.00  0.00     0.712 A
ATOM     12  H5  UNL     1       4.611   9.868  22.256  1.00  0.00     0.203 HD
HETATM   13  N9  UNL     1       5.544   8.890  25.156  1.00  0.00    -0.019 N
ATOM     14  H9  UNL     1       5.177   8.648  26.076  1.00  0.00     0.203 HD
HETATM   15  N10 UNL     1       7.899   8.470  25.738  1.00  0.00    -0.164 N
ATOM     16  H10 UNL     1       7.819   8.183  26.714  1.00  0.00     0.186 HD
BRANCH   8  17
HETATM   17  N3  UNL     1       7.099   9.820  21.494  1.00  0.00    -0.218 N
HETATM   18  C6  UNL     1       7.277   8.818  20.481  1.00  0.00     0.169 C
BRANCH  17  19
HETATM   19  C7  UNL     1       7.466  11.198  21.198  1.00  0.00     0.171 C
BRANCH  19  20
HETATM   20  C8  UNL     1       8.073  11.401  19.861  1.00  0.00     0.291 C
BRANCH  20  21
HETATM   21  N4  UNL     1       7.602  12.481  19.075  1.00  0.00     0.081 N
HETATM   22  C9  UNL     1       8.495  13.594  19.078  1.00  0.00     0.309 C
HETATM   23  C10 UNL     1       6.241  12.828  19.434  1.00  0.00     0.309 C
ENDBRANCH  20  21
ENDBRANCH  19  20
ENDBRANCH  17  19
ENDBRANCH   8  17
BRANCH  11  24
HETATM   24  N6  UNL     1       3.450   9.312  24.497  1.00  0.00    -0.189 N
ATOM     25  H6  UNL     1       3.114  10.198  24.875  1.00  0.00     0.184 HD
BRANCH  24  26
HETATM   26  C12 UNL     1       2.487   8.295  24.376  1.00  0.00     0.070 A
HETATM   27  C13 UNL     1       2.893   7.031  24.021  1.00  0.00     0.066 A
HETATM   28  C14 UNL     1       2.000   5.959  23.880  1.00  0.00     0.101 A
HETATM   29  N8  UNL     1       0.712   6.213  24.109  1.00  0.00    -0.356 N
HETATM   30  C16 UNL     1      -0.278   5.153  23.984  1.00  0.00     0.156 C
HETATM   31  C17 UNL     1       0.271   7.459  24.465  1.00  0.00     0.112 A
HETATM   32  C18 UNL     1       1.144   8.505  24.602  1.00  0.00     0.053 A
HETATM   33 BR1  UNL     1       0.555  10.249  25.096  1.00  0.00    -0.047 Br
BRANCH  28  34
HETATM   34  C15 UNL     1       2.468   4.651  23.505  1.00  0.00     0.281 C
HETATM   35  N7  UNL     1       2.700   4.149  22.222  1.00  0.00    -0.056 NA
HETATM   36  O1  UNL     1       2.707   3.825  24.465  1.00  0.00    -0.269 OA
ENDBRANCH  28  34
ENDBRANCH  24  26
ENDBRANCH  11  24
ENDBRANCH   3   4
TORSDOF 8
ENDMDL