MODEL 2
REMARK VINA RESULT: -8.453548090      0.890      1.243
REMARK  10 active torsions:
REMARK  status: ('A' for Active; 'I' for Inactive)
REMARK    1  A    between atoms: C3_3  and  N1_4
REMARK    2  A    between atoms: C8_13  and  O3_14
REMARK    3  A    between atoms: C9_16  and  O4_17
REMARK    4  A    between atoms: O4_17  and  C10_18
REMARK    5  A    between atoms: C12_21  and  O6_22
REMARK    6  A    between atoms: C14_24  and  O7_25
REMARK    7  A    between atoms: O7_25  and  C15_26
REMARK    8  A    between atoms: C15_26  and  C16_27
REMARK    9  A    between atoms: C17_28  and  C18_29
REMARK   10  A    between atoms: C24_36  and  C25_37
ROOT
HETATM    1  C1  UNL     1       3.900   9.552  24.672  1.00  0.00     0.100 C
HETATM    2  C2  UNL     1       4.073   8.750  23.759  1.00  0.00    -0.148 C
HETATM    3  C3  UNL     1       4.257   7.749  22.628  1.00  0.00     0.147 C
HETATM    4  C8  UNL     1       5.763   7.438  22.758  1.00  0.00     0.195 C
HETATM    5  C9  UNL     1       6.487   8.751  22.659  1.00  0.00     0.196 C
HETATM    6  C12 UNL     1       6.222   9.390  21.344  1.00  0.00     0.186 C
HETATM    7  C14 UNL     1       5.166   8.765  20.520  1.00  0.00     0.186 C
HETATM    8  C24 UNL     1       3.945   8.342  21.349  1.00  0.00    -0.007 C
ENDROOT
BRANCH   3   9
HETATM    9  N1  UNL     1       3.487   6.624  23.112  1.00  0.00    -0.283 N
HETATM   10  C4  UNL     1       2.472   6.772  23.965  1.00  0.00     0.103 A
HETATM   11  C5  UNL     1       1.715   5.703  24.394  1.00  0.00     0.092 A
HETATM   12  C6  UNL     1       2.001   4.417  23.934  1.00  0.00     0.250 A
HETATM   13  O1  UNL     1       1.363   3.397  24.275  1.00  0.00    -0.268 OA
HETATM   14  N2  UNL     1       3.028   4.325  23.082  1.00  0.00    -0.275 N
HETATM   15  C7  UNL     1       3.764   5.375  22.667  1.00  0.00     0.331 A
ATOM     16  H2  UNL     1       3.269   3.401  22.723  1.00  0.00     0.173 HD
HETATM   17  O2  UNL     1       4.694   5.111  21.863  1.00  0.00    -0.246 OA
ENDBRANCH   3   9
BRANCH   4  18
HETATM   18  O3  UNL     1       5.991   7.000  24.080  1.00  0.00    -0.389 OA
ATOM     19  H3  UNL     1       5.415   7.496  24.648  1.00  0.00     0.210 HD
ENDBRANCH   4  18
BRANCH   8  20
HETATM   20  C25 UNL     1       2.998   7.806  20.378  1.00  0.00    -0.001 C
HETATM   21  C26 UNL     1       1.714   7.854  20.239  1.00  0.00     0.011 C
ENDBRANCH   8  20
BRANCH   5  22
HETATM   22  O4  UNL     1       7.878   8.464  22.844  1.00  0.00    -0.311 OA
BRANCH  22  23
HETATM   23  C10 UNL     1       8.631   9.214  23.708  1.00  0.00     0.255 C
HETATM   24  C11 UNL     1       9.047   8.718  25.067  1.00  0.00     0.126 C
HETATM   25  O5  UNL     1       8.988  10.370  23.345  1.00  0.00    -0.266 OA
ENDBRANCH  22  23
ENDBRANCH   5  22
BRANCH   7  26
HETATM   26  O7  UNL     1       5.679   7.692  19.815  1.00  0.00    -0.367 OA
BRANCH  26  27
HETATM   27  C15 UNL     1       6.956   7.806  19.360  1.00  0.00     0.262 C
BRANCH  27  28
HETATM   28  C16 UNL     1       7.525   6.505  19.115  1.00  0.00    -0.075 C
HETATM   29  C17 UNL     1       7.984   5.419  18.890  1.00  0.00    -0.065 C
BRANCH  29  30
HETATM   30  C18 UNL     1       8.526   4.120  18.597  1.00  0.00     0.018 A
HETATM   31  C19 UNL     1       7.971   2.964  19.143  1.00  0.00     0.024 A
HETATM   32  C20 UNL     1       8.478   1.709  18.874  1.00  0.00     0.044 A
HETATM   33  C21 UNL     1       9.571   1.564  18.038  1.00  0.00     0.116 A
HETATM   34  F1  UNL     1      10.080   0.333  17.763  1.00  0.00    -0.206 F
HETATM   35  C22 UNL     1      10.129   2.706  17.490  1.00  0.00     0.044 A
HETATM   36  C23 UNL     1       9.615   3.960  17.766  1.00  0.00     0.024 A
ENDBRANCH  29  30
ENDBRANCH  27  28
ENDBRANCH  26  27
ENDBRANCH   7  26
BRANCH   6  37
HETATM   37  O6  UNL     1       5.938  10.754  21.602  1.00  0.00    -0.385 OA
HETATM   38  C13 UNL     1       6.196  11.570  20.533  1.00  0.00     0.202 C
ENDBRANCH   6  37
TORSDOF 10
ENDMDL