MODEL 2
REMARK VINA RESULT: -7.826471854      3.738      7.299
REMARK  9 active torsions:
REMARK  status: ('A' for Active; 'I' for Inactive)
REMARK    1  A    between atoms: O1_2  and  C2_3
REMARK    2  A    between atoms: C2_3  and  C3_4
REMARK    3  A    between atoms: C4_5  and  C5_6
REMARK    4  A    between atoms: C5_6  and  N1_7
REMARK    5  A    between atoms: C8_11  and  C9_12
REMARK    6  A    between atoms: C9_12  and  N2_13
REMARK       I    between atoms: N2_13  and  C10_14
REMARK    7  A    between atoms: C10_14  and  C11_16
REMARK    8  A    between atoms: C16_22  and  C17_23
REMARK       I    between atoms: C17_23  and  N3_25
REMARK    9  A    between atoms: C24_34  and  O5_35
ROOT
HETATM    1  C17 UNL     1       5.450   8.918  23.464  1.00  0.00     0.248 C
HETATM    2  O4  UNL     1       5.914   9.538  24.409  1.00  0.00    -0.271 OA
HETATM    3  N3  UNL     1       4.242   8.159  23.571  1.00  0.00    -0.316 N
HETATM    4  C18 UNL     1       3.445   8.084  24.774  1.00  0.00     0.196 C
HETATM    5  C19 UNL     1       3.499   9.337  25.535  1.00  0.00     0.085 C
HETATM    6  N4  UNL     1       3.558  10.303  26.141  1.00  0.00    -0.195 NA
HETATM    7  C20 UNL     1       2.035   7.836  24.271  1.00  0.00     0.043 C
HETATM    8  C21 UNL     1       2.129   7.696  22.765  1.00  0.00     0.043 C
HETATM    9  C22 UNL     1       3.588   7.353  22.587  1.00  0.00     0.196 C
HETATM   10  C23 UNL     1       3.747   5.937  22.989  1.00  0.00     0.085 C
HETATM   11  N5  UNL     1       3.881   4.830  23.279  1.00  0.00    -0.195 NA
ENDROOT
BRANCH   1  12
HETATM   12  C16 UNL     1       6.140   8.908  22.090  1.00  0.00     0.165 A
HETATM   13  C11 UNL     1       7.679   9.302  22.103  1.00  0.00     0.212 A
HETATM   14  O3  UNL     1       7.555  10.572  22.203  1.00  0.00    -0.365 OA
HETATM   15  C24 UNL     1       7.150   7.997  22.305  1.00  0.00     0.198 A
HETATM   16  C12 UNL     1       7.427  11.603  21.416  1.00  0.00     0.170 C
HETATM   17  C13 UNL     1       6.452  11.822  20.306  1.00  0.00     0.037 C
HETATM   18  C14 UNL     1       5.297  10.803  20.233  1.00  0.00     0.083 C
HETATM   19  C15 UNL     1       5.548   9.735  21.121  1.00  0.00    -0.157 C
BRANCH  13  20
HETATM   20  C10 UNL     1       8.558   9.065  20.913  1.00  0.00     0.331 C
HETATM   21  N2  UNL     1       8.462   7.822  20.336  1.00  0.00    -0.383 NA
HETATM   22  O2  UNL     1       9.345   9.906  20.436  1.00  0.00    -0.253 OA
BRANCH  21  23
HETATM   23  C9  UNL     1       8.377   6.581  19.747  1.00  0.00     0.198 C
BRANCH  23  24
HETATM   24  C8  UNL     1       7.376   6.366  18.650  1.00  0.00     0.311 C
HETATM   25  N1  UNL     1       7.035   5.052  18.300  1.00  0.00     0.115 N
HETATM   26  C6  UNL     1       5.741   5.517  17.898  1.00  0.00     0.314 C
HETATM   27  C7  UNL     1       5.942   6.650  18.924  1.00  0.00     0.238 C
HETATM   28  F1  UNL     1       5.419   6.247  20.118  1.00  0.00    -0.245 F
BRANCH  25  29
HETATM   29  C5  UNL     1       7.158   3.955  19.167  1.00  0.00     0.367 C
BRANCH  29  30
HETATM   30  C4  UNL     1       8.174   2.974  18.711  1.00  0.00    -0.074 C
HETATM   31  C3  UNL     1       9.012   2.198  18.332  1.00  0.00    -0.079 C
BRANCH  31  32
HETATM   32  C2  UNL     1      10.030   1.263  17.856  1.00  0.00     0.260 C
BRANCH  32  33
HETATM   33  O1  UNL     1       9.502   0.524  16.804  1.00  0.00    -0.384 OA
HETATM   34  C1  UNL     1      10.321  -0.619  16.657  1.00  0.00     0.202 C
ENDBRANCH  32  33
ENDBRANCH  31  32
ENDBRANCH  29  30
ENDBRANCH  25  29
ENDBRANCH  23  24
ENDBRANCH  21  23
ENDBRANCH  13  20
BRANCH  15  35
HETATM   35  O5  UNL     1       7.664   7.490  23.496  1.00  0.00    -0.390 OA
ATOM     36  H5  UNL     1       7.145   6.736  23.753  1.00  0.00     0.210 HD
ENDBRANCH  15  35
ENDBRANCH   1  12
TORSDOF 9
ENDMDL