MODEL 3
REMARK VINA RESULT: -7.693545761      2.244      3.190
REMARK  7 active torsions:
REMARK  status: ('A' for Active; 'I' for Inactive)
REMARK    1  A    between atoms: O1_2  and  C2_3
REMARK    2  A    between atoms: C2_3  and  C3_5
REMARK    3  A    between atoms: C3_5  and  N1_7
REMARK    4  A    between atoms: C3_5  and  C15_28
REMARK       I    between atoms: N1_7  and  C5_9
REMARK    5  A    between atoms: C5_9  and  C6_11
REMARK    6  A    between atoms: C10_20  and  N3_21
REMARK    7  A    between atoms: C15_28  and  C16_30
ROOT
HETATM    1  C6  UNL     1       7.807   6.882  20.628  1.00  0.00     0.193 C
HETATM    2  N2  UNL     1       6.670   6.527  21.390  1.00  0.00    -0.301 N
ATOM      3  H2  UNL     1       6.458   6.976  22.281  1.00  0.00     0.173 HD
HETATM    4  S1  UNL     1       5.676   5.311  20.745  1.00  0.00     0.260 S
HETATM    5  O4  UNL     1       5.018   4.589  21.906  1.00  0.00    -0.200 OA
HETATM    6  O5  UNL     1       4.561   5.838  19.897  1.00  0.00    -0.200 OA
HETATM    7  C7  UNL     1       6.722   4.237  19.855  1.00  0.00     0.086 A
HETATM    8  C8  UNL     1       6.566   2.873  19.796  1.00  0.00     0.028 A
HETATM    9  C9  UNL     1       7.454   2.077  19.059  1.00  0.00     0.037 A
HETATM   10  C10 UNL     1       8.494   2.672  18.387  1.00  0.00     0.103 A
HETATM   11  C11 UNL     1       8.627   4.037  18.464  1.00  0.00     0.045 A
HETATM   12  C12 UNL     1       7.763   4.842  19.184  1.00  0.00    -0.026 A
HETATM   13  C13 UNL     1       7.919   6.302  19.251  1.00  0.00     0.049 C
HETATM   14  C14 UNL     1       7.028   7.002  18.243  1.00  0.00     0.017 C
ENDROOT
BRANCH   1  15
HETATM   15  C5  UNL     1       7.920   8.372  20.613  1.00  0.00     0.243 C
HETATM   16  N1  UNL     1       6.783   9.208  20.462  1.00  0.00    -0.335 N
ATOM     17  H1  UNL     1       5.875   8.753  20.365  1.00  0.00     0.164 HD
HETATM   18  O3  UNL     1       9.060   8.931  20.737  1.00  0.00    -0.271 OA
BRANCH  16  19
HETATM   19  C3  UNL     1       6.806  10.648  20.436  1.00  0.00     0.179 C
HETATM   20  C4  UNL     1       7.410  11.068  21.787  1.00  0.00     0.058 C
BRANCH  19  21
HETATM   21  C2  UNL     1       7.705  11.211  19.413  1.00  0.00     0.294 C
HETATM   22  O2  UNL     1       7.604  10.767  18.234  1.00  0.00    -0.262 OA
BRANCH  21  23
HETATM   23  O1  UNL     1       8.643  12.179  19.627  1.00  0.00    -0.324 OA
HETATM   24  C1  UNL     1       8.484  13.484  19.063  1.00  0.00     0.213 C
ENDBRANCH  21  23
ENDBRANCH  19  21
BRANCH  19  25
HETATM   25  C15 UNL     1       5.445  11.178  20.409  1.00  0.00     0.174 C
HETATM   26  O8  UNL     1       5.292  12.342  20.070  1.00  0.00    -0.294 OA
BRANCH  25  27
HETATM   27  C16 UNL     1       4.215  10.433  20.758  1.00  0.00     0.166 C
HETATM   28 BR1  UNL     1       3.343   9.678  19.196  1.00  0.00    -0.088 Br
ENDBRANCH  25  27
ENDBRANCH  19  25
ENDBRANCH  16  19
ENDBRANCH   1  15
BRANCH  10  29
HETATM   29  N3  UNL     1       9.410   1.868  17.629  1.00  0.00    -0.116 N
HETATM   30  O6  UNL     1      10.174   1.087  18.221  1.00  0.00    -0.532 OA
HETATM   31  O7  UNL     1       9.477   1.929  16.262  1.00  0.00    -0.532 OA
ENDBRANCH  10  29
TORSDOF 7
ENDMDL