MODEL 2
REMARK VINA RESULT: -9.255045386      1.660      2.352
REMARK  8 active torsions:
REMARK  status: ('A' for Active; 'I' for Inactive)
REMARK    1  A    between atoms: C1_2  and  C2_3
REMARK    2  A    between atoms: C1_2  and  O4_20
REMARK    3  A    between atoms: C2_3  and  C3_4
REMARK    4  A    between atoms: C7_8  and  O2_9
REMARK    5  A    between atoms: O2_9  and  C8_10
REMARK    6  A    between atoms: C8_10  and  C9_12
REMARK    7  A    between atoms: O4_20  and  C14_21
REMARK    8  A    between atoms: C21_30  and  N3_31
ROOT
HETATM    1  C2  UNL     1       7.779   9.717  19.342  1.00  0.00     0.149 C
ENDROOT
BRANCH   1   2
HETATM    2  C1  UNL     1       7.130   8.620  18.588  1.00  0.00     0.265 C
HETATM    3  O1  UNL     1       6.385   8.939  17.600  1.00  0.00    -0.265 OA
BRANCH   2   4
HETATM    4  O4  UNL     1       7.263   7.290  18.860  1.00  0.00    -0.286 OA
BRANCH   4   5
HETATM    5  C14 UNL     1       6.337   6.268  18.518  1.00  0.00     0.311 C
HETATM    6  O5  UNL     1       6.690   5.643  17.321  1.00  0.00    -0.312 OA
HETATM    7  C15 UNL     1       7.752   4.803  17.418  1.00  0.00     0.236 C
HETATM    8  N2  UNL     1       7.688   3.831  18.480  1.00  0.00    -0.314 N
HETATM    9  C16 UNL     1       8.371   2.665  18.428  1.00  0.00     0.098 A
HETATM   10  C20 UNL     1       6.936   4.089  19.549  1.00  0.00     0.051 A
HETATM   11  C17 UNL     1       8.330   1.733  19.417  1.00  0.00     0.018 A
HETATM   12  C18 UNL     1       7.549   2.009  20.522  1.00  0.00     0.003 A
HETATM   13  C19 UNL     1       6.850   3.180  20.594  1.00  0.00     0.028 A
HETATM   14  C21 UNL     1       6.175   5.334  19.651  1.00  0.00     0.261 C
BRANCH  14  15
HETATM   15  N3  UNL     1       6.588   5.985  20.903  1.00  0.00    -0.140 N
HETATM   16  O6  UNL     1       7.762   6.006  21.305  1.00  0.00    -0.536 OA
HETATM   17  O7  UNL     1       5.591   6.590  21.633  1.00  0.00    -0.536 OA
ENDBRANCH  14  15
ENDBRANCH   4   5
ENDBRANCH   2   4
ENDBRANCH   1   2
BRANCH   1  18
HETATM   18  C3  UNL     1       7.886   9.501  20.788  1.00  0.00    -0.046 A
HETATM   19  C4  UNL     1       6.778   9.828  21.569  1.00  0.00     0.008 A
HETATM   20  C5  UNL     1       6.761   9.682  22.931  1.00  0.00     0.003 A
HETATM   21  C6  UNL     1       7.864   9.198  23.571  1.00  0.00     0.037 A
HETATM   22  C7  UNL     1       8.979   8.864  22.819  1.00  0.00     0.080 A
HETATM   23  C13 UNL     1       8.994   9.011  21.453  1.00  0.00     0.045 A
BRANCH  22  24
HETATM   24  O2  UNL     1      10.062   8.379  23.521  1.00  0.00    -0.275 OA
BRANCH  24  25
HETATM   25  C8  UNL     1      10.545   9.022  24.678  1.00  0.00     0.301 C
HETATM   26  O3  UNL     1      10.953  10.199  24.564  1.00  0.00    -0.259 OA
BRANCH  25  27
HETATM   27  C9  UNL     1      10.552   8.308  25.943  1.00  0.00     0.073 A
HETATM   28  C10 UNL     1       9.403   8.067  26.690  1.00  0.00     0.106 A
HETATM   29  N1  UNL     1       9.776   7.414  27.793  1.00  0.00    -0.373 N
HETATM   30  C11 UNL     1      11.111   7.220  27.796  1.00  0.00     0.107 A
ATOM     31  H1  UNL     1       9.141   7.104  28.530  1.00  0.00     0.164 HD
HETATM   32  C12 UNL     1      11.632   7.771  26.646  1.00  0.00     0.043 A
HETATM   33 BR1  UNL     1      13.407   7.856  26.012  1.00  0.00    -0.049 Br
ENDBRANCH  25  27
ENDBRANCH  24  25
ENDBRANCH  22  24
ENDBRANCH   1  18
TORSDOF 8
ENDMDL