MODEL 5
REMARK VINA RESULT: -7.849295804      6.803      8.122
REMARK  7 active torsions:
REMARK  status: ('A' for Active; 'I' for Inactive)
REMARK    1  A    between atoms: C2_2  and  C3_3
REMARK    2  A    between atoms: C3_3  and  N1_4
REMARK       I    between atoms: N2_7  and  C6_8
REMARK    3  A    between atoms: C6_8  and  C7_10
REMARK    4  A    between atoms: C7_10  and  C8_11
REMARK    5  A    between atoms: C16_20  and  C17_21
REMARK    6  A    between atoms: N3_24  and  C20_25
REMARK    7  A    between atoms: C27_35  and  O5_36
ROOT
HETATM    1  C8  UNL     1       8.224   5.241  19.513  1.00  0.00     0.000 C
HETATM    2  C9  UNL     1       8.216   3.804  19.908  1.00  0.00     0.045 C
HETATM    3  C10 UNL     1       7.180   3.137  18.998  1.00  0.00     0.208 C
HETATM    4  F1  UNL     1       5.891   3.363  19.467  1.00  0.00    -0.246 F
HETATM    5  C11 UNL     1       7.397   3.897  17.717  1.00  0.00     0.127 C
HETATM    6  C12 UNL     1       8.605   3.338  16.993  1.00  0.00     0.047 C
HETATM    7  C13 UNL     1       8.213   2.607  15.738  1.00  0.00     0.045 C
HETATM    8  C14 UNL     1       6.835   1.980  15.810  1.00  0.00     0.101 A
HETATM    9  C15 UNL     1       6.826   0.475  15.553  1.00  0.00     0.050 A
HETATM   10  C16 UNL     1       6.241   1.415  14.568  1.00  0.00     0.030 A
HETATM   11  O3  UNL     1       6.035   2.494  16.803  1.00  0.00    -0.228 OA
HETATM   12  O4  UNL     1       6.262   3.795  16.890  1.00  0.00    -0.226 OA
HETATM   13  C25 UNL     1       7.582   5.315  18.130  1.00  0.00     0.049 C
ENDROOT
BRANCH   1  14
HETATM   14  C7  UNL     1       7.470   6.164  20.419  1.00  0.00     0.108 C
BRANCH  14  15
HETATM   15  C6  UNL     1       8.152   7.416  20.753  1.00  0.00     0.220 C
HETATM   16  N2  UNL     1       8.006   8.151  21.961  1.00  0.00    -0.346 N
HETATM   17  C5  UNL     1       8.746   9.401  22.154  1.00  0.00     0.156 C
HETATM   18  C26 UNL     1       7.154   7.750  23.044  1.00  0.00     0.190 C
HETATM   19  C4  UNL     1       8.357   9.940  23.490  1.00  0.00     0.295 C
HETATM   20  N1  UNL     1       8.647   9.009  24.571  1.00  0.00     0.120 N
HETATM   21  C27 UNL     1       7.838   7.817  24.406  1.00  0.00     0.374 C
HETATM   22  O1  UNL     1       8.951   7.884  19.871  1.00  0.00    -0.273 OA
BRANCH  20  23
HETATM   23  C3  UNL     1      10.067   8.693  24.481  1.00  0.00     0.275 C
BRANCH  23  24
HETATM   24  C2  UNL     1      10.853   9.113  25.685  1.00  0.00     0.026 C
HETATM   25  C1  UNL     1      10.689   8.012  26.729  1.00  0.00     0.007 C
ENDBRANCH  23  24
ENDBRANCH  20  23
BRANCH  21  26
HETATM   26  O5  UNL     1       6.788   7.893  25.353  1.00  0.00    -0.366 OA
ATOM     27  H5  UNL     1       6.451   7.012  25.467  1.00  0.00     0.212 HD
ENDBRANCH  21  26
ENDBRANCH  14  15
ENDBRANCH   1  14
BRANCH  10  28
HETATM   28  C17 UNL     1       4.755   1.483  14.353  1.00  0.00    -0.004 C
HETATM   29  C18 UNL     1       3.984   0.285  14.756  1.00  0.00     0.035 C
HETATM   30  C19 UNL     1       3.871  -0.805  13.720  1.00  0.00     0.273 C
HETATM   31  N3  UNL     1       3.877  -0.397  12.379  1.00  0.00     0.097 N
HETATM   32  C23 UNL     1       3.444   0.975  12.264  1.00  0.00     0.273 C
HETATM   33  C24 UNL     1       4.378   1.922  12.976  1.00  0.00     0.035 C
BRANCH  31  34
HETATM   34  C20 UNL     1       4.986  -0.634  11.571  1.00  0.00     0.270 C
HETATM   35  C21 UNL     1       6.104  -1.489  12.023  1.00  0.00     0.205 C
HETATM   36  O2  UNL     1       5.486  -2.649  11.523  1.00  0.00    -0.387 OA
HETATM   37  C22 UNL     1       4.781  -1.820  10.651  1.00  0.00     0.205 C
ENDBRANCH  31  34
ENDBRANCH  10  28
TORSDOF 7
ENDMDL