MODEL 3
REMARK VINA RESULT: -7.636577865      1.480      1.746
REMARK  9 active torsions:
REMARK  status: ('A' for Active; 'I' for Inactive)
REMARK    1  A    between atoms: C3_4  and  O1_5
REMARK    2  A    between atoms: O1_5  and  C4_6
REMARK    3  A    between atoms: C4_6  and  C5_7
REMARK    4  A    between atoms: C6_8  and  C7_9
REMARK    5  A    between atoms: C7_9  and  C8_10
REMARK    6  A    between atoms: C8_10  and  N2_11
REMARK    7  A    between atoms: N2_11  and  C10_13
REMARK    8  A    between atoms: C10_13  and  C11_14
REMARK    9  A    between atoms: C11_14  and  O2_15
ROOT
HETATM    1  C1  UNL     1       4.905   7.896  17.930  1.00  0.00     0.041 C
HETATM    2  C2  UNL     1       5.556   6.760  17.959  1.00  0.00     0.042 C
HETATM    3  N1  UNL     1       6.536   6.357  18.925  1.00  0.00    -0.339 N
HETATM    4  C3  UNL     1       6.604   6.734  20.322  1.00  0.00     0.249 C
HETATM    5  C12 UNL     1       5.901   5.652  21.125  1.00  0.00     0.229 C
HETATM    6  O3  UNL     1       6.565   4.438  21.044  1.00  0.00    -0.346 OA
HETATM    7  C13 UNL     1       7.270   3.758  20.096  1.00  0.00     0.077 A
HETATM    8  C14 UNL     1       7.575   2.464  20.534  1.00  0.00     0.039 A
HETATM    9  C15 UNL     1       8.278   1.614  19.734  1.00  0.00     0.022 A
HETATM   10  C16 UNL     1       8.686   2.033  18.495  1.00  0.00     0.011 A
HETATM   11 BR1  UNL     1       9.671   0.840  17.383  1.00  0.00    -0.051 Br
HETATM   12  C17 UNL     1       8.379   3.323  18.061  1.00  0.00     0.031 A
HETATM   13  C18 UNL     1       7.671   4.195  18.852  1.00  0.00     0.005 A
HETATM   14  C19 UNL     1       7.471   5.482  18.224  1.00  0.00     0.172 C
HETATM   15  C20 UNL     1       6.937   5.335  16.858  1.00  0.00     0.060 C
HETATM   16  N3  UNL     1       7.069   4.968  15.648  1.00  0.00    -0.304 N
ATOM     17  H3  UNL     1       7.909   4.524  15.276  1.00  0.00     0.171 HD
HETATM   18  C21 UNL     1       5.915   5.245  14.879  1.00  0.00     0.366 C
HETATM   19  O4  UNL     1       5.724   4.993  13.656  1.00  0.00    -0.238 OA
HETATM   20  O5  UNL     1       5.024   5.855  15.746  1.00  0.00    -0.280 OA
HETATM   21  C22 UNL     1       5.454   5.636  17.024  1.00  0.00     0.150 C
HETATM   22  C23 UNL     1       4.735   4.447  17.663  1.00  0.00     0.060 C
ENDROOT
BRANCH   4  23
HETATM   23  O1  UNL     1       6.113   7.990  20.610  1.00  0.00    -0.353 OA
BRANCH  23  24
HETATM   24  C4  UNL     1       5.898   8.067  21.980  1.00  0.00     0.264 C
BRANCH  24  25
HETATM   25  C5  UNL     1       7.100   8.356  22.722  1.00  0.00    -0.080 C
HETATM   26  C6  UNL     1       8.117   8.589  23.327  1.00  0.00    -0.099 C
BRANCH  26  27
HETATM   27  C7  UNL     1       9.379   8.862  24.042  1.00  0.00     0.138 C
BRANCH  27  28
HETATM   28  C8  UNL     1       9.206   8.291  25.434  1.00  0.00     0.070 C
BRANCH  28  29
HETATM   29  N2  UNL     1      10.407   7.879  26.045  1.00  0.00    -0.395 N
HETATM   30  C9  UNL     1      10.317   7.180  27.277  1.00  0.00     0.148 C
BRANCH  29  31
HETATM   31  C10 UNL     1      11.579   8.638  25.810  1.00  0.00     0.147 C
BRANCH  31  32
HETATM   32  C11 UNL     1      12.811   7.892  26.255  1.00  0.00     0.183 C
BRANCH  32  33
HETATM   33  O2  UNL     1      13.632   7.565  25.163  1.00  0.00    -0.399 OA
ATOM     34  H2  UNL     1      13.352   6.756  24.751  1.00  0.00     0.209 HD
ENDBRANCH  32  33
ENDBRANCH  31  32
ENDBRANCH  29  31
ENDBRANCH  28  29
ENDBRANCH  27  28
ENDBRANCH  26  27
ENDBRANCH  24  25
ENDBRANCH  23  24
ENDBRANCH   4  23
TORSDOF 9
ENDMDL