MODEL 5
REMARK VINA RESULT: -9.253882435      1.718      2.435
REMARK  8 active torsions:
REMARK  status: ('A' for Active; 'I' for Inactive)
REMARK    1  A    between atoms: C3_6  and  S1_7
REMARK    2  A    between atoms: S1_7  and  O1_8
REMARK    3  A    between atoms: S1_7  and  N3_12
REMARK    4  A    between atoms: C7_16  and  C8_17
REMARK       I    between atoms: C8_17  and  N4_19
REMARK    5  A    between atoms: N4_19  and  C9_21
REMARK    6  A    between atoms: C9_21  and  C12_24
REMARK    7  A    between atoms: C12_24  and  O4_26
REMARK    8  A    between atoms: O4_26  and  C13_27
ROOT
HETATM    1  C8  UNL     1       4.657   7.126  21.505  1.00  0.00     0.224 C
HETATM    2  O2  UNL     1       3.572   6.471  21.634  1.00  0.00    -0.273 OA
HETATM    3  N4  UNL     1       5.448   6.872  20.337  1.00  0.00    -0.343 N
ATOM      4  H4  UNL     1       6.320   7.391  20.230  1.00  0.00     0.163 HD
ENDROOT
BRANCH   1   5
HETATM    5  C7  UNL     1       5.074   8.115  22.533  1.00  0.00     0.092 C
HETATM    6  C6  UNL     1       5.146   7.387  23.860  1.00  0.00     0.016 C
HETATM    7  C5  UNL     1       5.508   8.353  24.955  1.00  0.00     0.016 C
HETATM    8  C4  UNL     1       6.543   9.305  24.410  1.00  0.00     0.107 C
HETATM    9  N3  UNL     1       7.274   8.607  23.373  1.00  0.00    -0.212 NA
HETATM   10  C23 UNL     1       6.416   8.646  22.174  1.00  0.00     0.121 C
BRANCH   9  11
HETATM   11  S1  UNL     1       8.983   9.104  23.163  1.00  0.00     0.180 SA
HETATM   12  F1  UNL     1      10.498   9.323  22.691  1.00  0.00    -0.122 F
HETATM   13  F2  UNL     1       8.993   7.655  21.895  1.00  0.00    -0.122 F
BRANCH  11  14
HETATM   14  C3  UNL     1       9.486   8.318  24.962  1.00  0.00     0.151 A
HETATM   15  N2  UNL     1       8.683   7.670  25.762  1.00  0.00    -0.341 N
HETATM   16  C2  UNL     1       9.346   7.304  26.869  1.00  0.00     0.183 A
ATOM     17  H2  UNL     1       7.700   7.471  25.572  1.00  0.00     0.167 HD
HETATM   18  N1  UNL     1      10.590   7.742  26.738  1.00  0.00    -0.354 N
HETATM   19  C1  UNL     1      11.687   7.601  27.657  1.00  0.00     0.156 C
HETATM   20  C24 UNL     1      10.707   8.389  25.536  1.00  0.00     0.134 A
ENDBRANCH  11  14
BRANCH  11  21
HETATM   21  O1  UNL     1       8.553  10.627  22.982  1.00  0.00    -0.296 OA
ATOM     22  H1  UNL     1       8.158  10.956  22.184  1.00  0.00     0.231 HD
ENDBRANCH  11  21
ENDBRANCH   9  11
ENDBRANCH   1   5
BRANCH   3  23
HETATM   23  C9  UNL     1       5.098   5.940  19.313  1.00  0.00     0.113 C
HETATM   24  C10 UNL     1       4.836   4.599  19.988  1.00  0.00     0.049 C
HETATM   25  C11 UNL     1       3.856   6.314  18.535  1.00  0.00     0.049 C
BRANCH  23  26
HETATM   26  C12 UNL     1       6.195   5.770  18.291  1.00  0.00     0.287 C
HETATM   27  O3  UNL     1       6.771   6.792  17.865  1.00  0.00    -0.262 OA
BRANCH  26  28
HETATM   28  O4  UNL     1       6.584   4.536  17.815  1.00  0.00    -0.313 OA
BRANCH  28  29
HETATM   29  C13 UNL     1       7.905   4.223  17.425  1.00  0.00     0.140 C
HETATM   30  C14 UNL     1       7.855   2.862  16.762  1.00  0.00     0.016 C
HETATM   31  C15 UNL     1       7.224   1.871  17.739  1.00  0.00     0.012 C
HETATM   32  C19 UNL     1       9.237   2.332  16.442  1.00  0.00     0.012 C
HETATM   33  C16 UNL     1       8.041   1.796  19.007  1.00  0.00    -0.013 C
HETATM   34  C17 UNL     1       9.411   1.288  18.660  1.00  0.00     0.009 C
HETATM   35  C22 UNL     1       8.153   3.144  19.647  1.00  0.00     0.012 C
HETATM   36  C18 UNL     1      10.057   2.262  17.718  1.00  0.00    -0.013 C
HETATM   37  C20 UNL     1      10.127   3.651  18.291  1.00  0.00     0.012 C
HETATM   38  C21 UNL     1       8.754   4.133  18.651  1.00  0.00     0.016 C
ENDBRANCH  28  29
ENDBRANCH  26  28
ENDBRANCH  23  26
ENDBRANCH   3  23
TORSDOF 8
ENDMDL