MODEL 4
REMARK VINA RESULT: -6.994561939      2.736      5.377
REMARK  7 active torsions:
REMARK  status: ('A' for Active; 'I' for Inactive)
REMARK    1  A    between atoms: C2_2  and  O1_3
REMARK    2  A    between atoms: O1_3  and  C3_4
REMARK    3  A    between atoms: C8_10  and  N1_11
REMARK    4  A    between atoms: C15_22  and  O5_23
REMARK    5  A    between atoms: O5_23  and  C16_24
REMARK    6  A    between atoms: C18_27  and  C19_28
REMARK    7  A    between atoms: C20_29  and  C21_30
ROOT
HETATM    1  C3  UNL     1       5.936   8.855  24.511  1.00  0.00     0.151 C
HETATM    2  C4  UNL     1       5.862   7.346  24.576  1.00  0.00     0.200 C
HETATM    3  O2  UNL     1       4.750   6.772  24.076  1.00  0.00    -0.383 OA
HETATM    4  C5  UNL     1       4.076   7.319  23.048  1.00  0.00     0.127 C
HETATM    5  C6  UNL     1       4.047   8.854  23.036  1.00  0.00     0.041 C
HETATM    6  C7  UNL     1       5.514   9.260  23.111  1.00  0.00     0.043 C
HETATM    7  C8  UNL     1       6.345   8.604  22.035  1.00  0.00     0.107 C
HETATM    8  C14 UNL     1       5.525   7.813  21.062  1.00  0.00     0.047 C
HETATM    9  C15 UNL     1       6.247   6.501  20.622  1.00  0.00     0.146 C
HETATM   10  C18 UNL     1       5.423   5.717  21.566  1.00  0.00     0.045 C
HETATM   11  C23 UNL     1       4.503   6.934  21.665  1.00  0.00     0.033 C
ENDROOT
BRANCH   7  12
HETATM   12  N1  UNL     1       7.031   9.651  21.322  1.00  0.00    -0.303 N
HETATM   13  C9  UNL     1       6.372  10.549  20.568  1.00  0.00     0.108 A
HETATM   14  C10 UNL     1       7.060  11.550  19.890  1.00  0.00     0.022 A
HETATM   15  C11 UNL     1       6.307  12.533  19.060  1.00  0.00     0.056 C
HETATM   16  C12 UNL     1       8.439  11.627  19.989  1.00  0.00     0.256 A
HETATM   17  O3  UNL     1       9.073  12.530  19.379  1.00  0.00    -0.267 OA
HETATM   18  N2  UNL     1       9.062  10.701  20.761  1.00  0.00    -0.275 N
HETATM   19  C13 UNL     1       8.363   9.741  21.407  1.00  0.00     0.329 A
ATOM     20  H2  UNL     1      10.077  10.730  20.855  1.00  0.00     0.173 HD
HETATM   21  O4  UNL     1       8.988   8.908  22.108  1.00  0.00    -0.246 OA
ENDBRANCH   7  12
BRANCH   1  22
HETATM   22  O1  UNL     1       7.205   9.277  24.801  1.00  0.00    -0.384 OA
BRANCH  22  23
HETATM   23  C2  UNL     1       8.030   8.346  25.372  1.00  0.00     0.163 C
HETATM   24  C1  UNL     1       9.470   8.705  25.432  1.00  0.00     0.033 C
ENDBRANCH  22  23
ENDBRANCH   1  22
BRANCH   9  25
HETATM   25  O5  UNL     1       6.080   6.336  19.249  1.00  0.00    -0.315 OA
BRANCH  25  26
HETATM   26  C16 UNL     1       7.093   5.823  18.435  1.00  0.00     0.255 C
HETATM   27  C17 UNL     1       8.189   4.985  18.965  1.00  0.00     0.126 C
HETATM   28  O6  UNL     1       7.041   6.104  17.211  1.00  0.00    -0.266 OA
ENDBRANCH  25  26
ENDBRANCH   9  25
BRANCH  10  29
HETATM   29  C19 UNL     1       4.723   4.497  21.135  1.00  0.00    -0.019 C
HETATM   30  C20 UNL     1       4.867   3.284  21.569  1.00  0.00    -0.003 C
BRANCH  30  31
HETATM   31  C21 UNL     1       4.043   2.218  20.971  1.00  0.00     0.007 C
HETATM   32  C22 UNL     1       3.180   1.589  21.734  1.00  0.00     0.056 C
HETATM   33 BR1  UNL     1       2.095   0.204  20.998  1.00  0.00    -0.064 Br
ENDBRANCH  30  31
ENDBRANCH  10  29
TORSDOF 7
ENDMDL