MODEL 2
REMARK VINA RESULT: -7.071816002      3.268      6.444
REMARK  7 active torsions:
REMARK  status: ('A' for Active; 'I' for Inactive)
REMARK    1  A    between atoms: C3_3  and  O1_4
REMARK    2  A    between atoms: O1_4  and  C4_5
REMARK    3  A    between atoms: C4_5  and  C5_6
REMARK    4  A    between atoms: C5_6  and  O2_7
REMARK    5  A    between atoms: O2_7  and  C6_8
REMARK    6  A    between atoms: C14_18  and  O4_19
REMARK    7  A    between atoms: C20_28  and  C21_29
ROOT
HETATM    1  C1  UNL     1      10.111   1.270  18.291  1.00  0.00     0.014 C
HETATM    2  C2  UNL     1       9.033   1.569  18.724  1.00  0.00    -0.091 C
HETATM    3  C3  UNL     1       7.712   1.928  19.268  1.00  0.00     0.260 C
ENDROOT
BRANCH   3   4
HETATM    4  O1  UNL     1       7.857   2.579  20.493  1.00  0.00    -0.377 OA
BRANCH   4   5
HETATM    5  C4  UNL     1       6.664   2.586  21.201  1.00  0.00     0.195 C
BRANCH   5   6
HETATM    6  C5  UNL     1       5.838   3.755  20.639  1.00  0.00     0.195 C
BRANCH   6   7
HETATM    7  O2  UNL     1       6.584   4.865  20.802  1.00  0.00    -0.374 OA
BRANCH   7   8
HETATM    8  C6  UNL     1       6.275   5.972  20.010  1.00  0.00     0.110 A
HETATM    9  C7  UNL     1       4.982   6.351  19.759  1.00  0.00     0.102 A
HETATM   10  C8  UNL     1       4.428   7.076  18.607  1.00  0.00     0.149 C
HETATM   11  C24 UNL     1       5.547   6.994  20.918  1.00  0.00     0.044 A
HETATM   12  O3  UNL     1       4.442   6.588  17.463  1.00  0.00    -0.296 OA
HETATM   13  C9  UNL     1       3.850   8.403  18.819  1.00  0.00     0.131 C
HETATM   14 BR1  UNL     1       2.871   8.318  20.517  1.00  0.00    -0.083 Br
HETATM   15  C10 UNL     1       4.658   9.607  18.782  1.00  0.00     0.068 C
HETATM   16  C11 UNL     1       6.164   9.495  18.800  1.00  0.00     0.129 A
HETATM   17  C12 UNL     1       6.867  10.418  17.829  1.00  0.00     0.047 A
HETATM   18  C14 UNL     1       6.850  10.127  19.998  1.00  0.00     0.097 A
HETATM   19  O6  UNL     1       6.514   8.282  18.863  1.00  0.00    -0.226 OA
HETATM   20  C13 UNL     1       7.594  11.019  18.989  1.00  0.00     0.044 A
HETATM   21  C15 UNL     1       7.851   9.275  20.702  1.00  0.00     0.039 C
HETATM   22  C16 UNL     1       8.807   8.498  19.861  1.00  0.00     0.012 C
HETATM   23  C20 UNL     1       7.473   8.451  21.851  1.00  0.00     0.024 A
HETATM   24  C17 UNL     1       8.620   6.987  19.866  1.00  0.00     0.044 C
HETATM   25  C18 UNL     1       7.387   6.468  19.236  1.00  0.00     0.125 C
HETATM   26  C19 UNL     1       7.781   5.276  18.315  1.00  0.00     0.052 C
HETATM   27  O5  UNL     1       7.074   7.434  18.231  1.00  0.00    -0.226 OA
HETATM   28  C22 UNL     1       6.289   8.552  22.677  1.00  0.00     0.024 A
HETATM   29  C23 UNL     1       6.637   7.320  21.786  1.00  0.00     0.010 A
BRANCH  18  30
HETATM   30  O4  UNL     1       6.098  10.910  20.810  1.00  0.00    -0.386 OA
ATOM     31  H4  UNL     1       6.290  10.889  21.740  1.00  0.00     0.210 HD
ENDBRANCH  18  30
BRANCH  23  32
HETATM   32  C21 UNL     1       8.690   8.332  22.780  1.00  0.00     0.241 C
HETATM   33  O7  UNL     1       8.526   7.590  23.720  1.00  0.00    -0.306 OA
ENDBRANCH  23  32
ENDBRANCH   7   8
ENDBRANCH   6   7
ENDBRANCH   5   6
ENDBRANCH   4   5
ENDBRANCH   3   4
TORSDOF 7
ENDMDL