MODEL 4
REMARK VINA RESULT: -7.787964282      1.927      2.752
REMARK  6 active torsions:
REMARK  status: ('A' for Active; 'I' for Inactive)
REMARK    1  A    between atoms: O1_2  and  C2_3
REMARK    2  A    between atoms: C5_7  and  S1_8
REMARK    3  A    between atoms: C8_13  and  O4_14
REMARK    4  A    between atoms: O4_14  and  C9_15
REMARK    5  A    between atoms: C14_20  and  N1_21
REMARK    6  A    between atoms: N1_21  and  S2_23
ROOT
HETATM    1  C9  UNL     1       7.459   6.419  18.558  1.00  0.00     0.104 A
HETATM    2  C10 UNL     1       8.446   5.356  18.677  1.00  0.00     0.047 A
HETATM    3  C11 UNL     1       8.357   4.223  17.963  1.00  0.00    -0.039 A
HETATM    4  C12 UNL     1       7.303   4.062  17.092  1.00  0.00     0.040 A
HETATM    5  C13 UNL     1       6.360   5.042  16.959  1.00  0.00     0.050 A
HETATM    6  C14 UNL     1       6.420   6.241  17.689  1.00  0.00     0.079 A
HETATM    7  C17 UNL     1       7.059   2.911  16.252  1.00  0.00     0.252 C
HETATM    8  O7  UNL     1       5.840   2.811  15.890  1.00  0.00    -0.268 OA
HETATM    9  N2  UNL     1       7.957   1.914  15.791  1.00  0.00    -0.356 N
ATOM     10  H2  UNL     1       7.649   1.302  15.035  1.00  0.00     0.162 HD
HETATM   11  C18 UNL     1       9.298   1.714  16.338  1.00  0.00     0.132 C
HETATM   12  C19 UNL     1       9.235   1.886  17.863  1.00  0.00    -0.028 C
HETATM   13  C20 UNL     1      10.402   1.056  18.409  1.00  0.00     0.016 C
HETATM   14  C21 UNL     1       7.987   1.315  18.456  1.00  0.00     0.016 C
HETATM   15  C22 UNL     1       9.498   3.302  18.277  1.00  0.00     0.050 C
ENDROOT
BRANCH   1  16
HETATM   16  O4  UNL     1       7.668   7.447  19.302  1.00  0.00    -0.306 OA
BRANCH  16  17
HETATM   17  C8  UNL     1       7.877   8.482  20.050  1.00  0.00     0.111 A
HETATM   18  C2  UNL     1       8.019   9.805  19.718  1.00  0.00     0.105 A
HETATM   19  C3  UNL     1       8.244  10.782  20.688  1.00  0.00     0.083 A
HETATM   20  C4  UNL     1       8.332  10.468  22.016  1.00  0.00     0.140 A
HETATM   21  F1  UNL     1       8.550  11.398  22.977  1.00  0.00    -0.204 F
HETATM   22  C5  UNL     1       8.199   9.157  22.413  1.00  0.00     0.100 A
HETATM   23  C7  UNL     1       7.983   8.225  21.474  1.00  0.00     0.066 A
BRANCH  18  24
HETATM   24  O1  UNL     1       7.944  10.214  18.408  1.00  0.00    -0.353 OA
HETATM   25  C1  UNL     1       6.835  10.907  17.891  1.00  0.00     0.210 C
ENDBRANCH  18  24
BRANCH  22  26
HETATM   26  S1  UNL     1       8.317   8.736  24.137  1.00  0.00     0.174 S
HETATM   27  C6  UNL     1       9.879   9.229  24.804  1.00  0.00     0.167 C
HETATM   28  O2  UNL     1       7.230   9.485  24.845  1.00  0.00    -0.223 OA
HETATM   29  O3  UNL     1       8.101   7.245  24.287  1.00  0.00    -0.223 OA
ENDBRANCH  22  26
ENDBRANCH  16  17
ENDBRANCH   1  16
BRANCH   6  30
HETATM   30  N1  UNL     1       5.380   7.180  17.436  1.00  0.00    -0.278 N
HETATM   31  C15 UNL     1       5.445   7.928  16.199  1.00  0.00     0.169 C
BRANCH  30  32
HETATM   32  S2  UNL     1       4.113   7.505  18.531  1.00  0.00     0.228 S
HETATM   33  C16 UNL     1       3.953   6.116  19.678  1.00  0.00     0.186 C
HETATM   34  O5  UNL     1       4.471   8.687  19.379  1.00  0.00    -0.206 OA
HETATM   35  O6  UNL     1       2.767   7.657  17.872  1.00  0.00    -0.206 OA
ENDBRANCH  30  32
ENDBRANCH   6  30
TORSDOF 6
ENDMDL