MODEL 4
REMARK VINA RESULT: -8.158839308      2.790      7.297
REMARK  7 active torsions:
REMARK  status: ('A' for Active; 'I' for Inactive)
REMARK    1  A    between atoms: C6_10  and  N3_11
REMARK    2  A    between atoms: N4_14  and  C9_15
REMARK    3  A    between atoms: C9_15  and  C10_16
REMARK    4  A    between atoms: C10_16  and  O1_17
REMARK    5  A    between atoms: C10_16  and  C11_19
REMARK    6  A    between atoms: C11_19  and  N5_20
REMARK    7  A    between atoms: N6_24  and  C15_25
ROOT
HETATM    1  N1  UNL     1       6.450   2.489  21.243  1.00  0.00    -0.191 NA
HETATM    2  C1  UNL     1       7.241   2.474  20.373  1.00  0.00     0.103 C
HETATM    3  C2  UNL     1       8.221   2.431  19.330  1.00  0.00     0.089 A
HETATM    4  C3  UNL     1       8.997   1.279  19.166  1.00  0.00     0.047 A
HETATM    5  C4  UNL     1       9.956   1.194  18.182  1.00  0.00     0.028 A
HETATM    6 BR1  UNL     1      11.005  -0.380  17.950  1.00  0.00    -0.050 Br
HETATM    7  C5  UNL     1      10.108   2.311  17.366  1.00  0.00     0.108 A
HETATM    8  N2  UNL     1       9.371   3.418  17.513  1.00  0.00    -0.350 N
ATOM      9  H2  UNL     1       9.523   4.209  16.887  1.00  0.00     0.166 HD
HETATM   10  C6  UNL     1       8.415   3.506  18.491  1.00  0.00     0.124 A
ENDROOT
BRANCH  10  11
HETATM   11  N3  UNL     1       7.619   4.662  18.628  1.00  0.00    -0.363 N
HETATM   12  C7  UNL     1       7.858   5.688  19.626  1.00  0.00     0.154 C
HETATM   13  C8  UNL     1       6.642   5.926  20.451  1.00  0.00     0.292 C
HETATM   14  N4  UNL     1       5.369   5.766  19.822  1.00  0.00     0.094 N
HETATM   15  C23 UNL     1       5.260   4.989  18.664  1.00  0.00     0.292 C
HETATM   16  C24 UNL     1       6.485   4.896  17.790  1.00  0.00     0.154 C
BRANCH  14  17
HETATM   17  C9  UNL     1       4.515   5.184  20.871  1.00  0.00     0.305 C
BRANCH  17  18
HETATM   18  C10 UNL     1       4.951   5.485  22.278  1.00  0.00     0.174 C
BRANCH  18  19
HETATM   19  O1  UNL     1       4.678   4.433  23.114  1.00  0.00    -0.392 OA
ATOM     20  H1  UNL     1       4.471   3.648  22.620  1.00  0.00     0.210 HD
ENDBRANCH  18  19
BRANCH  18  21
HETATM   21  C11 UNL     1       4.391   6.800  22.681  1.00  0.00     0.305 C
BRANCH  21  22
HETATM   22  N5  UNL     1       5.237   7.790  23.247  1.00  0.00     0.092 N
HETATM   23  C12 UNL     1       5.984   8.359  22.135  1.00  0.00     0.274 C
HETATM   24  C13 UNL     1       6.518   9.711  22.371  1.00  0.00     0.060 C
HETATM   25  C14 UNL     1       7.784   9.823  23.151  1.00  0.00     0.275 C
HETATM   26  N6  UNL     1       7.718   9.171  24.461  1.00  0.00     0.094 N
HETATM   27  C21 UNL     1       7.449   7.727  24.219  1.00  0.00     0.303 C
HETATM   28  C22 UNL     1       5.991   7.398  24.375  1.00  0.00     0.302 C
BRANCH  26  29
HETATM   29  C15 UNL     1       9.041   9.247  25.050  1.00  0.00     0.223 C
HETATM   30  C16 UNL     1       9.225   8.134  26.055  1.00  0.00     0.036 C
HETATM   31  C17 UNL     1      10.599   7.839  26.480  1.00  0.00     0.002 C
HETATM   32  C18 UNL     1      11.740   8.364  25.712  1.00  0.00     0.000 C
HETATM   33  C19 UNL     1      11.391   9.244  24.547  1.00  0.00     0.002 C
HETATM   34  C20 UNL     1      10.050   8.885  23.949  1.00  0.00     0.036 C
ENDBRANCH  26  29
ENDBRANCH  21  22
ENDBRANCH  18  21
ENDBRANCH  17  18
ENDBRANCH  14  17
ENDBRANCH  10  11
TORSDOF 7
ENDMDL