MODEL 3
REMARK VINA RESULT: -9.964006366      0.852      1.623
REMARK  7 active torsions:
REMARK  status: ('A' for Active; 'I' for Inactive)
REMARK    1  A    between atoms: C2_2  and  C3_3
REMARK    2  A    between atoms: C5_5  and  N1_6
REMARK    3  A    between atoms: N1_6  and  C6_8
REMARK    4  A    between atoms: C14_20  and  C15_21
REMARK    5  A    between atoms: C15_21  and  N4_22
REMARK    6  A    between atoms: N6_30  and  C20_31
REMARK    7  A    between atoms: C20_31  and  C21_32
ROOT
HETATM    1  C15 UNL     1       5.715   7.771  21.698  1.00  0.00     0.133 C
ENDROOT
BRANCH   1   2
HETATM    2  C14 UNL     1       6.882   8.212  22.435  1.00  0.00    -0.008 A
HETATM    3  C3  UNL     1       8.159   8.337  22.014  1.00  0.00    -0.023 A
HETATM    4  C4  UNL     1       9.202   8.765  22.866  1.00  0.00     0.042 A
HETATM    5  C5  UNL     1       8.932   9.073  24.171  1.00  0.00     0.050 A
HETATM    6  C12 UNL     1       7.656   8.963  24.638  1.00  0.00     0.031 A
HETATM    7  C13 UNL     1       6.678   8.550  23.799  1.00  0.00     0.016 A
BRANCH   3   8
HETATM    8  C2  UNL     1       8.593   8.067  20.635  1.00  0.00     0.002 C
HETATM    9  C1  UNL     1       8.708   9.061  19.777  1.00  0.00     0.012 C
ENDBRANCH   3   8
BRANCH   5  10
HETATM   10  N1  UNL     1       9.991   9.498  25.007  1.00  0.00    -0.192 N
ATOM     11  H1  UNL     1      10.168  10.500  25.074  1.00  0.00     0.184 HD
BRANCH  10  12
HETATM   12  C6  UNL     1      10.745   8.712  25.686  1.00  0.00     0.683 A
HETATM   13  N2  UNL     1      10.150   7.783  26.476  1.00  0.00    -0.196 N
HETATM   14  C7  UNL     1      10.885   6.926  27.215  1.00  0.00     0.024 A
ATOM     15  H2  UNL     1       9.132   7.732  26.510  1.00  0.00     0.184 HD
HETATM   16  C8  UNL     1      10.178   5.927  28.064  1.00  0.00     0.068 C
HETATM   17  C9  UNL     1      12.255   6.975  27.188  1.00  0.00     0.050 A
HETATM   18  C10 UNL     1      12.856   7.925  26.380  1.00  0.00     0.024 A
HETATM   19  C11 UNL     1      14.351   7.984  26.344  1.00  0.00     0.068 C
HETATM   20  N3  UNL     1      12.083   8.756  25.662  1.00  0.00    -0.196 N
ATOM     21  H3  UNL     1      12.536   9.453  25.071  1.00  0.00     0.184 HD
ENDBRANCH  10  12
ENDBRANCH   5  10
ENDBRANCH   1   2
BRANCH   1  22
HETATM   22  N4  UNL     1       5.469   6.373  21.520  1.00  0.00    -0.206 N
HETATM   23  C16 UNL     1       4.767   5.689  22.467  1.00  0.00     0.336 A
HETATM   24  O1  UNL     1       4.400   6.237  23.563  1.00  0.00    -0.260 OA
HETATM   25  C17 UNL     1       4.455   4.384  22.221  1.00  0.00     0.331 A
HETATM   26  O2  UNL     1       3.804   3.748  23.104  1.00  0.00    -0.261 OA
HETATM   27  N5  UNL     1       4.793   3.716  21.100  1.00  0.00    -0.145 N
HETATM   28  C18 UNL     1       4.503   2.328  20.950  1.00  0.00     0.179 C
HETATM   29  C19 UNL     1       5.485   4.411  20.163  1.00  0.00     0.711 A
HETATM   30  N6  UNL     1       5.923   4.036  18.957  1.00  0.00    -0.186 N
HETATM   31  N7  UNL     1       5.801   5.729  20.415  1.00  0.00    -0.086 N
HETATM   32  C27 UNL     1       6.550   5.123  18.389  1.00  0.00     0.129 A
HETATM   33  C28 UNL     1       6.454   6.122  19.295  1.00  0.00     0.153 A
BRANCH  30  34
HETATM   34  C20 UNL     1       5.766   2.843  18.169  1.00  0.00     0.185 C
BRANCH  34  35
HETATM   35  C21 UNL     1       7.113   2.180  18.011  1.00  0.00    -0.039 A
HETATM   36  C22 UNL     1       7.855   1.982  19.182  1.00  0.00     0.012 A
HETATM   37  C23 UNL     1       9.101   1.397  19.210  1.00  0.00     0.043 A
HETATM   38  C24 UNL     1       9.646   0.978  17.999  1.00  0.00     0.116 A
HETATM   39  F1  UNL     1      10.871   0.403  18.034  1.00  0.00    -0.206 F
HETATM   40  C25 UNL     1       8.932   1.164  16.845  1.00  0.00     0.043 A
HETATM   41  C26 UNL     1       7.668   1.764  16.854  1.00  0.00     0.012 A
ENDBRANCH  34  35
ENDBRANCH  30  34
ENDBRANCH   1  22
TORSDOF 7
ENDMDL