MODEL 5
REMARK VINA RESULT: -7.315216671      2.015      3.878
REMARK  6 active torsions:
REMARK  status: ('A' for Active; 'I' for Inactive)
REMARK    1  A    between atoms: O1_2  and  C2_3
REMARK    2  A    between atoms: C7_8  and  O2_9
REMARK    3  A    between atoms: C9_11  and  C10_12
REMARK    4  A    between atoms: N1_14  and  N2_15
REMARK    5  A    between atoms: N2_15  and  C12_16
REMARK    6  A    between atoms: N3_27  and  C20_28
ROOT
HETATM    1  C20 UNL     1       3.629   7.301  17.606  1.00  0.00     0.256 C
HETATM    2  C21 UNL     1       2.580   7.334  18.594  1.00  0.00     0.079 C
HETATM    3  N4  UNL     1       1.714   7.345  19.383  1.00  0.00    -0.196 NA
ENDROOT
BRANCH   1   4
HETATM    4  N3  UNL     1       4.836   8.034  18.046  1.00  0.00    -0.299 N
HETATM    5  C9  UNL     1       6.059   7.532  18.538  1.00  0.00     0.065 C
HETATM    6  C5  UNL     1       6.706   8.636  19.260  1.00  0.00     0.011 A
HETATM    7  C4  UNL     1       6.162   9.783  18.818  1.00  0.00     0.048 A
HETATM    8  C6  UNL     1       7.799   8.681  20.149  1.00  0.00     0.054 A
HETATM    9  C3  UNL     1       6.611  11.061  19.174  1.00  0.00     0.057 A
HETATM   10  C22 UNL     1       4.955   9.440  18.021  1.00  0.00     0.260 C
HETATM   11  C2  UNL     1       7.711  11.120  20.065  1.00  0.00     0.102 A
HETATM   12  C7  UNL     1       8.252   9.898  20.510  1.00  0.00     0.102 A
HETATM   13  O5  UNL     1       4.201  10.289  17.438  1.00  0.00    -0.267 OA
BRANCH   5  14
HETATM   14  C10 UNL     1       6.210   6.222  19.083  1.00  0.00     0.061 A
HETATM   15  C11 UNL     1       5.520   5.759  20.170  1.00  0.00     0.148 A
HETATM   16  N1  UNL     1       5.764   4.542  20.751  1.00  0.00    -0.198 N
HETATM   17  C13 UNL     1       6.757   3.726  20.214  1.00  0.00     0.083 A
HETATM   18  C14 UNL     1       7.002   2.474  20.754  1.00  0.00     0.035 A
HETATM   19  C18 UNL     1       7.458   4.160  19.121  1.00  0.00     0.046 A
HETATM   20  C15 UNL     1       7.956   1.663  20.185  1.00  0.00     0.021 A
HETATM   21  C16 UNL     1       8.676   2.070  19.089  1.00  0.00     0.012 A
HETATM   22 BR1  UNL     1       9.995   0.951  18.257  1.00  0.00    -0.051 Br
HETATM   23  C17 UNL     1       8.417   3.323  18.567  1.00  0.00     0.037 A
HETATM   24  C19 UNL     1       7.185   5.391  18.570  1.00  0.00     0.198 A
HETATM   25  O4  UNL     1       7.883   5.693  17.570  1.00  0.00    -0.286 OA
BRANCH  16  26
HETATM   26  N2  UNL     1       5.016   3.993  21.690  1.00  0.00    -0.290 NA
BRANCH  26  27
HETATM   27  C12 UNL     1       4.264   3.436  22.640  1.00  0.00     0.467 C
HETATM   28  O3  UNL     1       3.577   3.953  23.595  1.00  0.00    -0.266 OA
ENDBRANCH  26  27
ENDBRANCH  16  26
ENDBRANCH   5  14
BRANCH  11  29
HETATM   29  O1  UNL     1       8.162  12.269  20.423  1.00  0.00    -0.353 OA
HETATM   30  C1  UNL     1       8.498  13.510  20.544  1.00  0.00     0.210 C
ENDBRANCH  11  29
BRANCH  12  31
HETATM   31  O2  UNL     1       9.328   9.988  21.383  1.00  0.00    -0.353 OA
HETATM   32  C8  UNL     1       9.450   9.248  22.567  1.00  0.00     0.210 C
ENDBRANCH  12  31
ENDBRANCH   1   4
TORSDOF 6
ENDMDL