MODEL 2
REMARK VINA RESULT: -9.890561064      2.427      5.532
REMARK  9 active torsions:
REMARK  status: ('A' for Active; 'I' for Inactive)
REMARK    1  A    between atoms: N1_2  and  C2_3
REMARK    2  A    between atoms: N1_2  and  C17_29
REMARK    3  A    between atoms: C2_3  and  C3_4
REMARK    4  A    between atoms: N2_6  and  C5_7
REMARK    5  A    between atoms: C5_7  and  C6_8
REMARK    6  A    between atoms: C9_11  and  C10_12
REMARK    7  A    between atoms: C10_12  and  N3_13
REMARK    8  A    between atoms: N3_13  and  C11_15
REMARK    9  A    between atoms: C21_39  and  N12_40
ROOT
HETATM    1  C3  UNL     1       5.623  73.114  49.247  1.00  0.00     0.062 A
HETATM    2  C4  UNL     1       5.914  73.062  50.595  1.00  0.00     0.140 A
HETATM    3  N2  UNL     1       5.520  74.227  51.124  1.00  0.00    -0.283 N
HETATM    4  N7  UNL     1       5.018  74.940  50.136  1.00  0.00    -0.240 N
ATOM      5  H7  UNL     1       4.636  75.879  50.243  1.00  0.00     0.208 HD
HETATM    6  N8  UNL     1       5.069  74.294  49.002  1.00  0.00    -0.287 N
ATOM      7  H8  UNL     1       4.744  74.634  48.097  1.00  0.00     0.188 HD
ENDROOT
BRANCH   1   8
HETATM    8  C2  UNL     1       5.889  72.026  48.267  1.00  0.00     0.200 C
BRANCH   8   9
HETATM    9  N1  UNL     1       6.640  72.599  47.170  1.00  0.00    -0.216 N
HETATM   10  C1  UNL     1       5.924  72.839  45.929  1.00  0.00     0.169 C
BRANCH   9  11
HETATM   11  C17 UNL     1       8.011  72.904  47.329  1.00  0.00     0.683 A
HETATM   12  N9  UNL     1       8.644  72.519  48.474  1.00  0.00    -0.178 N
HETATM   13  C18 UNL     1       9.970  72.807  48.642  1.00  0.00     0.151 A
ATOM     14  H9  UNL     1       8.132  72.019  49.200  1.00  0.00     0.185 HD
HETATM   15  N10 UNL     1      10.621  72.400  49.840  1.00  0.00    -0.081 NA
HETATM   16  C19 UNL     1      10.664  73.481  47.662  1.00  0.00     0.119 A
HETATM   17  C20 UNL     1      11.995  73.775  47.819  1.00  0.00     0.277 A
HETATM   18  C22 UNL     1       9.994  73.855  46.520  1.00  0.00     0.155 A
HETATM   19  O1  UNL     1      12.637  73.444  48.860  1.00  0.00    -0.267 OA
HETATM   20  N11 UNL     1      12.615  74.442  46.812  1.00  0.00    -0.155 N
HETATM   21  C21 UNL     1      11.976  74.815  45.689  1.00  0.00     0.680 A
ATOM     22  H11 UNL     1      13.605  74.669  46.911  1.00  0.00     0.187 HD
HETATM   23  N13 UNL     1      10.666  74.512  45.561  1.00  0.00    -0.175 N
ATOM     24  H13 UNL     1      10.172  74.791  44.712  1.00  0.00     0.186 HD
HETATM   25  N14 UNL     1       8.670  73.565  46.358  1.00  0.00    -0.175 N
ATOM     26  H14 UNL     1       8.184  73.846  45.507  1.00  0.00     0.186 HD
BRANCH  21  27
HETATM   27  N12 UNL     1      12.538  75.448  44.717  1.00  0.00    -0.234 N
ATOM     28 2H12 UNL     1      13.506  75.212  44.499  1.00  0.00     0.174 HD
ATOM     29 1H12 UNL     1      12.073  76.165  44.160  1.00  0.00     0.174 HD
ENDBRANCH  21  27
ENDBRANCH   9  11
ENDBRANCH   8   9
ENDBRANCH   1   8
BRANCH   3  30
HETATM   30  C5  UNL     1       5.637  74.614  52.512  1.00  0.00     0.188 C
BRANCH  30  31
HETATM   31  C6  UNL     1       7.006  74.280  53.041  1.00  0.00    -0.038 A
HETATM   32  C7  UNL     1       7.208  73.158  53.818  1.00  0.00     0.009 A
HETATM   33  C8  UNL     1       8.461  72.853  54.307  1.00  0.00     0.009 A
HETATM   34  C9  UNL     1       9.563  73.644  54.049  1.00  0.00    -0.041 A
HETATM   35  C15 UNL     1       9.360  74.765  53.273  1.00  0.00     0.009 A
HETATM   36  C16 UNL     1       8.104  75.071  52.783  1.00  0.00     0.009 A
BRANCH  34  37
HETATM   37  C10 UNL     1      10.905  73.280  54.601  1.00  0.00     0.159 C
BRANCH  37  38
HETATM   38  N3  UNL     1      11.869  73.073  53.566  1.00  0.00    -0.373 N
ATOM     39  H3  UNL     1      11.978  72.122  53.216  1.00  0.00     0.161 HD
BRANCH  38  40
HETATM   40  C11 UNL     1      12.684  74.070  52.985  1.00  0.00     0.116 C
HETATM   41  N4  UNL     1      12.563  74.362  51.711  1.00  0.00    -0.275 N
HETATM   42  N5  UNL     1      13.463  75.367  51.367  1.00  0.00    -0.029 NA
ATOM     43  H4  UNL     1      11.907  73.918  51.068  1.00  0.00     0.185 HD
HETATM   44  N6  UNL     1      13.817  76.016  52.565  1.00  0.00    -0.109 NA
HETATM   45  C12 UNL     1      13.734  74.935  53.510  1.00  0.00     0.100 C
HETATM   46  C13 UNL     1      13.505  75.426  54.920  1.00  0.00     0.043 C
HETATM   47  C14 UNL     1      15.100  74.254  53.516  1.00  0.00     0.043 C
ENDBRANCH  38  40
ENDBRANCH  37  38
ENDBRANCH  34  37
ENDBRANCH  30  31
ENDBRANCH   3  30
TORSDOF 9
ENDMDL