MODEL 5
REMARK VINA RESULT: -8.109235498      1.406      1.489
REMARK  12 active torsions:
REMARK  status: ('A' for Active; 'I' for Inactive)
REMARK    1  A    between atoms: C1_2  and  C2_4
REMARK    2  A    between atoms: C2_4  and  N2_5
REMARK    3  A    between atoms: C2_4  and  C3_9
REMARK    4  A    between atoms: C2_4  and  C11_25
REMARK       I    between atoms: C3_9  and  N3_11
REMARK    5  A    between atoms: N3_11  and  N4_13
REMARK    6  A    between atoms: C4_15  and  C5_16
REMARK    7  A    between atoms: C9_20  and  N5_21
REMARK    8  A    between atoms: N8_31  and  N9_33
REMARK    9  A    between atoms: C13_35  and  C14_36
REMARK   10  A    between atoms: C17_39  and  O5_40
REMARK   11  A    between atoms: C18_42  and  O6_43
REMARK   12  A    between atoms: C19_45  and  O7_46
ROOT
HETATM    1  C11 UNL     1      12.842  73.680  54.320  1.00  0.00     0.124 A
HETATM    2  N6  UNL     1      13.501  73.514  55.460  1.00  0.00    -0.292 N
ATOM      3  H6  UNL     1      13.029  73.102  56.264  1.00  0.00     0.187 HD
HETATM    4  N7  UNL     1      14.715  73.864  55.553  1.00  0.00    -0.278 N
ATOM      5  H7  UNL     1      15.224  73.739  56.427  1.00  0.00     0.189 HD
HETATM    6  C12 UNL     1      15.318  74.400  54.488  1.00  0.00     0.179 A
HETATM    7  N8  UNL     1      16.551  74.826  54.369  1.00  0.00    -0.279 N
ATOM      8  H8  UNL     1      16.886  75.219  53.490  1.00  0.00     0.189 HD
HETATM    9  S1  UNL     1      14.056  74.382  53.335  1.00  0.00    -0.033 SA
ENDROOT
BRANCH   1  10
HETATM   10  C2  UNL     1      11.415  73.341  53.992  1.00  0.00     0.330 C
BRANCH  10  11
HETATM   11  C1  UNL     1      10.599  73.951  55.081  1.00  0.00     0.284 C
HETATM   12  N1  UNL     1      10.960  75.156  55.744  1.00  0.00    -0.059 NA
HETATM   13  O1  UNL     1       9.511  73.423  55.495  1.00  0.00    -0.273 OA
ENDBRANCH  10  11
BRANCH  10  14
HETATM   14  N2  UNL     1      11.200  71.910  54.073  1.00  0.00    -0.046 N
ATOM     15  H23 UNL     1      12.024  71.362  53.823  1.00  0.00     0.276 HD
ATOM     16  H22 UNL     1      11.108  71.568  55.030  1.00  0.00     0.276 HD
ATOM     17  H21 UNL     1      10.387  71.708  53.491  1.00  0.00     0.276 HD
ENDBRANCH  10  14
BRANCH  10  18
HETATM   18  C3  UNL     1      11.037  73.828  52.654  1.00  0.00     0.288 C
HETATM   19  O2  UNL     1      10.614  74.987  52.507  1.00  0.00    -0.268 OA
HETATM   20  N3  UNL     1      11.157  72.975  51.537  1.00  0.00    -0.267 N
ATOM     21  H3  UNL     1      11.504  72.025  51.660  1.00  0.00     0.190 HD
BRANCH  20  22
HETATM   22  N4  UNL     1      10.799  73.430  50.250  1.00  0.00    -0.308 N
HETATM   23  C4  UNL     1      11.464  73.020  49.231  1.00  0.00     0.118 C
ATOM     24  H4  UNL     1      10.020  74.078  50.130  1.00  0.00     0.186 HD
BRANCH  23  25
HETATM   25  C5  UNL     1      11.100  73.485  47.905  1.00  0.00    -0.017 A
HETATM   26  C6  UNL     1      12.043  74.097  47.112  1.00  0.00     0.013 A
HETATM   27  C7  UNL     1      11.704  74.548  45.836  1.00  0.00     0.003 A
HETATM   28  C8  UNL     1      10.419  74.378  45.367  1.00  0.00     0.036 A
HETATM   29  C9  UNL     1       9.439  73.765  46.138  1.00  0.00     0.103 A
HETATM   30  C10 UNL     1       9.821  73.335  47.395  1.00  0.00     0.048 A
BRANCH  29  31
HETATM   31  N5  UNL     1       8.117  73.583  45.674  1.00  0.00    -0.116 N
HETATM   32  O3  UNL     1       7.465  74.553  45.282  1.00  0.00    -0.532 OA
HETATM   33  O4  UNL     1       7.570  72.338  45.662  1.00  0.00    -0.532 OA
ENDBRANCH  29  31
ENDBRANCH  23  25
ENDBRANCH  20  22
ENDBRANCH  10  18
ENDBRANCH   1  10
BRANCH   7  34
HETATM   34  N9  UNL     1      17.379  74.729  55.457  1.00  0.00    -0.309 N
HETATM   35  C13 UNL     1      18.204  73.746  55.555  1.00  0.00     0.121 C
ATOM     36  H9  UNL     1      17.342  75.437  56.190  1.00  0.00     0.186 HD
BRANCH  35  37
HETATM   37  C14 UNL     1      19.063  73.694  56.738  1.00  0.00     0.017 A
HETATM   38  C15 UNL     1      19.137  72.514  57.477  1.00  0.00     0.018 A
HETATM   39  C16 UNL     1      19.936  72.431  58.596  1.00  0.00     0.040 A
HETATM   40  C17 UNL     1      20.693  73.485  59.043  1.00  0.00     0.101 A
HETATM   41  C18 UNL     1      20.625  74.652  58.320  1.00  0.00     0.133 A
HETATM   42  C19 UNL     1      19.819  74.755  57.181  1.00  0.00     0.113 A
BRANCH  40  43
HETATM   43  O5  UNL     1      21.483  73.355  60.178  1.00  0.00    -0.358 OA
ATOM     44  H5  UNL     1      22.234  72.774  60.178  1.00  0.00     0.217 HD
ENDBRANCH  40  43
BRANCH  41  45
HETATM   45  O6  UNL     1      21.378  75.739  58.743  1.00  0.00    -0.356 OA
ATOM     46  H6  UNL     1      21.134  76.606  58.438  1.00  0.00     0.218 HD
ENDBRANCH  41  45
BRANCH  42  47
HETATM   47  O7  UNL     1      19.779  75.941  56.483  1.00  0.00    -0.357 OA
ATOM     48  H7  UNL     1      20.593  76.323  56.177  1.00  0.00     0.217 HD
ENDBRANCH  42  47
ENDBRANCH  35  37
ENDBRANCH   7  34
TORSDOF 12
ENDMDL