MODEL 2
REMARK VINA RESULT: -8.414184381      2.687      5.832
REMARK  12 active torsions:
REMARK  status: ('A' for Active; 'I' for Inactive)
REMARK    1  A    between atoms: N1_1  and  C1_4
REMARK    2  A    between atoms: C4_14  and  C5_15
REMARK    3  A    between atoms: C5_15  and  N5_16
REMARK    4  A    between atoms: C5_15  and  C11_33
REMARK    5  A    between atoms: N5_16  and  C6_18
REMARK    6  A    between atoms: C6_18  and  C7_19
REMARK    7  A    between atoms: C6_18  and  C10_25
REMARK    8  A    between atoms: C10_25  and  O3_26
REMARK    9  A    between atoms: C10_25  and  N7_28
REMARK   10  A    between atoms: N7_28  and  N8_30
REMARK   11  A    between atoms: C14_36  and  C15_37
REMARK   12  A    between atoms: C19_41  and  N9_42
ROOT
HETATM    1  C5  UNL     1      14.362  74.379  52.502  1.00  0.00     0.205 C
ENDROOT
BRANCH   1   2
HETATM    2  C4  UNL     1      13.558  75.519  53.084  1.00  0.00     0.142 A
HETATM    3  N4  UNL     1      14.089  76.411  53.935  1.00  0.00    -0.174 N
HETATM    4  C3  UNL     1      13.165  77.295  54.284  1.00  0.00     0.724 A
ATOM      5  H4  UNL     1      15.055  76.408  54.263  1.00  0.00     0.185 HD
HETATM    6  N3  UNL     1      13.203  78.372  55.106  1.00  0.00    -0.138 N
HETATM    7  N11 UNL     1      12.033  76.945  53.636  1.00  0.00     0.091 N
HETATM    8  C2  UNL     1      12.112  79.117  55.294  1.00  0.00     0.352 A
ATOM      9  H3  UNL     1      14.071  78.615  55.583  1.00  0.00     0.189 HD
HETATM   10  N2  UNL     1      10.982  78.792  54.665  1.00  0.00    -0.139 N
HETATM   11  O1  UNL     1      12.123  80.128  56.057  1.00  0.00    -0.246 OA
HETATM   12  C1  UNL     1      10.958  77.722  53.853  1.00  0.00     0.716 A
ATOM     13  H2  UNL     1      10.141  79.353  54.800  1.00  0.00     0.189 HD
HETATM   14  N10 UNL     1      12.290  75.857  52.906  1.00  0.00    -0.250 N
ATOM     15  H10 UNL     1      11.622  75.368  52.311  1.00  0.00     0.190 HD
BRANCH  12  16
HETATM   16  N1  UNL     1       9.869  77.423  53.258  1.00  0.00    -0.232 N
ATOM     17  H12 UNL     1       9.304  76.663  53.638  1.00  0.00     0.174 HD
ATOM     18  H11 UNL     1       9.600  77.952  52.429  1.00  0.00     0.174 HD
ENDBRANCH  12  16
ENDBRANCH   1   2
BRANCH   1  19
HETATM   19  N5  UNL     1      15.707  74.625  52.882  1.00  0.00    -0.391 N
ATOM     20  H5  UNL     1      16.170  75.501  52.640  1.00  0.00     0.155 HD
BRANCH  19  21
HETATM   21  C6  UNL     1      16.392  73.612  53.613  1.00  0.00     0.203 C
BRANCH  21  22
HETATM   22  C7  UNL     1      17.808  74.051  53.725  1.00  0.00     0.141 C
HETATM   23  N6  UNL     1      18.639  74.303  52.761  1.00  0.00    -0.370 N
HETATM   24  C8  UNL     1      19.930  74.706  53.253  1.00  0.00     0.148 C
ATOM     25  H6  UNL     1      18.405  74.225  51.771  1.00  0.00     0.161 HD
HETATM   26  C9  UNL     1      19.673  74.934  54.717  1.00  0.00     0.197 C
HETATM   27  O2  UNL     1      18.454  74.257  54.931  1.00  0.00    -0.336 OA
ENDBRANCH  21  22
BRANCH  21  28
HETATM   28  C10 UNL     1      15.852  73.261  54.957  1.00  0.00     0.262 C
BRANCH  28  29
HETATM   29  O3  UNL     1      15.718  74.401  55.774  1.00  0.00    -0.373 OA
ATOM     30  H3  UNL     1      14.886  74.837  55.629  1.00  0.00     0.212 HD
ENDBRANCH  28  29
BRANCH  28  31
HETATM   31  N7  UNL     1      16.425  72.174  55.653  1.00  0.00    -0.312 N
ATOM     32  H7  UNL     1      16.450  71.238  55.249  1.00  0.00     0.182 HD
BRANCH  31  33
HETATM   33  N8  UNL     1      16.952  72.433  56.909  1.00  0.00    -0.347 N
ATOM     34  H82 UNL     1      16.344  72.715  57.678  1.00  0.00     0.176 HD
ATOM     35  H81 UNL     1      17.960  72.330  57.021  1.00  0.00     0.176 HD
ENDBRANCH  31  33
ENDBRANCH  28  31
ENDBRANCH  21  28
ENDBRANCH  19  21
ENDBRANCH   1  19
BRANCH   1  36
HETATM   36  C11 UNL     1      14.162  74.329  51.033  1.00  0.00     0.083 A
HETATM   37  C12 UNL     1      15.174  74.432  50.100  1.00  0.00     0.038 A
HETATM   38  C13 UNL     1      14.591  74.341  48.831  1.00  0.00     0.040 A
HETATM   39  C14 UNL     1      13.249  74.188  49.087  1.00  0.00     0.086 A
HETATM   40  O6  UNL     1      13.033  74.185  50.371  1.00  0.00    -0.312 OA
BRANCH  39  41
HETATM   41  C15 UNL     1      12.232  74.050  48.030  1.00  0.00     0.000 A
HETATM   42  C16 UNL     1      12.445  74.550  46.764  1.00  0.00     0.014 A
HETATM   43  C17 UNL     1      11.522  74.441  45.751  1.00  0.00     0.003 A
HETATM   44  C18 UNL     1      10.332  73.805  46.009  1.00  0.00     0.036 A
HETATM   45  C19 UNL     1      10.087  73.289  47.277  1.00  0.00     0.103 A
HETATM   46  C20 UNL     1      11.032  73.413  48.273  1.00  0.00     0.050 A
BRANCH  45  47
HETATM   47  N9  UNL     1       8.852  72.623  47.560  1.00  0.00    -0.116 N
HETATM   48  O4  UNL     1       8.340  72.801  48.677  1.00  0.00    -0.532 OA
HETATM   49  O5  UNL     1       8.278  71.821  46.601  1.00  0.00    -0.532 OA
ENDBRANCH  45  47
ENDBRANCH  39  41
ENDBRANCH   1  36
TORSDOF 12
ENDMDL