MODEL 1
REMARK VINA RESULT: -6.491114847      0.000      0.000
REMARK  12 active torsions:
REMARK  status: ('A' for Active; 'I' for Inactive)
REMARK    1  A    between atoms: N2_8  and  C5_10
REMARK    2  A    between atoms: C5_10  and  C6_11
REMARK    3  A    between atoms: N3_14  and  C8_16
REMARK    4  A    between atoms: C8_16  and  C9_17
REMARK    5  A    between atoms: C9_17  and  N4_18
REMARK    6  A    between atoms: C9_17  and  C10_22
REMARK    7  A    between atoms: C12_30  and  C13_31
REMARK    8  A    between atoms: C13_31  and  C15_33
REMARK    9  A    between atoms: C13_31  and  C16_36
REMARK   10  A    between atoms: C15_33  and  O6_34
REMARK   11  A    between atoms: C16_36  and  O7_37
REMARK   12  A    between atoms: C17_39  and  O8_40
ROOT
HETATM    1  C1  UNL     1      12.304  74.230  45.741  1.00  0.00     0.160 C
HETATM    2  N1  UNL     1      11.890  73.955  47.154  1.00  0.00    -0.309 N
HETATM    3  C2  UNL     1      12.855  73.951  48.074  1.00  0.00     0.291 A
HETATM    4  O1  UNL     1      14.082  74.253  47.949  1.00  0.00    -0.259 OA
HETATM    5  S1  UNL     1      12.024  73.446  49.465  1.00  0.00    -0.022 SA
HETATM    6  C3  UNL     1      10.473  73.266  48.799  1.00  0.00     0.090 A
HETATM    7  C4  UNL     1       9.244  72.857  49.303  1.00  0.00     0.164 A
HETATM    8  N2  UNL     1       9.125  72.533  50.536  1.00  0.00    -0.363 N
ATOM      9  H2  UNL     1       9.950  72.614  51.130  1.00  0.00     0.162 HD
HETATM   10  O5  UNL     1       8.192  72.803  48.497  1.00  0.00    -0.293 OA
HETATM   11  C12 UNL     1       8.306  73.136  47.231  1.00  0.00     0.103 A
HETATM   12  C17 UNL     1       9.517  73.541  46.677  1.00  0.00     0.125 A
HETATM   13  C18 UNL     1      10.669  73.616  47.488  1.00  0.00     0.095 A
ENDROOT
BRANCH   8  14
HETATM   14  C5  UNL     1       7.928  72.070  51.130  1.00  0.00     0.190 C
BRANCH  14  15
HETATM   15  C6  UNL     1       7.069  73.186  51.609  1.00  0.00     0.108 A
HETATM   16  O2  UNL     1       6.712  74.308  51.050  1.00  0.00    -0.279 OA
HETATM   17  C7  UNL     1       5.881  75.004  51.827  1.00  0.00     0.229 A
HETATM   18  N3  UNL     1       5.301  76.076  51.659  1.00  0.00    -0.333 N
HETATM   19  N5  UNL     1       5.714  74.252  52.986  1.00  0.00    -0.314 N
ATOM     20  H3  UNL     1       4.751  76.298  52.489  1.00  0.00     0.168 HD
HETATM   21  C11 UNL     1       6.421  73.143  52.876  1.00  0.00     0.115 A
ATOM     22  H5  UNL     1       5.140  74.514  53.787  1.00  0.00     0.170 HD
HETATM   23  S2  UNL     1       6.611  71.807  54.057  1.00  0.00    -0.030 SA
BRANCH  18  24
HETATM   24  C8  UNL     1       5.147  77.073  50.729  1.00  0.00     0.108 C
BRANCH  24  25
HETATM   25  C9  UNL     1       5.533  78.445  51.264  1.00  0.00     0.321 C
BRANCH  25  26
HETATM   26  N4  UNL     1       4.964  79.494  50.433  1.00  0.00    -0.061 N
ATOM     27  H43 UNL     1       5.377  80.405  50.635  1.00  0.00     0.275 HD
ATOM     28  H42 UNL     1       5.256  79.407  49.460  1.00  0.00     0.275 HD
ATOM     29  H41 UNL     1       3.948  79.510  50.523  1.00  0.00     0.275 HD
ENDBRANCH  25  26
BRANCH  25  30
HETATM   30  C10 UNL     1       7.046  78.570  51.157  1.00  0.00     0.209 C
HETATM   31  O3  UNL     1       7.745  77.875  51.981  1.00  0.00    -0.646 OA
HETATM   32  O4  UNL     1       7.630  79.372  50.220  1.00  0.00    -0.646 OA
ENDBRANCH  25  30
ENDBRANCH  24  25
ENDBRANCH  18  24
ENDBRANCH  14  15
ENDBRANCH   8  14
BRANCH  11  33
HETATM   33  C13 UNL     1       7.063  73.072  46.469  1.00  0.00     0.051 C
HETATM   34  C14 UNL     1       7.152  71.919  45.470  1.00  0.00     0.027 C
BRANCH  33  35
HETATM   35  C15 UNL     1       6.400  74.210  45.899  1.00  0.00     0.182 C
BRANCH  35  36
HETATM   36  O6  UNL     1       6.959  74.889  44.834  1.00  0.00    -0.400 OA
ATOM     37  H6  UNL     1       7.324  75.758  44.953  1.00  0.00     0.209 HD
ENDBRANCH  35  36
ENDBRANCH  33  35
BRANCH  33  38
HETATM   38  C16 UNL     1       5.990  72.448  47.468  1.00  0.00     0.182 C
BRANCH  38  39
HETATM   39  O7  UNL     1       5.497  73.358  48.336  1.00  0.00    -0.400 OA
ATOM     40  H7  UNL     1       4.555  73.292  48.438  1.00  0.00     0.209 HD
ENDBRANCH  38  39
ENDBRANCH  33  38
ENDBRANCH  11  33
BRANCH  12  41
HETATM   41  O8  UNL     1       9.528  73.837  45.371  1.00  0.00    -0.356 OA
ATOM     42  H8  UNL     1       8.822  73.489  44.839  1.00  0.00     0.218 HD
ENDBRANCH  12  41
TORSDOF 12
ENDMDL