MODEL 4
REMARK VINA RESULT: -7.675441764      2.319      7.318
REMARK  15 active torsions:
REMARK  status: ('A' for Active; 'I' for Inactive)
REMARK    1  A    between atoms: C2_2  and  O1_3
REMARK    2  A    between atoms: C2_2  and  C3_5
REMARK    3  A    between atoms: C5_7  and  O2_8
REMARK    4  A    between atoms: N1_10  and  N2_11
REMARK    5  A    between atoms: N2_11  and  N3_13
REMARK    6  A    between atoms: N3_13  and  C6_14
REMARK    7  A    between atoms: C6_14  and  N4_15
REMARK    8  A    between atoms: C6_14  and  C13_26
REMARK    9  A    between atoms: C7_17  and  C8_18
REMARK   10  A    between atoms: C13_26  and  N7_27
REMARK   11  A    between atoms: C13_26  and  C14_31
REMARK   12  A    between atoms: C14_31  and  N8_32
REMARK   13  A    between atoms: C14_31  and  S1_36
REMARK   14  A    between atoms: N8_32  and  N9_33
REMARK   15  A    between atoms: S1_36  and  C15_39
ROOT
HETATM    1  C6  UNL     1      12.065  74.071  51.959  1.00  0.00     0.236 C
ENDROOT
BRANCH   1   2
HETATM    2  N3  UNL     1      12.428  74.201  50.559  1.00  0.00    -0.096 NA
BRANCH   2   3
HETATM    3  N2  UNL     1      12.015  73.145  49.782  1.00  0.00    -0.221 N
ATOM      4  H2  UNL     1      12.323  72.208  50.042  1.00  0.00     0.206 HD
BRANCH   3   5
HETATM    5  N1  UNL     1      11.200  73.282  48.659  1.00  0.00    -0.165 N
HETATM    6  C5  UNL     1      11.580  73.843  47.495  1.00  0.00     0.162 A
HETATM    7  C4  UNL     1      10.551  73.763  46.658  1.00  0.00     0.149 A
HETATM    8  C3  UNL     1       9.305  73.003  47.472  1.00  0.00     0.067 A
HETATM    9  N11 UNL     1      10.038  72.955  48.364  1.00  0.00    -0.278 N
ATOM     10  H11 UNL     1       9.590  72.502  49.160  1.00  0.00     0.189 HD
BRANCH   6  11
HETATM   11  O2  UNL     1      12.859  74.391  47.290  1.00  0.00    -0.347 OA
ATOM     12  H2  UNL     1      13.601  74.431  47.883  1.00  0.00     0.219 HD
ENDBRANCH   6  11
BRANCH   8  13
HETATM   13  C2  UNL     1       8.352  73.071  46.305  1.00  0.00     0.080 C
HETATM   14  C1  UNL     1       7.242  72.414  45.806  1.00  0.00     0.052 C
BRANCH  13  15
HETATM   15  O1  UNL     1       8.770  74.102  45.561  1.00  0.00    -0.359 OA
ATOM     16  H1  UNL     1       9.703  74.270  45.606  1.00  0.00     0.217 HD
ENDBRANCH  13  15
ENDBRANCH   8  13
ENDBRANCH   3   5
ENDBRANCH   2   3
ENDBRANCH   1   2
BRANCH   1  17
HETATM   17  N4  UNL     1      13.231  73.754  52.747  1.00  0.00    -0.377 N
HETATM   18  C7  UNL     1      14.294  74.490  52.738  1.00  0.00     0.099 C
ATOM     19  H4  UNL     1      13.216  72.919  53.333  1.00  0.00     0.160 HD
BRANCH  18  20
HETATM   20  C8  UNL     1      15.444  74.129  53.550  1.00  0.00     0.018 A
HETATM   21  C9  UNL     1      16.652  73.685  52.988  1.00  0.00     0.102 A
HETATM   22  N5  UNL     1      17.700  73.368  53.760  1.00  0.00    -0.374 N
HETATM   23  C10 UNL     1      17.680  73.446  55.096  1.00  0.00     0.089 A
ATOM     24  H5  UNL     1      18.557  73.051  53.307  1.00  0.00     0.164 HD
HETATM   25  C11 UNL     1      16.527  73.874  55.709  1.00  0.00     0.044 A
HETATM   26  C12 UNL     1      15.432  74.207  54.923  1.00  0.00     0.060 A
HETATM   27  N6  UNL     1      14.211  74.664  55.543  1.00  0.00    -0.101 NA
ENDBRANCH  18  20
ENDBRANCH   1  17
BRANCH   1  28
HETATM   28  C13 UNL     1      10.847  73.292  52.241  1.00  0.00     0.301 C
BRANCH  28  29
HETATM   29  N7  UNL     1      11.153  71.933  52.701  1.00  0.00    -0.064 N
ATOM     30  H73 UNL     1      11.767  71.948  53.516  1.00  0.00     0.275 HD
ATOM     31  H72 UNL     1      10.335  71.492  53.123  1.00  0.00     0.275 HD
ATOM     32  H71 UNL     1      11.542  71.352  51.958  1.00  0.00     0.275 HD
ENDBRANCH  28  29
BRANCH  28  33
HETATM   33  C14 UNL     1      10.068  73.908  53.386  1.00  0.00     0.240 C
BRANCH  33  34
HETATM   34  N8  UNL     1      10.610  74.752  54.122  1.00  0.00    -0.323 NA
BRANCH  34  35
HETATM   35  N9  UNL     1      11.142  75.544  54.911  1.00  0.00    -0.279 N
ATOM     36  H92 UNL     1      10.144  75.557  55.121  1.00  0.00     0.191 HD
ATOM     37  H91 UNL     1      11.635  76.182  55.536  1.00  0.00     0.191 HD
ENDBRANCH  34  35
ENDBRANCH  33  34
BRANCH  33  38
HETATM   38  S1  UNL     1       8.418  73.457  53.689  1.00  0.00     0.235 S
HETATM   39  O3  UNL     1       7.779  74.237  54.777  1.00  0.00    -0.215 OA
HETATM   40  O4  UNL     1       8.413  72.004  54.196  1.00  0.00    -0.215 OA
BRANCH  38  41
HETATM   41  C15 UNL     1       7.465  73.539  52.216  1.00  0.00     0.066 A
HETATM   42  C16 UNL     1       6.668  74.634  51.903  1.00  0.00     0.026 A
HETATM   43  C17 UNL     1       5.931  74.682  50.741  1.00  0.00     0.028 A
HETATM   44  C18 UNL     1       5.939  73.654  49.825  1.00  0.00     0.046 A
HETATM   45  N10 UNL     1       5.185  73.677  48.618  1.00  0.00    -0.102 NA
HETATM   46  C19 UNL     1       6.738  72.551  50.136  1.00  0.00     0.028 A
HETATM   47  C20 UNL     1       7.473  72.509  51.301  1.00  0.00     0.026 A
ENDBRANCH  38  41
ENDBRANCH  33  38
ENDBRANCH  28  33
ENDBRANCH   1  28
TORSDOF 15
ENDMDL