MODEL 3
REMARK VINA RESULT: -8.073452506      1.127      1.334
REMARK  12 active torsions:
REMARK  status: ('A' for Active; 'I' for Inactive)
REMARK    1  A    between atoms: C4_4  and  N1_5
REMARK    2  A    between atoms: N1_5  and  N2_7
REMARK       I    between atoms: N2_7  and  C5_9
REMARK    3  A    between atoms: C5_9  and  C6_11
REMARK    4  A    between atoms: C7_12  and  C8_13
REMARK    5  A    between atoms: C8_13  and  O2_14
REMARK    6  A    between atoms: C8_13  and  O3_16
REMARK    7  A    between atoms: N4_23  and  N5_24
REMARK    8  A    between atoms: C10_26  and  C11_27
REMARK    9  A    between atoms: C14_30  and  N6_31
REMARK   10  A    between atoms: C16_37  and  N7_38
REMARK   11  A    between atoms: N7_38  and  O9_39
REMARK   12  A    between atoms: N7_38  and  O10_41
ROOT
HETATM    1  C1  UNL     1      10.246  73.387  46.387  1.00  0.00     0.050 C
HETATM    2  C2  UNL     1       9.097  73.126  47.303  1.00  0.00    -0.027 A
HETATM    3  C3  UNL     1       9.261  72.890  48.647  1.00  0.00     0.060 A
HETATM    4  C4  UNL     1       8.216  72.649  49.500  1.00  0.00     0.145 A
HETATM    5  N4  UNL     1       6.969  72.644  48.996  1.00  0.00    -0.201 N
HETATM    6  C15 UNL     1       6.788  72.875  47.668  1.00  0.00     0.294 A
HETATM    7  O8  UNL     1       5.620  72.876  47.158  1.00  0.00    -0.264 OA
HETATM    8  C16 UNL     1       7.819  73.119  46.792  1.00  0.00     0.141 A
ENDROOT
BRANCH   4   9
HETATM    9  N1  UNL     1       8.409  72.400  50.884  1.00  0.00    -0.281 N
ATOM     10  H1  UNL     1       7.600  72.153  51.455  1.00  0.00     0.188 HD
BRANCH   9  11
HETATM   11  N2  UNL     1       9.668  72.480  51.500  1.00  0.00    -0.264 N
HETATM   12  C5  UNL     1      10.051  73.592  52.286  1.00  0.00     0.276 C
HETATM   13  O1  UNL     1       9.201  74.536  52.433  1.00  0.00    -0.266 OA
ATOM     14  H2  UNL     1      10.327  71.712  51.376  1.00  0.00     0.190 HD
BRANCH  12  15
HETATM   15  C6  UNL     1      11.345  73.693  52.921  1.00  0.00     0.110 A
HETATM   16  C7  UNL     1      12.488  74.225  52.330  1.00  0.00     0.149 A
HETATM   17  O4  UNL     1      13.498  74.120  53.184  1.00  0.00    -0.235 OA
HETATM   18  N3  UNL     1      13.124  73.570  54.275  1.00  0.00    -0.249 N
HETATM   19  C9  UNL     1      11.793  73.285  54.165  1.00  0.00     0.139 A
ATOM     20  H3  UNL     1      13.715  73.378  55.085  1.00  0.00     0.196 HD
HETATM   21  S1  UNL     1      10.954  72.555  55.353  1.00  0.00    -0.057 SA
BRANCH  16  22
HETATM   22  C8  UNL     1      12.672  74.823  51.013  1.00  0.00     0.316 C
BRANCH  22  23
HETATM   23  O2  UNL     1      14.062  75.101  50.887  1.00  0.00    -0.365 OA
ATOM     24  H2  UNL     1      14.258  75.083  49.957  1.00  0.00     0.213 HD
ENDBRANCH  22  23
BRANCH  22  25
HETATM   25  O3  UNL     1      12.420  73.880  49.999  1.00  0.00    -0.365 OA
ATOM     26  H3  UNL     1      11.684  74.152  49.464  1.00  0.00     0.213 HD
ENDBRANCH  22  25
ENDBRANCH  16  22
ENDBRANCH  12  15
ENDBRANCH   9  11
ENDBRANCH   4   9
BRANCH   5  27
HETATM   27  N5  UNL     1       5.837  72.413  49.722  1.00  0.00    -0.298 N
HETATM   28  C10 UNL     1       5.205  73.053  50.591  1.00  0.00     0.145 C
ATOM     29  H5  UNL     1       5.408  71.513  49.507  1.00  0.00     0.186 HD
BRANCH  28  30
HETATM   30  C11 UNL     1       5.456  74.337  51.175  1.00  0.00     0.095 A
HETATM   31  C12 UNL     1       5.494  74.697  52.490  1.00  0.00     0.043 A
HETATM   32  C13 UNL     1       5.780  76.073  52.544  1.00  0.00     0.065 A
HETATM   33  C14 UNL     1       5.898  76.460  51.238  1.00  0.00     0.215 A
HETATM   34  O7  UNL     1       5.706  75.434  50.457  1.00  0.00    -0.287 OA
BRANCH  33  35
HETATM   35  N6  UNL     1       6.191  77.797  50.792  1.00  0.00    -0.090 N
HETATM   36  O5  UNL     1       5.611  78.240  49.778  1.00  0.00    -0.530 OA
HETATM   37  O6  UNL     1       7.099  78.553  51.487  1.00  0.00    -0.530 OA
ENDBRANCH  33  35
ENDBRANCH  28  30
ENDBRANCH   5  27
BRANCH   8  38
HETATM   38  N7  UNL     1       7.610  73.363  45.404  1.00  0.00    -0.030 NA
BRANCH  38  39
HETATM   39  O9  UNL     1       6.814  72.405  44.874  1.00  0.00    -0.284 OA
ATOM     40  H9  UNL     1       7.236  72.005  44.122  1.00  0.00     0.240 HD
ENDBRANCH  38  39
BRANCH  38  41
HETATM   41  O10 UNL     1       6.993  74.552  45.198  1.00  0.00    -0.284 OA
ATOM     42  H10 UNL     1       7.172  74.890  44.328  1.00  0.00     0.240 HD
ENDBRANCH  38  41
ENDBRANCH   8  38
TORSDOF 12
ENDMDL