MODEL 4
REMARK VINA RESULT: -6.280835015      2.030      4.165
REMARK  14 active torsions:
REMARK  status: ('A' for Active; 'I' for Inactive)
REMARK    1  A    between atoms: C3_8  and  C4_9
REMARK    2  A    between atoms: C4_9  and  O1_10
REMARK    3  A    between atoms: C4_9  and  N3_12
REMARK    4  A    between atoms: N3_12  and  N4_14
REMARK    5  A    between atoms: N4_14  and  C5_15
REMARK    6  A    between atoms: C5_15  and  C6_16
REMARK    7  A    between atoms: C5_15  and  C17_37
REMARK    8  A    between atoms: C7_18  and  C8_19
REMARK    9  A    between atoms: C8_19  and  C9_20
REMARK   10  A    between atoms: C8_19  and  N7_27
REMARK   11  A    between atoms: C14_30  and  C15_31
REMARK   12  A    between atoms: C16_34  and  O4_35
REMARK   13  A    between atoms: C17_37  and  N9_38
REMARK   14  A    between atoms: C17_37  and  N10_42
ROOT
HETATM    1  C5  UNL     1       9.977  72.972  51.195  1.00  0.00     0.202 C
ENDROOT
BRANCH   1   2
HETATM    2  N4  UNL     1       9.599  72.498  50.183  1.00  0.00    -0.321 NA
BRANCH   2   3
HETATM    3  N3  UNL     1       9.268  71.989  49.028  1.00  0.00    -0.211 N
ATOM      4  H3  UNL     1       9.231  70.973  48.945  1.00  0.00     0.204 HD
BRANCH   3   5
HETATM    5  C4  UNL     1       8.955  72.764  47.874  1.00  0.00     0.186 C
BRANCH   5   6
HETATM    6  C3  UNL     1       7.688  72.903  47.183  1.00  0.00     0.099 A
HETATM    7  C2  UNL     1       6.384  72.699  47.508  1.00  0.00     0.045 A
HETATM    8  C1  UNL     1       5.943  72.204  48.874  1.00  0.00     0.071 C
HETATM    9  N1  UNL     1       5.483  72.943  46.593  1.00  0.00    -0.298 N
HETATM   10  N2  UNL     1       5.832  73.362  45.427  1.00  0.00    -0.269 N
ATOM     11  H1  UNL     1       4.495  72.800  46.805  1.00  0.00     0.187 HD
HETATM   12  S1  UNL     1       7.500  73.450  45.522  1.00  0.00     0.008 SA
ATOM     13  H2  UNL     1       5.233  73.588  44.633  1.00  0.00     0.195 HD
ENDBRANCH   5   6
BRANCH   5  14
HETATM   14  O1  UNL     1       9.947  73.443  47.372  1.00  0.00    -0.344 OA
ATOM     15  H1  UNL     1      10.814  73.172  47.654  1.00  0.00     0.219 HD
ENDBRANCH   5  14
ENDBRANCH   3   5
ENDBRANCH   2   3
ENDBRANCH   1   2
BRANCH   1  16
HETATM   16  C6  UNL     1      11.343  73.553  51.412  1.00  0.00     0.152 A
HETATM   17  O2  UNL     1      11.836  74.029  52.499  1.00  0.00    -0.305 OA
HETATM   18  C7  UNL     1      13.066  74.459  52.348  1.00  0.00     0.100 A
HETATM   19  C14 UNL     1      13.402  74.235  51.012  1.00  0.00     0.097 A
HETATM   20  C16 UNL     1      12.309  73.656  50.405  1.00  0.00     0.120 A
BRANCH  18  21
HETATM   21  C8  UNL     1      13.936  75.065  53.406  1.00  0.00     0.184 C
BRANCH  21  22
HETATM   22  C9  UNL     1      13.064  75.989  54.222  1.00  0.00     0.027 C
HETATM   23  C10 UNL     1      13.722  77.191  54.771  1.00  0.00     0.137 C
HETATM   24  S2  UNL     1      12.370  78.405  54.616  1.00  0.00    -0.091 SA
HETATM   25  C11 UNL     1      11.257  77.336  53.715  1.00  0.00     0.154 C
HETATM   26  N5  UNL     1       9.988  77.648  53.163  1.00  0.00    -0.075 NA
HETATM   27  N6  UNL     1      11.806  76.221  53.650  1.00  0.00    -0.343 N
ATOM     28  H6  UNL     1      11.330  75.458  53.169  1.00  0.00     0.167 HD
ENDBRANCH  21  22
BRANCH  21  29
HETATM   29  N7  UNL     1      14.602  74.057  54.077  1.00  0.00    -0.406 N
HETATM   30  C12 UNL     1      16.031  74.185  54.066  1.00  0.00     0.143 C
HETATM   31  C13 UNL     1      14.147  73.425  55.224  1.00  0.00     0.143 C
ENDBRANCH  21  29
ENDBRANCH  18  21
BRANCH  19  32
HETATM   32  C15 UNL     1      14.644  74.552  50.334  1.00  0.00     0.270 C
HETATM   33  N8  UNL     1      14.735  75.240  49.105  1.00  0.00    -0.057 NA
HETATM   34  O3  UNL     1      15.727  74.209  50.842  1.00  0.00    -0.271 OA
ENDBRANCH  19  32
BRANCH  20  35
HETATM   35  O4  UNL     1      12.107  73.237  49.118  1.00  0.00    -0.357 OA
ATOM     36  H4  UNL     1      12.173  73.811  48.364  1.00  0.00     0.218 HD
ENDBRANCH  20  35
ENDBRANCH   1  16
BRANCH   1  37
HETATM   37  C17 UNL     1       9.108  73.071  52.448  1.00  0.00     0.446 C
BRANCH  37  38
HETATM   38  N9  UNL     1       9.629  72.259  53.510  1.00  0.00    -0.043 N
ATOM     39  H93 UNL     1       9.179  71.344  53.538  1.00  0.00     0.277 HD
ATOM     40  H92 UNL     1      10.585  71.958  53.317  1.00  0.00     0.277 HD
ATOM     41  H91 UNL     1       9.562  72.736  54.410  1.00  0.00     0.277 HD
ENDBRANCH  37  38
BRANCH  37  42
HETATM   42  N10 UNL     1       8.967  74.416  52.896  1.00  0.00    -0.043 N
ATOM     43 3H10 UNL     1       8.524  74.456  53.813  1.00  0.00     0.277 HD
ATOM     44 2H10 UNL     1       9.871  74.823  53.136  1.00  0.00     0.277 HD
ATOM     45 1H10 UNL     1       8.469  74.995  52.218  1.00  0.00     0.277 HD
ENDBRANCH  37  42
ENDBRANCH   1  37
TORSDOF 14
ENDMDL