MODEL 1
REMARK VINA RESULT: -6.838925312      0.000      0.000
REMARK  12 active torsions:
REMARK  status: ('A' for Active; 'I' for Inactive)
REMARK    1  A    between atoms: S1_2  and  C2_3
REMARK    2  A    between atoms: C4_8  and  N3_9
REMARK    3  A    between atoms: N3_9  and  C5_11
REMARK    4  A    between atoms: C5_11  and  C6_12
REMARK    5  A    between atoms: C6_12  and  N4_13
REMARK    6  A    between atoms: C9_21  and  N5_22
REMARK    7  A    between atoms: N6_24  and  C10_26
REMARK    8  A    between atoms: C12_28  and  S2_29
REMARK    9  A    between atoms: S2_29  and  N7_30
REMARK   10  A    between atoms: C13_35  and  O5_36
REMARK   11  A    between atoms: C14_38  and  O6_39
REMARK   12  A    between atoms: C15_41  and  N8_42
ROOT
HETATM    1  N5  UNL     1      12.271  74.448  51.172  1.00  0.00    -0.294 N
ATOM      2  H5  UNL     1      11.670  75.253  50.995  1.00  0.00     0.187 HD
HETATM    3  N6  UNL     1      12.464  73.581  50.265  1.00  0.00    -0.298 N
ATOM      4  H6  UNL     1      13.071  72.787  50.471  1.00  0.00     0.187 HD
ENDROOT
BRANCH   1   5
HETATM    5  C9  UNL     1      12.900  74.287  52.434  1.00  0.00     0.136 C
HETATM    6  C2  UNL     1      12.038  73.929  53.457  1.00  0.00     0.103 C
HETATM    7  N1  UNL     1      12.250  74.130  54.777  1.00  0.00    -0.335 N
HETATM    8  C3  UNL     1      13.423  74.303  55.438  1.00  0.00     0.148 C
ATOM      9  H1  UNL     1      11.412  74.154  55.358  1.00  0.00     0.168 HD
HETATM   10  N2  UNL     1      13.360  74.641  56.819  1.00  0.00    -0.080 NA
HETATM   11  C4  UNL     1      14.714  74.198  54.959  1.00  0.00     0.124 C
HETATM   12  C7  UNL     1      15.088  74.397  53.630  1.00  0.00     0.253 C
HETATM   13  O1  UNL     1      16.318  74.497  53.405  1.00  0.00    -0.281 OA
HETATM   14  C8  UNL     1      14.283  74.502  52.509  1.00  0.00     0.254 C
HETATM   15  O2  UNL     1      14.811  74.822  51.416  1.00  0.00    -0.281 OA
BRANCH   6  16
HETATM   16  S1  UNL     1      10.510  73.127  52.988  1.00  0.00    -0.114 SA
HETATM   17  C1  UNL     1       9.112  74.248  52.950  1.00  0.00     0.097 C
ENDBRANCH   6  16
BRANCH  11  18
HETATM   18  N3  UNL     1      15.746  73.861  55.877  1.00  0.00    -0.382 N
ATOM     19  H3  UNL     1      16.119  74.605  56.467  1.00  0.00     0.160 HD
BRANCH  18  20
HETATM   20  C5  UNL     1      16.295  72.554  56.026  1.00  0.00     0.147 C
BRANCH  20  21
HETATM   21  C6  UNL     1      17.807  72.615  55.996  1.00  0.00     0.249 C
BRANCH  21  22
HETATM   22  N4  UNL     1      18.339  72.614  54.657  1.00  0.00    -0.078 N
ATOM     23  H43 UNL     1      18.469  71.662  54.317  1.00  0.00     0.274 HD
ATOM     24  H42 UNL     1      17.640  72.935  53.987  1.00  0.00     0.274 HD
ATOM     25  H41 UNL     1      19.201  73.154  54.574  1.00  0.00     0.274 HD
ENDBRANCH  21  22
ENDBRANCH  20  21
ENDBRANCH  18  20
ENDBRANCH  11  18
ENDBRANCH   1   5
BRANCH   3  26
HETATM   26  C10 UNL     1      11.876  73.667  48.985  1.00  0.00     0.085 A
HETATM   27  C11 UNL     1      10.578  73.270  48.774  1.00  0.00     0.062 A
HETATM   28  C12 UNL     1      10.013  73.360  47.514  1.00  0.00     0.117 A
HETATM   29  C13 UNL     1      10.745  73.849  46.450  1.00  0.00     0.125 A
HETATM   30  C14 UNL     1      12.051  74.244  46.685  1.00  0.00     0.136 A
HETATM   31  C15 UNL     1      12.645  74.166  47.936  1.00  0.00     0.166 A
BRANCH  28  32
HETATM   32  S2  UNL     1       8.372  72.862  47.221  1.00  0.00     0.259 S
HETATM   33  O3  UNL     1       8.349  71.521  46.504  1.00  0.00    -0.201 OA
HETATM   34  O4  UNL     1       7.635  73.852  46.371  1.00  0.00    -0.201 OA
BRANCH  32  35
HETATM   35  N7  UNL     1       7.541  72.708  48.717  1.00  0.00    -0.324 N
ATOM     36  H72 UNL     1       7.429  73.463  49.394  1.00  0.00     0.169 HD
ATOM     37  H71 UNL     1       7.185  71.758  48.814  1.00  0.00     0.169 HD
ENDBRANCH  32  35
ENDBRANCH  28  32
BRANCH  29  38
HETATM   38  O5  UNL     1      10.158  73.930  45.195  1.00  0.00    -0.356 OA
ATOM     39  H5  UNL     1       9.542  74.629  45.008  1.00  0.00     0.218 HD
ENDBRANCH  29  38
BRANCH  30  40
HETATM   40  O6  UNL     1      12.762  74.729  45.609  1.00  0.00    -0.356 OA
ATOM     41  H6  UNL     1      13.691  74.878  45.737  1.00  0.00     0.218 HD
ENDBRANCH  30  40
BRANCH  31  42
HETATM   42  N8  UNL     1      13.975  74.567  48.179  1.00  0.00    -0.110 N
HETATM   43  O7  UNL     1      14.197  75.515  48.938  1.00  0.00    -0.532 OA
HETATM   44  O8  UNL     1      15.016  73.920  47.586  1.00  0.00    -0.532 OA
ENDBRANCH  31  42
ENDBRANCH   3  26
TORSDOF 12
ENDMDL