MODEL 5
REMARK VINA RESULT: -8.562889287      3.094      8.782
REMARK  14 active torsions:
REMARK  status: ('A' for Active; 'I' for Inactive)
REMARK    1  A    between atoms: C2_2  and  O1_3
REMARK    2  A    between atoms: C2_2  and  C3_5
REMARK       I    between atoms: C3_5  and  N1_7
REMARK    3  A    between atoms: N1_7  and  N2_9
REMARK    4  A    between atoms: N2_9  and  N3_11
REMARK    5  A    between atoms: N3_11  and  C4_13
REMARK    6  A    between atoms: C7_16  and  C8_17
REMARK    7  A    between atoms: C8_17  and  C9_18
REMARK    8  A    between atoms: C9_18  and  N4_19
REMARK    9  A    between atoms: N4_19  and  C10_21
REMARK   10  A    between atoms: C11_24  and  N6_25
REMARK   11  A    between atoms: C12_29  and  C13_30
REMARK   12  A    between atoms: C18_41  and  N12_42
REMARK   13  A    between atoms: C19_47  and  N14_48
REMARK   14  A    between atoms: N15_51  and  N16_52
ROOT
HETATM    1  N4  UNL     1       5.737  72.374  49.390  1.00  0.00    -0.225 N
ATOM      2  H4  UNL     1       4.924  71.930  48.961  1.00  0.00     0.177 HD
ENDROOT
BRANCH   1   3
HETATM    3  C9  UNL     1       6.603  73.194  48.589  1.00  0.00     0.142 C
BRANCH   3   4
HETATM    4  C8  UNL     1       7.378  72.375  47.554  1.00  0.00     0.062 C
BRANCH   4   5
HETATM    5  C7  UNL     1       8.770  72.900  47.430  1.00  0.00    -0.011 A
HETATM    6  C6  UNL     1       9.713  72.622  48.422  1.00  0.00     0.015 A
HETATM    7  C5  UNL     1      11.001  73.096  48.317  1.00  0.00     0.052 A
HETATM    8  C4  UNL     1      11.319  73.857  47.192  1.00  0.00     0.144 A
HETATM    9  N15 UNL     1      10.402  74.117  46.246  1.00  0.00    -0.229 N
HETATM   10  C19 UNL     1       9.145  73.654  46.349  1.00  0.00     0.128 A
BRANCH   8  11
HETATM   11  N3  UNL     1      12.625  74.377  47.014  1.00  0.00    -0.269 N
ATOM     12  H3  UNL     1      13.053  74.272  46.094  1.00  0.00     0.190 HD
BRANCH  11  13
HETATM   13  N2  UNL     1      13.292  74.953  47.897  1.00  0.00    -0.238 N
ATOM     14  H2  UNL     1      12.938  75.822  48.298  1.00  0.00     0.208 HD
BRANCH  13  15
HETATM   15  N1  UNL     1      14.489  74.450  48.346  1.00  0.00    -0.253 N
HETATM   16  C3  UNL     1      14.840  74.404  49.703  1.00  0.00     0.265 C
HETATM   17  O2  UNL     1      14.055  74.830  50.572  1.00  0.00    -0.269 OA
ATOM     18  H1  UNL     1      15.154  74.094  47.660  1.00  0.00     0.191 HD
BRANCH  16  19
HETATM   19  C2  UNL     1      16.147  73.851  50.163  1.00  0.00     0.207 C
HETATM   20  C1  UNL     1      16.281  73.993  51.667  1.00  0.00     0.049 C
BRANCH  19  21
HETATM   21  O1  UNL     1      17.152  74.606  49.565  1.00  0.00    -0.386 OA
ATOM     22  H1  UNL     1      17.448  74.142  48.791  1.00  0.00     0.210 HD
ENDBRANCH  19  21
ENDBRANCH  16  19
ENDBRANCH  13  15
ENDBRANCH  11  13
ENDBRANCH   8  11
BRANCH   9  23
HETATM   23  N16 UNL     1      10.749  74.875  45.138  1.00  0.00    -0.335 N
ATOM     24 2H16 UNL     1      11.473  75.586  45.235  1.00  0.00     0.177 HD
ATOM     25 1H16 UNL     1      10.279  74.715  44.247  1.00  0.00     0.177 HD
ENDBRANCH   9  23
BRANCH  10  26
HETATM   26  N14 UNL     1       8.260  73.901  45.448  1.00  0.00    -0.384 N
ATOM     27 2H14 UNL     1       7.291  73.600  45.554  1.00  0.00     0.157 HD
ATOM     28 1H14 UNL     1       8.554  74.410  44.614  1.00  0.00     0.157 HD
ENDBRANCH  10  26
ENDBRANCH   4   5
ENDBRANCH   3   4
ENDBRANCH   1   3
BRANCH   1  29
HETATM   29  C10 UNL     1       5.971  72.193  50.639  1.00  0.00     0.707 A
HETATM   30  N5  UNL     1       7.284  72.299  51.034  1.00  0.00    -0.018 N
HETATM   31  C11 UNL     1       7.671  72.136  52.308  1.00  0.00     0.746 A
ATOM     32  H5  UNL     1       7.992  72.510  50.331  1.00  0.00     0.203 HD
HETATM   33  N11 UNL     1       6.714  71.858  53.210  1.00  0.00    -0.019 N
HETATM   34  C18 UNL     1       5.415  71.743  52.876  1.00  0.00     0.705 A
ATOM     35  H11 UNL     1       6.983  71.728  54.185  1.00  0.00     0.203 HD
HETATM   36  N13 UNL     1       5.053  71.914  51.575  1.00  0.00    -0.022 N
ATOM     37  H13 UNL     1       4.072  71.829  51.310  1.00  0.00     0.203 HD
BRANCH  31  38
HETATM   38  N6  UNL     1       9.038  72.252  52.697  1.00  0.00    -0.002 N
HETATM   39  N7  UNL     1      10.079  71.609  52.152  1.00  0.00     0.018 NA
HETATM   40  N8  UNL     1      11.195  71.963  52.769  1.00  0.00    -0.264 N
HETATM   41  C12 UNL     1      10.891  72.849  53.732  1.00  0.00     0.162 A
ATOM     42  H8  UNL     1      12.130  71.621  52.549  1.00  0.00     0.186 HD
HETATM   43  N10 UNL     1       9.562  72.998  53.655  1.00  0.00    -0.248 N
ATOM     44  H10 UNL     1       9.019  73.612  54.262  1.00  0.00     0.191 HD
BRANCH  41  45
HETATM   45  C13 UNL     1      11.841  73.480  54.640  1.00  0.00     0.079 A
HETATM   46  C14 UNL     1      11.448  74.392  55.597  1.00  0.00     0.033 A
HETATM   47  C15 UNL     1      12.344  74.992  56.459  1.00  0.00     0.004 A
HETATM   48  C16 UNL     1      13.691  74.679  56.374  1.00  0.00     0.017 A
HETATM   49  C17 UNL     1      14.058  73.763  55.408  1.00  0.00     0.088 A
HETATM   50  N9  UNL     1      13.152  73.190  54.573  1.00  0.00    -0.363 N
ATOM     51  H9  UNL     1      13.475  72.519  53.876  1.00  0.00     0.165 HD
ENDBRANCH  41  45
ENDBRANCH  31  38
BRANCH  34  52
HETATM   52  N12 UNL     1       4.482  71.477  53.726  1.00  0.00    -0.234 N
ATOM     53 2H12 UNL     1       4.633  70.696  54.363  1.00  0.00     0.174 HD
ATOM     54 1H12 UNL     1       3.611  72.004  53.789  1.00  0.00     0.174 HD
ENDBRANCH  34  52
ENDBRANCH   1  29
TORSDOF 14
ENDMDL