MODEL 3
REMARK VINA RESULT: -8.096440680      1.205      2.253
REMARK  12 active torsions:
REMARK  status: ('A' for Active; 'I' for Inactive)
REMARK    1  A    between atoms: C2_2  and  O1_3
REMARK    2  A    between atoms: O1_3  and  C3_4
REMARK    3  A    between atoms: C5_8  and  N2_9
REMARK    4  A    between atoms: N2_9  and  C6_10
REMARK    5  A    between atoms: N2_9  and  C8_25
REMARK    6  A    between atoms: C6_10  and  C7_16
REMARK    7  A    between atoms: N3_11  and  N4_13
REMARK    8  A    between atoms: N11_32  and  C10_33
REMARK    9  A    between atoms: C13_38  and  C14_39
REMARK   10  A    between atoms: C14_39  and  N13_40
REMARK   11  A    between atoms: C16_45  and  O2_46
REMARK   12  A    between atoms: C17_50  and  N16_51
ROOT
HETATM    1  N2  UNL     1      13.535  74.644  54.152  1.00  0.00    -0.259 N
ENDROOT
BRANCH   1   2
HETATM    2  C5  UNL     1      14.800  74.146  54.572  1.00  0.00     0.132 A
HETATM    3  C4  UNL     1      14.900  73.044  55.393  1.00  0.00     0.139 A
HETATM    4  N1  UNL     1      16.091  72.568  55.818  1.00  0.00    -0.340 N
HETATM    5  C3  UNL     1      17.250  73.151  55.458  1.00  0.00     0.187 A
ATOM      6  H1  UNL     1      16.112  71.749  56.425  1.00  0.00     0.167 HD
HETATM    7  C17 UNL     1      17.154  74.251  54.639  1.00  0.00     0.156 A
HETATM    8  N15 UNL     1      15.976  74.728  54.214  1.00  0.00    -0.324 N
ATOM      9  H15 UNL     1      15.961  75.549  53.608  1.00  0.00     0.169 HD
BRANCH   5  10
HETATM   10  O1  UNL     1      18.475  72.655  55.900  1.00  0.00    -0.333 OA
BRANCH  10  11
HETATM   11  C2  UNL     1      18.923  72.679  57.210  1.00  0.00     0.173 C
HETATM   12  C1  UNL     1      20.319  72.180  57.437  1.00  0.00     0.034 C
ENDBRANCH  10  11
ENDBRANCH   5  10
BRANCH   7  13
HETATM   13  N16 UNL     1      18.353  74.892  54.246  1.00  0.00    -0.372 N
HETATM   14  C18 UNL     1      19.164  74.531  53.114  1.00  0.00     0.150 C
HETATM   15  C19 UNL     1      18.762  76.015  55.104  1.00  0.00     0.150 C
ENDBRANCH   7  13
ENDBRANCH   1   2
BRANCH   1  16
HETATM   16  C6  UNL     1      13.070  75.809  54.796  1.00  0.00     0.177 C
HETATM   17  N3  UNL     1      12.074  75.725  55.592  1.00  0.00    -0.288 N
ATOM     18  H3  UNL     1      11.666  74.799  55.717  1.00  0.00     0.188 HD
BRANCH  17  19
HETATM   19  N4  UNL     1      11.493  76.757  56.302  1.00  0.00    -0.344 N
ATOM     20  H42 UNL     1      10.482  76.691  56.422  1.00  0.00     0.176 HD
ATOM     21  H41 UNL     1      11.968  77.562  56.712  1.00  0.00     0.176 HD
ENDBRANCH  17  19
BRANCH  16  22
HETATM   22  C7  UNL     1      13.716  77.082  54.558  1.00  0.00     0.184 A
HETATM   23  N5  UNL     1      14.607  77.730  55.366  1.00  0.00    -0.266 N
HETATM   24  N6  UNL     1      14.973  78.852  54.817  1.00  0.00    -0.226 N
ATOM     25  H5  UNL     1      14.937  77.385  56.268  1.00  0.00     0.190 HD
HETATM   26  N7  UNL     1      14.352  78.964  53.676  1.00  0.00    -0.226 N
ATOM     27  H6  UNL     1      15.629  79.525  55.210  1.00  0.00     0.210 HD
HETATM   28  N8  UNL     1      13.589  77.906  53.502  1.00  0.00    -0.266 N
ATOM     29  H7  UNL     1      14.444  79.744  53.025  1.00  0.00     0.210 HD
ATOM     30  H8  UNL     1      12.993  77.737  52.692  1.00  0.00     0.190 HD
ENDBRANCH  16  22
ENDBRANCH   1  16
BRANCH   1  31
HETATM   31  C8  UNL     1      12.743  74.023  53.140  1.00  0.00     0.183 A
HETATM   32  N9  UNL     1      11.956  72.931  53.348  1.00  0.00    -0.171 N
HETATM   33  C9  UNL     1      11.362  72.609  52.205  1.00  0.00     0.686 A
ATOM     34  H9  UNL     1      11.842  72.441  54.235  1.00  0.00     0.186 HD
HETATM   35  N10 UNL     1      10.535  71.611  52.027  1.00  0.00    -0.234 N
HETATM   36  N11 UNL     1      11.731  73.468  51.214  1.00  0.00    -0.121 N
ATOM     37 2H10 UNL     1      10.258  70.968  52.770  1.00  0.00     0.174 HD
ATOM     38 1H10 UNL     1      10.078  71.363  51.149  1.00  0.00     0.174 HD
HETATM   39  C16 UNL     1      12.576  74.322  51.814  1.00  0.00     0.209 A
BRANCH  36  40
HETATM   40  C10 UNL     1      11.284  73.408  49.868  1.00  0.00     0.075 A
HETATM   41  C11 UNL     1      12.185  73.687  48.845  1.00  0.00     0.118 A
HETATM   42  N12 UNL     1      11.784  73.637  47.561  1.00  0.00    -0.372 N
HETATM   43  C12 UNL     1      10.526  73.323  47.239  1.00  0.00     0.102 A
ATOM     44  H12 UNL     1      12.453  73.843  46.820  1.00  0.00     0.164 HD
HETATM   45  C13 UNL     1       9.575  73.033  48.211  1.00  0.00     0.022 A
HETATM   46  C15 UNL     1       9.981  73.082  49.522  1.00  0.00     0.048 A
BRANCH  45  47
HETATM   47  C14 UNL     1       8.205  72.689  47.816  1.00  0.00     0.121 C
HETATM   48  N14 UNL     1       7.958  71.929  46.644  1.00  0.00    -0.082 NA
BRANCH  47  49
HETATM   49  N13 UNL     1       7.229  73.073  48.526  1.00  0.00    -0.387 N
ATOM     50 2H13 UNL     1       7.286  73.965  49.017  1.00  0.00     0.157 HD
ATOM     51 1H13 UNL     1       6.396  72.489  48.602  1.00  0.00     0.157 HD
ENDBRANCH  47  49
ENDBRANCH  45  47
ENDBRANCH  36  40
BRANCH  39  52
HETATM   52  O2  UNL     1      13.217  75.395  51.175  1.00  0.00    -0.343 OA
ATOM     53  H2  UNL     1      12.752  76.111  50.758  1.00  0.00     0.219 HD
ENDBRANCH  39  52
ENDBRANCH   1  31
TORSDOF 12
ENDMDL