MODEL 2
REMARK VINA RESULT: -4.867291653      0.285      1.431
REMARK  2 active torsions:
REMARK  status: ('A' for Active; 'I' for Inactive)
REMARK    1  A    between atoms: N1_1  and  C1_4
REMARK    2  A    between atoms: C2_7  and  N3_8
ROOT
HETATM    1  C1  UNL     1      10.237   2.421  -3.409  1.00  0.00     0.705 A
HETATM    2  N2  UNL     1      10.296   3.427  -4.301  1.00  0.00    -0.020 N
ATOM      3  H2  UNL     1       9.879   3.410  -5.232  1.00  0.00     0.203 HD
HETATM    4  C2  UNL     1      10.989   4.460  -3.781  1.00  0.00     0.710 A
HETATM    5  N5  UNL     1      11.368   4.093  -2.545  1.00  0.00    -0.117 N
ATOM      6  H5  UNL     1      11.910   4.655  -1.889  1.00  0.00     0.206 HD
HETATM    7  N6  UNL     1      10.912   2.869  -2.335  1.00  0.00    -0.118 N
ATOM      8  H6  UNL     1      11.052   2.337  -1.475  1.00  0.00     0.206 HD
ENDROOT
BRANCH   4   9
HETATM    9  N3  UNL     1      11.269   5.698  -4.409  1.00  0.00    -0.213 N
HETATM   10  C3  UNL     1      10.213   6.511  -4.963  1.00  0.00     0.160 C
HETATM   11  C4  UNL     1      10.779   7.499  -5.973  1.00  0.00     0.134 C
HETATM   12  N4  UNL     1      11.782   8.322  -5.376  1.00  0.00    -0.418 N
HETATM   13  C5  UNL     1      12.745   7.650  -4.584  1.00  0.00     0.134 C
ATOM     14  H4  UNL     1      11.804   9.333  -5.512  1.00  0.00     0.153 HD
HETATM   15  C6  UNL     1      12.618   6.175  -4.509  1.00  0.00     0.160 C
ENDBRANCH   4   9
BRANCH   1  16
HETATM   16  N1  UNL     1       9.654   1.274  -3.566  1.00  0.00    -0.233 N
ATOM     17  H12 UNL     1       8.856   1.051  -4.161  1.00  0.00     0.174 HD
ATOM     18  H11 UNL     1       9.899   0.394  -3.112  1.00  0.00     0.174 HD
ENDBRANCH   1  16
TORSDOF 2
ENDMDL