MODEL 4
REMARK VINA RESULT: -4.932756870      1.868      2.705
REMARK  1 active torsions:
REMARK  status: ('A' for Active; 'I' for Inactive)
REMARK       I    between atoms: C1_2  and  N2_4
REMARK    1  A    between atoms: C2_6  and  C3_8
ROOT
HETATM    1  C3  UNL     1      10.329   4.384  -4.762  1.00  0.00     0.157 A
HETATM    2  N4  UNL     1       9.897   5.612  -4.854  1.00  0.00    -0.299 N
ATOM      3  H4  UNL     1       9.802   6.188  -4.018  1.00  0.00     0.171 HD
HETATM    4  C4  UNL     1       9.585   6.102  -6.038  1.00  0.00     0.305 A
HETATM    5  O2  UNL     1       9.151   7.281  -6.280  1.00  0.00    -0.258 OA
HETATM    6  S1  UNL     1       9.913   4.777  -7.058  1.00  0.00     0.049 SA
HETATM    7  N5  UNL     1      10.431   3.677  -5.893  1.00  0.00    -0.305 N
ATOM      8  H5  UNL     1      10.745   2.714  -6.019  1.00  0.00     0.176 HD
ENDROOT
BRANCH   1   9
HETATM    9  C2  UNL     1      10.691   3.797  -3.441  1.00  0.00     0.165 C
HETATM   10  N2  UNL     1      11.899   3.782  -3.009  1.00  0.00    -0.296 N
HETATM   11  C1  UNL     1      13.037   4.291  -3.672  1.00  0.00     0.334 C
ATOM     12  H2  UNL     1      12.053   3.359  -2.094  1.00  0.00     0.171 HD
HETATM   13  N1  UNL     1      13.484   5.644  -3.475  1.00  0.00    -0.040 NA
HETATM   14  O1  UNL     1      13.711   3.573  -4.470  1.00  0.00    -0.251 OA
HETATM   15  N3  UNL     1       9.689   3.230  -2.616  1.00  0.00    -0.078 NA
ENDBRANCH   1   9
TORSDOF 1
ENDMDL