MODEL 4
REMARK VINA RESULT: -5.556389985      2.970      5.288
REMARK  2 active torsions:
REMARK  status: ('A' for Active; 'I' for Inactive)
REMARK    1  A    between atoms: C3_6  and  N2_7
REMARK    2  A    between atoms: N2_7  and  C4_9
ROOT
HETATM    1  O1  UNL     1      14.226   5.421  -2.275  1.00  0.00    -0.245 OA
HETATM    2  C1  UNL     1      13.236   4.931  -2.898  1.00  0.00     0.338 A
HETATM    3  N1  UNL     1      11.991   5.009  -2.374  1.00  0.00    -0.314 N
ATOM      4  H1  UNL     1      11.827   5.460  -1.474  1.00  0.00     0.170 HD
HETATM    5  C2  UNL     1      10.967   4.467  -3.085  1.00  0.00     0.143 A
HETATM    6  C3  UNL     1      11.203   3.862  -4.298  1.00  0.00     0.151 A
HETATM    7  N6  UNL     1      12.446   3.798  -4.796  1.00  0.00    -0.280 N
ATOM      8  H6  UNL     1      12.627   3.352  -5.695  1.00  0.00     0.188 HD
HETATM    9  N7  UNL     1      13.429   4.329  -4.092  1.00  0.00    -0.250 N
ATOM     10  H7  UNL     1      14.376   4.282  -4.466  1.00  0.00     0.192 HD
ENDROOT
BRANCH   6  11
HETATM   11  N2  UNL     1      10.228   3.365  -4.940  1.00  0.00    -0.172 N
ATOM     12  H2  UNL     1       9.729   3.979  -5.584  1.00  0.00     0.186 HD
BRANCH  11  13
HETATM   13  C4  UNL     1       9.777   2.032  -4.835  1.00  0.00     0.699 A
HETATM   14  N3  UNL     1       9.463   1.150  -5.800  1.00  0.00    -0.185 N
HETATM   15  C5  UNL     1       9.077  -0.015  -5.259  1.00  0.00     0.215 A
ATOM     16  H3  UNL     1       9.511   1.340  -6.801  1.00  0.00     0.185 HD
HETATM   17  N4  UNL     1       9.150   0.134  -3.925  1.00  0.00    -0.281 N
HETATM   18  N5  UNL     1       9.571   1.364  -3.677  1.00  0.00    -0.131 N
ATOM     19  H4  UNL     1       8.922  -0.574  -3.227  1.00  0.00     0.188 HD
ATOM     20  H5  UNL     1       9.718   1.753  -2.746  1.00  0.00     0.205 HD
ENDBRANCH  11  13
ENDBRANCH   6  11
TORSDOF 2
ENDMDL