MODEL 1
REMARK VINA RESULT: -5.218651219      0.000      0.000
REMARK  3 active torsions:
REMARK  status: ('A' for Active; 'I' for Inactive)
REMARK    1  A    between atoms: N1_1  and  C1_4
REMARK    2  A    between atoms: C2_9  and  N4_10
REMARK    3  A    between atoms: N5_16  and  N6_17
ROOT
HETATM    1  C1  UNL     1      10.189   1.979  -3.620  1.00  0.00     0.727 A
HETATM    2  N2  UNL     1      10.720   2.125  -2.389  1.00  0.00    -0.116 N
ATOM      3  H2  UNL     1      10.669   1.442  -1.633  1.00  0.00     0.206 HD
HETATM    4  N3  UNL     1      11.318   3.303  -2.330  1.00  0.00    -0.115 N
ATOM      5  H3  UNL     1      11.803   3.671  -1.511  1.00  0.00     0.206 HD
HETATM    6  C2  UNL     1      11.194   3.950  -3.509  1.00  0.00     0.738 A
HETATM    7  N5  UNL     1      10.497   3.129  -4.298  1.00  0.00     0.086 N
ENDROOT
BRANCH   6   8
HETATM    8  N4  UNL     1      11.693   5.232  -3.870  1.00  0.00    -0.147 N
HETATM    9  C3  UNL     1      11.081   6.373  -4.458  1.00  0.00     0.151 C
HETATM   10  C4  UNL     1      12.207   7.161  -5.092  1.00  0.00     0.030 C
HETATM   11  C5  UNL     1      13.510   6.486  -4.732  1.00  0.00     0.105 C
HETATM   12  C6  UNL     1      13.088   5.568  -3.662  1.00  0.00     0.238 C
HETATM   13  O1  UNL     1      13.826   5.158  -2.739  1.00  0.00    -0.273 OA
ENDBRANCH   6   8
BRANCH   7  14
HETATM   14  N6  UNL     1      10.097   3.320  -5.616  1.00  0.00    -0.309 N
ATOM     15  H62 UNL     1      10.673   3.371  -6.456  1.00  0.00     0.178 HD
ATOM     16  H61 UNL     1       9.113   3.432  -5.860  1.00  0.00     0.178 HD
ENDBRANCH   7  14
BRANCH   1  17
HETATM   17  N1  UNL     1       9.527   0.970  -4.088  1.00  0.00    -0.231 N
ATOM     18  H12 UNL     1       9.163   0.186  -3.547  1.00  0.00     0.174 HD
ATOM     19  H11 UNL     1       9.258   0.790  -5.055  1.00  0.00     0.174 HD
ENDBRANCH   1  17
TORSDOF 3
ENDMDL