MODEL 4
REMARK VINA RESULT: -5.431270382      2.772      3.287
REMARK  2 active torsions:
REMARK  status: ('A' for Active; 'I' for Inactive)
REMARK    1  A    between atoms: C1_2  and  C2_4
REMARK    2  A    between atoms: N5_13  and  N6_14
ROOT
HETATM    1  C2  UNL     1      12.532   4.738  -3.175  1.00  0.00     0.190 A
HETATM    2  N2  UNL     1      11.540   4.604  -2.275  1.00  0.00    -0.280 N
ATOM      3  H2  UNL     1      11.377   5.214  -1.473  1.00  0.00     0.189 HD
HETATM    4  N3  UNL     1      10.820   3.562  -2.600  1.00  0.00    -0.286 N
ATOM      5  H3  UNL     1      10.001   3.218  -2.099  1.00  0.00     0.188 HD
HETATM    6  C3  UNL     1      11.349   3.031  -3.701  1.00  0.00     0.115 A
HETATM    7  N4  UNL     1      12.417   3.747  -4.079  1.00  0.00    -0.314 N
HETATM    8  C4  UNL     1      13.219   3.441  -5.234  1.00  0.00     0.148 C
HETATM    9  C5  UNL     1      12.998   2.053  -5.757  1.00  0.00     0.134 C
HETATM   10  N5  UNL     1      12.302   1.190  -4.821  1.00  0.00    -0.229 NA
HETATM   11  C6  UNL     1      11.012   1.849  -4.570  1.00  0.00     0.191 C
ENDROOT
BRANCH   1  12
HETATM   12  C1  UNL     1      13.527   5.798  -3.119  1.00  0.00     0.300 C
HETATM   13  N1  UNL     1      14.605   5.708  -2.216  1.00  0.00    -0.054 NA
HETATM   14  O1  UNL     1      13.383   6.772  -3.894  1.00  0.00    -0.268 OA
ENDBRANCH   1  12
BRANCH  10  15
HETATM   15  N6  UNL     1      12.973   1.091  -3.606  1.00  0.00    -0.363 NA
ATOM     16  H62 UNL     1      13.597   0.286  -3.659  1.00  0.00     0.171 HD
ATOM     17  H61 UNL     1      12.338   0.889  -2.834  1.00  0.00     0.171 HD
ENDBRANCH  10  15
TORSDOF 2
ENDMDL