MODEL 3
REMARK VINA RESULT: -5.413642916      1.740      5.032
REMARK  2 active torsions:
REMARK  status: ('A' for Active; 'I' for Inactive)
REMARK    1  A    between atoms: N1_1  and  C1_4
REMARK    2  A    between atoms: C3_8  and  N3_9
ROOT
HETATM    1  C1  UNL     1      12.781   6.315  -3.870  1.00  0.00     0.678 A
HETATM    2  N2  UNL     1      11.448   6.321  -4.015  1.00  0.00    -0.200 N
ATOM      3  H2  UNL     1      10.937   7.204  -4.028  1.00  0.00     0.183 HD
HETATM    4  C2  UNL     1      10.794   5.165  -4.141  1.00  0.00     0.143 A
HETATM    5  C3  UNL     1      11.443   3.933  -4.129  1.00  0.00     0.138 A
HETATM    6  C6  UNL     1      12.815   3.978  -3.977  1.00  0.00     0.289 A
HETATM    7  O1  UNL     1      13.425   2.862  -3.964  1.00  0.00    -0.265 OA
HETATM    8  N6  UNL     1      13.469   5.144  -3.850  1.00  0.00    -0.154 N
ATOM      9  H6  UNL     1      14.483   5.151  -3.739  1.00  0.00     0.187 HD
ENDROOT
BRANCH   5  10
HETATM   10  N3  UNL     1      10.722   2.718  -4.266  1.00  0.00    -0.243 N
HETATM   11  C4  UNL     1      10.524   1.933  -5.320  1.00  0.00     0.133 A
HETATM   12  C5  UNL     1       9.747   0.850  -4.964  1.00  0.00     0.123 A
HETATM   13  N4  UNL     1       9.491   1.028  -3.649  1.00  0.00    -0.294 N
HETATM   14  N5  UNL     1      10.076   2.143  -3.249  1.00  0.00    -0.016 NA
ATOM     15  H4  UNL     1       8.937   0.404  -3.063  1.00  0.00     0.183 HD
ENDBRANCH   5  10
BRANCH   1  16
HETATM   16  N1  UNL     1      13.471   7.421  -3.743  1.00  0.00    -0.234 N
ATOM     17  H12 UNL     1      13.265   8.012  -2.937  1.00  0.00     0.174 HD
ATOM     18  H11 UNL     1      14.187   7.692  -4.416  1.00  0.00     0.174 HD
ENDBRANCH   1  16
TORSDOF 2
ENDMDL