MODEL 1
REMARK VINA RESULT: -5.349038065      0.000      0.000
REMARK  1 active torsions:
REMARK  status: ('A' for Active; 'I' for Inactive)
REMARK    1  A    between atoms: N1_1  and  C1_4
ROOT
HETATM    1  C1  UNL     1      10.383   3.859  -3.414  1.00  0.00     0.150 C
HETATM    2  N2  UNL     1       9.854   4.794  -4.247  1.00  0.00    -0.299 N
ATOM      3  H2  UNL     1       8.981   4.514  -4.697  1.00  0.00     0.171 HD
HETATM    4  C2  UNL     1      10.276   6.013  -4.578  1.00  0.00     0.315 C
HETATM    5  O1  UNL     1       9.321   6.816  -4.869  1.00  0.00    -0.262 OA
HETATM    6  C3  UNL     1      11.510   6.522  -4.654  1.00  0.00     0.317 C
HETATM    7  O2  UNL     1      11.643   7.460  -5.527  1.00  0.00    -0.262 OA
HETATM    8  N3  UNL     1      12.680   6.304  -4.040  1.00  0.00    -0.280 N
ATOM      9  H3  UNL     1      13.421   6.960  -4.287  1.00  0.00     0.173 HD
HETATM   10  C4  UNL     1      13.045   5.344  -3.135  1.00  0.00     0.294 C
HETATM   11  O3  UNL     1      14.112   5.461  -2.511  1.00  0.00    -0.259 OA
HETATM   12  S1  UNL     1      12.022   3.979  -2.865  1.00  0.00     0.007 SA
ENDROOT
BRANCH   1  13
HETATM   13  N1  UNL     1       9.659   2.867  -3.025  1.00  0.00    -0.379 N
ATOM     14  H12 UNL     1       8.657   2.877  -3.214  1.00  0.00     0.158 HD
ATOM     15  H11 UNL     1      10.094   2.086  -2.535  1.00  0.00     0.158 HD
ENDBRANCH   1  13
TORSDOF 1
ENDMDL