MODEL 4
REMARK VINA RESULT: -5.213755692      2.778      5.689
REMARK  3 active torsions:
REMARK  status: ('A' for Active; 'I' for Inactive)
REMARK    1  A    between atoms: N1_1  and  N2_4
REMARK    2  A    between atoms: N2_4  and  C1_6
REMARK    3  A    between atoms: C5_10  and  C6_11
ROOT
HETATM    1  C1  UNL     1      10.584   3.433  -3.973  1.00  0.00     0.119 A
HETATM    2  C2  UNL     1      10.428   3.407  -5.331  1.00  0.00     0.050 A
HETATM    3  C3  UNL     1      11.264   4.236  -6.083  1.00  0.00     0.006 A
HETATM    4  C4  UNL     1      12.198   5.037  -5.446  1.00  0.00     0.033 A
HETATM    5  C5  UNL     1      12.312   5.025  -4.075  1.00  0.00     0.079 A
HETATM    6  N6  UNL     1      11.495   4.218  -3.381  1.00  0.00    -0.338 N
ATOM      7  H6  UNL     1      11.570   4.200  -2.364  1.00  0.00     0.167 HD
ENDROOT
BRANCH   5   8
HETATM    8  C6  UNL     1      13.291   5.863  -3.397  1.00  0.00     0.141 C
HETATM    9  N3  UNL     1      14.108   5.472  -2.449  1.00  0.00    -0.286 N
HETATM   10  N4  UNL     1      14.902   6.545  -2.036  1.00  0.00    -0.120 NA
ATOM     11  H3  UNL     1      14.157   4.526  -2.070  1.00  0.00     0.184 HD
HETATM   12  C7  UNL     1      14.861   7.506  -3.119  1.00  0.00     0.257 C
HETATM   13  N5  UNL     1      13.522   7.251  -3.653  1.00  0.00    -0.359 N
ATOM     14  H5  UNL     1      12.894   7.915  -4.105  1.00  0.00     0.162 HD
ENDBRANCH   5   8
BRANCH   1  15
HETATM   15  N2  UNL     1       9.830   2.680  -3.235  1.00  0.00    -0.292 N
ATOM     16  H2  UNL     1       9.419   3.066  -2.385  1.00  0.00     0.188 HD
BRANCH  15  17
HETATM   17  N1  UNL     1       9.568   1.349  -3.578  1.00  0.00    -0.344 N
ATOM     18  H12 UNL     1       9.336   1.137  -4.549  1.00  0.00     0.176 HD
ATOM     19  H11 UNL     1       9.605   0.603  -2.883  1.00  0.00     0.176 HD
ENDBRANCH  15  17
ENDBRANCH   1  15
TORSDOF 3
ENDMDL