MODEL 1
REMARK VINA RESULT: -5.257758282      0.000      0.000
REMARK  1 active torsions:
REMARK  status: ('A' for Active; 'I' for Inactive)
REMARK    1  A    between atoms: N3_5  and  C2_6
ROOT
HETATM    1  N1  UNL     1      13.222   4.348  -3.201  1.00  0.00    -0.075 NA
HETATM    2  C1  UNL     1      12.011   3.647  -3.444  1.00  0.00     0.202 A
HETATM    3  N2  UNL     1      11.840   2.416  -3.954  1.00  0.00    -0.260 N
ATOM      4  H2  UNL     1      12.608   1.810  -4.242  1.00  0.00     0.190 HD
HETATM    5  N3  UNL     1      10.564   2.077  -4.042  1.00  0.00    -0.175 N
HETATM    6  N5  UNL     1       9.884   3.136  -3.567  1.00  0.00    -0.240 N
ATOM      7  H5  UNL     1       8.869   3.194  -3.499  1.00  0.00     0.192 HD
HETATM    8  C7  UNL     1      10.735   4.107  -3.195  1.00  0.00     0.304 A
HETATM    9  O1  UNL     1      10.435   5.230  -2.710  1.00  0.00    -0.263 OA
ENDROOT
BRANCH   5  10
HETATM   10  C2  UNL     1       9.996   0.868  -4.526  1.00  0.00     0.145 A
HETATM   11  C3  UNL     1      10.577   0.178  -5.558  1.00  0.00     0.052 A
HETATM   12  C4  UNL     1      10.036  -1.014  -6.051  1.00  0.00     0.005 A
HETATM   13  C5  UNL     1       8.892  -1.488  -5.471  1.00  0.00     0.017 A
HETATM   14  C6  UNL     1       8.318  -0.785  -4.436  1.00  0.00     0.090 A
HETATM   15  N4  UNL     1       8.878   0.377  -3.982  1.00  0.00    -0.350 N
ATOM     16  H4  UNL     1       8.433   0.879  -3.214  1.00  0.00     0.166 HD
ENDBRANCH   5  10
TORSDOF 1
ENDMDL