MODEL 2
REMARK VINA RESULT: -4.813108960      1.785      3.647
REMARK  2 active torsions:
REMARK  status: ('A' for Active; 'I' for Inactive)
REMARK    1  A    between atoms: O1_1  and  S1_3
REMARK    2  A    between atoms: S1_3  and  C1_4
ROOT
HETATM    1  C1  UNL     1      10.392   5.465  -4.832  1.00  0.00     0.150 A
HETATM    2  N1  UNL     1      10.573   5.672  -3.514  1.00  0.00    -0.286 N
ATOM      3  H1  UNL     1      10.590   6.624  -3.146  1.00  0.00     0.188 HD
HETATM    4  N2  UNL     1      10.728   4.645  -2.699  1.00  0.00    -0.250 N
ATOM      5  H2  UNL     1      10.863   4.814  -1.702  1.00  0.00     0.191 HD
HETATM    6  C2  UNL     1      10.712   3.371  -3.158  1.00  0.00     0.340 A
HETATM    7  O2  UNL     1      10.863   2.398  -2.366  1.00  0.00    -0.245 OA
HETATM    8  N3  UNL     1      10.535   3.102  -4.464  1.00  0.00    -0.296 N
ATOM      9  H3  UNL     1      10.521   2.144  -4.814  1.00  0.00     0.171 HD
HETATM   10  C3  UNL     1      10.378   4.149  -5.284  1.00  0.00     0.141 A
HETATM   11  S2  UNL     1      10.157   3.937  -6.888  1.00  0.00    -0.057 SA
ENDROOT
BRANCH   1  12
HETATM   12  S1  UNL     1      10.201   6.681  -5.847  1.00  0.00     0.049 SA
BRANCH  12  13
HETATM   13  O1  UNL     1       8.925   7.037  -6.094  1.00  0.00    -0.324 OA
ATOM     14  H1  UNL     1       8.557   7.681  -5.500  1.00  0.00     0.228 HD
ENDBRANCH  12  13
ENDBRANCH   1  12
TORSDOF 2
ENDMDL