MODEL 5
REMARK VINA RESULT: -5.069493184      1.339      2.547
REMARK  1 active torsions:
REMARK  status: ('A' for Active; 'I' for Inactive)
REMARK    1  A    between atoms: N5_15  and  C5_16
ROOT
HETATM    1  N1  UNL     1     -32.008  11.374 -42.301  1.00  0.00    -0.383 N
ATOM      2  H11 UNL     1     -31.717  11.553 -43.262  1.00  0.00     0.157 HD
ATOM      3  H12 UNL     1     -31.571  11.841 -41.506  1.00  0.00     0.157 HD
HETATM    4  C1  UNL     1     -32.945  10.541 -42.116  1.00  0.00     0.134 A
HETATM    5  N2  UNL     1     -33.336  10.301 -40.829  1.00  0.00    -0.293 N
ATOM      6  H2  UNL     1     -32.879  10.785 -40.056  1.00  0.00     0.172 HD
HETATM    7  C2  UNL     1     -34.322   9.428 -40.586  1.00  0.00     0.326 A
HETATM    8  O1  UNL     1     -34.688   9.202 -39.403  1.00  0.00    -0.247 OA
HETATM    9  N3  UNL     1     -34.900   8.812 -41.628  1.00  0.00    -0.305 N
ATOM     10  H3  UNL     1     -35.650   8.149 -41.434  1.00  0.00     0.171 HD
HETATM   11  C3  UNL     1     -34.557   9.010 -42.899  1.00  0.00     0.086 A
HETATM   12  C4  UNL     1     -34.987   8.514 -44.113  1.00  0.00     0.140 A
HETATM   13  N4  UNL     1     -34.278   9.071 -45.077  1.00  0.00    -0.300 N
ATOM     14  H4  UNL     1     -34.383   8.888 -46.075  1.00  0.00     0.186 HD
HETATM   15  N5  UNL     1     -33.391   9.924 -44.519  1.00  0.00    -0.226 N
HETATM   16  C6  UNL     1     -33.534   9.913 -43.187  1.00  0.00     0.131 A
ENDROOT
BRANCH  15  17
HETATM   17  C5  UNL     1     -32.476  10.685 -45.287  1.00  0.00     0.376 C
HETATM   18  O2  UNL     1     -32.029  11.814 -45.070  1.00  0.00    -0.281 OA
ENDBRANCH  15  17
TORSDOF 1
ENDMDL