MODEL 5
REMARK VINA RESULT: -5.044468102      2.723      4.391
REMARK  2 active torsions:
REMARK  status: ('A' for Active; 'I' for Inactive)
REMARK    1  A    between atoms: C4_8  and  S1_9
REMARK    2  A    between atoms: S1_9  and  N3_10
ROOT
HETATM    1  N1  UNL     1     -34.090   9.924 -39.212  1.00  0.00    -0.083 NA
HETATM    2  C1  UNL     1     -34.134   9.920 -40.635  1.00  0.00     0.123 A
HETATM    3  C2  UNL     1     -34.851   8.962 -41.325  1.00  0.00     0.119 A
HETATM    4  C3  UNL     1     -34.872   8.989 -42.704  1.00  0.00     0.250 A
HETATM    5  O1  UNL     1     -35.537   8.101 -43.305  1.00  0.00    -0.268 OA
HETATM    6  N2  UNL     1     -34.189   9.953 -43.360  1.00  0.00    -0.298 N
ATOM      7  H2  UNL     1     -34.207   9.972 -44.380  1.00  0.00     0.171 HD
HETATM    8  C4  UNL     1     -33.498  10.876 -42.706  1.00  0.00     0.227 A
HETATM    9  N4  UNL     1     -33.481  10.845 -41.361  1.00  0.00    -0.320 N
ATOM     10  H4  UNL     1     -32.946  11.559 -40.867  1.00  0.00     0.169 HD
ENDROOT
BRANCH   8  11
HETATM   11  S1  UNL     1     -32.597  12.147 -43.534  1.00  0.00     0.289 S
HETATM   12  O2  UNL     1     -31.963  11.598 -44.779  1.00  0.00    -0.198 OA
HETATM   13  O3  UNL     1     -31.515  12.707 -42.673  1.00  0.00    -0.198 OA
BRANCH  11  14
HETATM   14  N3  UNL     1     -33.740  13.341 -44.025  1.00  0.00    -0.322 N
ATOM     15  H32 UNL     1     -33.774  14.304 -43.692  1.00  0.00     0.169 HD
ATOM     16  H31 UNL     1     -34.363  12.899 -44.701  1.00  0.00     0.169 HD
ENDBRANCH  11  14
ENDBRANCH   8  11
TORSDOF 2
ENDMDL