MODEL 1
REMARK VINA RESULT: -5.801707914      0.000      0.000
REMARK  2 active torsions:
REMARK  status: ('A' for Active; 'I' for Inactive)
REMARK    1  A    between atoms: C2_3  and  C3_4
REMARK    2  A    between atoms: C4_7  and  N3_8
ROOT
HETATM    1  N1  UNL     1     -31.728  11.784 -42.955  1.00  0.00    -0.197 NA
HETATM    2  C1  UNL     1     -32.107  10.792 -42.536  1.00  0.00     0.065 C
HETATM    3  C2  UNL     1     -32.610   9.520 -41.963  1.00  0.00     0.183 C
ENDROOT
BRANCH   3   4
HETATM    4  C3  UNL     1     -33.765   9.861 -41.113  1.00  0.00     0.066 A
HETATM    5  N2  UNL     1     -33.609  10.246 -39.852  1.00  0.00    -0.193 N
HETATM    6  C4  UNL     1     -34.642  10.559 -39.034  1.00  0.00     0.679 A
ATOM      7  H2  UNL     1     -32.661  10.310 -39.480  1.00  0.00     0.184 HD
HETATM    8  N4  UNL     1     -35.892  10.480 -39.515  1.00  0.00    -0.155 N
HETATM    9  C5  UNL     1     -36.086  10.093 -40.790  1.00  0.00     0.282 A
ATOM     10  H4  UNL     1     -36.687  10.711 -38.920  1.00  0.00     0.187 HD
HETATM   11  O1  UNL     1     -37.250  10.000 -41.295  1.00  0.00    -0.266 OA
HETATM   12  C6  UNL     1     -35.043   9.772 -41.628  1.00  0.00     0.137 A
HETATM   13  C7  UNL     1     -35.293   9.358 -43.005  1.00  0.00     0.107 C
HETATM   14  N5  UNL     1     -35.481   9.043 -44.106  1.00  0.00    -0.191 NA
BRANCH   6  15
HETATM   15  N3  UNL     1     -34.458  10.926 -37.816  1.00  0.00    -0.234 N
ATOM     16  H32 UNL     1     -35.228  11.351 -37.300  1.00  0.00     0.174 HD
ATOM     17  H31 UNL     1     -33.561  10.803 -37.344  1.00  0.00     0.174 HD
ENDBRANCH   6  15
ENDBRANCH   3   4
TORSDOF 2
ENDMDL