MODEL 5
REMARK VINA RESULT: -5.007537067      0.964      1.002
REMARK  2 active torsions:
REMARK  status: ('A' for Active; 'I' for Inactive)
REMARK    1  A    between atoms: N1_1  and  C1_5
REMARK    2  A    between atoms: C1_5  and  C2_6
ROOT
HETATM    1  C2  UNL     1     -33.308   9.115 -45.476  1.00  0.00     0.055 A
HETATM    2  C3  UNL     1     -32.649  10.191 -44.915  1.00  0.00     0.067 A
HETATM    3  C4  UNL     1     -32.893  10.165 -43.569  1.00  0.00     0.144 A
HETATM    4  C5  UNL     1     -32.470  11.014 -42.544  1.00  0.00     0.279 A
HETATM    5  O1  UNL     1     -31.727  12.013 -42.810  1.00  0.00    -0.265 OA
HETATM    6  N2  UNL     1     -32.876  10.734 -41.290  1.00  0.00    -0.272 N
ATOM      7  H2  UNL     1     -32.593  11.328 -40.510  1.00  0.00     0.174 HD
HETATM    8  C6  UNL     1     -33.652   9.672 -41.082  1.00  0.00     0.343 A
HETATM    9  O2  UNL     1     -34.033   9.412 -39.891  1.00  0.00    -0.245 OA
HETATM   10  N3  UNL     1     -34.062   8.852 -42.062  1.00  0.00    -0.229 N
ATOM     11  H3  UNL     1     -34.657   8.052 -41.849  1.00  0.00     0.194 HD
HETATM   12  N4  UNL     1     -33.685   9.092 -43.311  1.00  0.00    -0.187 N
HETATM   13  N5  UNL     1     -33.916   8.485 -44.463  1.00  0.00    -0.281 N
ATOM     14  H5  UNL     1     -34.486   7.645 -44.567  1.00  0.00     0.189 HD
ENDROOT
BRANCH   1  15
HETATM   15  C1  UNL     1     -33.318   8.755 -46.916  1.00  0.00     0.288 C
BRANCH  15  16
HETATM   16  N1  UNL     1     -32.207   7.857 -47.252  1.00  0.00    -0.074 N
ATOM     17  H13 UNL     1     -32.504   6.881 -47.259  1.00  0.00     0.274 HD
ATOM     18  H12 UNL     1     -31.938   7.946 -48.232  1.00  0.00     0.274 HD
ATOM     19  H11 UNL     1     -31.411   8.000 -46.631  1.00  0.00     0.274 HD
ENDBRANCH  15  16
ENDBRANCH   1  15
TORSDOF 2
ENDMDL