MODEL 2
REMARK VINA RESULT: -6.020351501      1.565      3.340
REMARK  2 active torsions:
REMARK  status: ('A' for Active; 'I' for Inactive)
REMARK    1  A    between atoms: C3_4  and  N2_5
REMARK    2  A    between atoms: N3_7  and  N4_9
ROOT
HETATM    1  N1  UNL     1     -35.645   7.651 -44.256  1.00  0.00    -0.191 NA
HETATM    2  C1  UNL     1     -34.912   8.515 -43.992  1.00  0.00     0.109 C
HETATM    3  C2  UNL     1     -34.019   9.587 -43.653  1.00  0.00     0.158 A
HETATM    4  C3  UNL     1     -33.335   9.543 -42.456  1.00  0.00     0.151 A
HETATM    5  N5  UNL     1     -32.513  10.552 -42.170  1.00  0.00    -0.292 N
ATOM      6  H5  UNL     1     -32.003  10.531 -41.287  1.00  0.00     0.172 HD
HETATM    7  C4  UNL     1     -32.326  11.613 -43.008  1.00  0.00     0.328 A
HETATM    8  O1  UNL     1     -31.545  12.557 -42.720  1.00  0.00    -0.247 OA
HETATM    9  N6  UNL     1     -32.998  11.645 -44.174  1.00  0.00    -0.274 N
ATOM     10  H6  UNL     1     -32.861  12.435 -44.805  1.00  0.00     0.173 HD
HETATM   11  C5  UNL     1     -33.845  10.662 -44.532  1.00  0.00     0.274 A
HETATM   12  O2  UNL     1     -34.485  10.666 -45.612  1.00  0.00    -0.266 OA
ENDROOT
BRANCH   4  13
HETATM   13  N2  UNL     1     -33.552   8.426 -41.605  1.00  0.00    -0.270 N
HETATM   14  N3  UNL     1     -34.320   8.530 -40.605  1.00  0.00    -0.248 N
ATOM     15  H3  UNL     1     -34.477   7.729 -39.994  1.00  0.00     0.207 HD
ATOM     16  H2  UNL     1     -33.088   7.539 -41.801  1.00  0.00     0.190 HD
BRANCH  14  17
HETATM   17  N4  UNL     1     -34.954   9.747 -40.341  1.00  0.00    -0.331 N
ATOM     18  H42 UNL     1     -35.716  10.052 -40.947  1.00  0.00     0.178 HD
ATOM     19  H41 UNL     1     -34.650  10.315 -39.551  1.00  0.00     0.178 HD
ENDBRANCH  14  17
ENDBRANCH   4  13
TORSDOF 2
ENDMDL