MODEL 5
REMARK VINA RESULT: -5.175726429      1.825      2.889
REMARK  3 active torsions:
REMARK  status: ('A' for Active; 'I' for Inactive)
REMARK    1  A    between atoms: N1_1  and  C1_4
REMARK    2  A    between atoms: C2_7  and  N3_8
REMARK    3  A    between atoms: N3_8  and  C3_10
ROOT
HETATM    1  C1  UNL     1     -34.837  10.209 -39.454  1.00  0.00     0.727 A
HETATM    2  N2  UNL     1     -34.199   9.449 -40.362  1.00  0.00    -0.020 N
ATOM      3  H2  UNL     1     -33.296   9.024 -40.148  1.00  0.00     0.203 HD
HETATM    4  C2  UNL     1     -34.782   9.264 -41.559  1.00  0.00     0.713 A
HETATM    5  N4  UNL     1     -35.973   9.842 -41.807  1.00  0.00    -0.019 N
ATOM      6  H4  UNL     1     -36.413   9.701 -42.716  1.00  0.00     0.203 HD
HETATM    7  C4  UNL     1     -36.601  10.606 -40.879  1.00  0.00     0.734 A
HETATM    8  N5  UNL     1     -37.766  11.279 -40.869  1.00  0.00    -0.184 N
ATOM      9  H5  UNL     1     -38.424  11.321 -41.647  1.00  0.00     0.185 HD
HETATM   10  C5  UNL     1     -37.933  11.887 -39.686  1.00  0.00     0.216 A
HETATM   11  N6  UNL     1     -36.840  11.576 -38.956  1.00  0.00    -0.260 N
ATOM     12  H6  UNL     1     -36.661  11.887 -38.001  1.00  0.00     0.189 HD
HETATM   13  N7  UNL     1     -36.029  10.797 -39.678  1.00  0.00     0.091 N
ENDROOT
BRANCH   4  14
HETATM   14  N3  UNL     1     -34.153   8.531 -42.416  1.00  0.00    -0.166 N
ATOM     15  H3  UNL     1     -33.296   8.052 -42.140  1.00  0.00     0.186 HD
BRANCH  14  16
HETATM   16  C3  UNL     1     -34.648   8.389 -43.739  1.00  0.00     0.368 C
HETATM   17  O1  UNL     1     -35.653   7.693 -44.031  1.00  0.00    -0.283 OA
ENDBRANCH  14  16
ENDBRANCH   4  14
BRANCH   1  18
HETATM   18  N1  UNL     1     -34.311  10.405 -38.304  1.00  0.00    -0.232 N
ATOM     19  H12 UNL     1     -33.453   9.891 -38.103  1.00  0.00     0.174 HD
ATOM     20  H11 UNL     1     -34.752  11.049 -37.646  1.00  0.00     0.174 HD
ENDBRANCH   1  18
TORSDOF 3
ENDMDL