MODEL 5
REMARK VINA RESULT: -4.325785146      2.146      2.351
REMARK  3 active torsions:
REMARK  status: ('A' for Active; 'I' for Inactive)
REMARK    1  A    between atoms: N1_1  and  C1_4
REMARK    2  A    between atoms: C2_7  and  S1_8
REMARK    3  A    between atoms: S1_8  and  N3_9
ROOT
HETATM    1  C1  UNL     1     -34.607  10.501 -39.366  1.00  0.00     0.160 A
HETATM    2  N2  UNL     1     -33.602  10.478 -40.219  1.00  0.00    -0.310 N
ATOM      3  H2  UNL     1     -32.650  10.639 -39.895  1.00  0.00     0.170 HD
HETATM    4  C2  UNL     1     -33.837  10.249 -41.481  1.00  0.00     0.232 A
HETATM    5  N4  UNL     1     -35.108  10.043 -41.848  1.00  0.00    -0.299 N
ATOM      6  H4  UNL     1     -35.482   9.850 -42.777  1.00  0.00     0.176 HD
HETATM    7  S2  UNL     1     -35.933  10.183 -40.389  1.00  0.00     0.024 SA
ENDROOT
BRANCH   4   8
HETATM    8  S1  UNL     1     -32.469  10.218 -42.643  1.00  0.00     0.289 S
HETATM    9  O1  UNL     1     -31.407   9.273 -42.112  1.00  0.00    -0.198 OA
HETATM   10  O2  UNL     1     -31.870  11.569 -42.704  1.00  0.00    -0.198 OA
BRANCH   8  11
HETATM   11  N3  UNL     1     -32.995   9.646 -44.169  1.00  0.00    -0.322 N
ATOM     12  H32 UNL     1     -32.859   8.690 -44.497  1.00  0.00     0.169 HD
ATOM     13  H31 UNL     1     -33.456  10.393 -44.689  1.00  0.00     0.169 HD
ENDBRANCH   8  11
ENDBRANCH   4   8
BRANCH   1  14
HETATM   14  N1  UNL     1     -34.646  10.703 -38.083  1.00  0.00    -0.378 N
ATOM     15  H12 UNL     1     -34.045  10.275 -37.379  1.00  0.00     0.158 HD
ATOM     16  H11 UNL     1     -35.244  11.298 -37.509  1.00  0.00     0.158 HD
ENDBRANCH   1  14
TORSDOF 3
ENDMDL