MODEL 4
REMARK VINA RESULT: -4.971037055      2.537      3.616
REMARK  1 active torsions:
REMARK  status: ('A' for Active; 'I' for Inactive)
REMARK    1  A    between atoms: C2_3  and  C3_4
REMARK       I    between atoms: C3_4  and  N2_6
ROOT
HETATM    1  N1  UNL     1     -35.615   8.035 -43.842  1.00  0.00    -0.197 NA
HETATM    2  C1  UNL     1     -34.895   8.770 -43.312  1.00  0.00     0.068 C
HETATM    3  C2  UNL     1     -33.967   9.732 -42.639  1.00  0.00     0.227 C
ENDROOT
BRANCH   3   4
HETATM    4  C3  UNL     1     -34.730  10.872 -42.140  1.00  0.00     0.252 C
HETATM    5  O1  UNL     1     -35.269  11.647 -43.018  1.00  0.00    -0.271 OA
HETATM    6  N2  UNL     1     -34.920  11.188 -40.777  1.00  0.00    -0.134 N
HETATM    7  C4  UNL     1     -35.711  12.379 -40.465  1.00  0.00     0.276 A
HETATM    8  C6  UNL     1     -34.361  10.371 -39.783  1.00  0.00     0.684 A
HETATM    9  N3  UNL     1     -35.824  12.590 -39.067  1.00  0.00    -0.347 N
HETATM   10  C5  UNL     1     -35.332  11.874 -38.140  1.00  0.00     0.204 A
ATOM     11  H3  UNL     1     -36.359  13.407 -38.773  1.00  0.00     0.163 HD
HETATM   12  N4  UNL     1     -35.569  12.270 -36.795  1.00  0.00    -0.063 NA
HETATM   13  N5  UNL     1     -34.573  10.724 -38.398  1.00  0.00    -0.164 N
ATOM     14  H5  UNL     1     -34.186  10.161 -37.640  1.00  0.00     0.187 HD
HETATM   15  N6  UNL     1     -33.666   9.313 -40.005  1.00  0.00    -0.234 N
ATOM     16  H62 UNL     1     -33.516   9.064 -40.982  1.00  0.00     0.174 HD
ATOM     17  H61 UNL     1     -33.259   8.718 -39.283  1.00  0.00     0.174 HD
ENDBRANCH   3   4
TORSDOF 1
ENDMDL