MODEL 4
REMARK VINA RESULT: -5.198999169      2.166      2.806
REMARK  2 active torsions:
REMARK  status: ('A' for Active; 'I' for Inactive)
REMARK    1  A    between atoms: N1_1  and  C1_4
REMARK    2  A    between atoms: C5_13  and  C6_14
ROOT
HETATM    1  C1  UNL     1     -32.694   9.807 -41.954  1.00  0.00     0.703 A
HETATM    2  N2  UNL     1     -33.169   9.758 -40.698  1.00  0.00    -0.140 N
ATOM      3  H2  UNL     1     -32.566  10.038 -39.925  1.00  0.00     0.189 HD
HETATM    4  C2  UNL     1     -34.438   9.344 -40.433  1.00  0.00     0.340 A
HETATM    5  O1  UNL     1     -34.880   9.297 -39.268  1.00  0.00    -0.246 OA
HETATM    6  N3  UNL     1     -35.249   8.971 -41.430  1.00  0.00    -0.292 N
ATOM      7  H3  UNL     1     -36.202   8.657 -41.242  1.00  0.00     0.172 HD
HETATM    8  C3  UNL     1     -34.771   9.021 -42.686  1.00  0.00     0.151 A
HETATM    9  C4  UNL     1     -35.307   8.721 -43.923  1.00  0.00     0.085 A
HETATM   10  C5  UNL     1     -34.360   8.958 -44.905  1.00  0.00     0.090 A
HETATM   11  N4  UNL     1     -33.277   9.393 -44.253  1.00  0.00    -0.275 N
ATOM     12  H4  UNL     1     -32.398   9.656 -44.698  1.00  0.00     0.188 HD
HETATM   13  N5  UNL     1     -33.505   9.433 -42.957  1.00  0.00    -0.069 N
ENDROOT
BRANCH   1  14
HETATM   14  N1  UNL     1     -31.476  10.210 -42.158  1.00  0.00    -0.233 N
ATOM     15  H12 UNL     1     -31.135  11.110 -41.820  1.00  0.00     0.174 HD
ATOM     16  H11 UNL     1     -30.833   9.611 -42.674  1.00  0.00     0.174 HD
ENDBRANCH   1  14
BRANCH  10  17
HETATM   17  C6  UNL     1     -34.552   8.760 -46.334  1.00  0.00     0.289 C
HETATM   18  O2  UNL     1     -33.893   7.888 -46.944  1.00  0.00    -0.300 OA
ENDBRANCH  10  17
TORSDOF 2
ENDMDL