MODEL 5
REMARK VINA RESULT: -4.920620070      2.508      4.769
REMARK  2 active torsions:
REMARK  status: ('A' for Active; 'I' for Inactive)
REMARK    1  A    between atoms: N1_1  and  N2_4
REMARK       I    between atoms: N2_4  and  C1_6
REMARK    2  A    between atoms: C1_6  and  C2_8
ROOT
HETATM    1  C2  UNL     1     -34.416   9.367 -42.097  1.00  0.00     0.121 A
HETATM    2  C3  UNL     1     -33.109   9.369 -41.614  1.00  0.00     0.125 A
HETATM    3  N3  UNL     1     -33.125   9.819 -40.372  1.00  0.00    -0.352 N
ATOM      4  H3  UNL     1     -32.309   9.929 -39.770  1.00  0.00     0.166 HD
HETATM    5  C4  UNL     1     -34.380  10.107 -40.038  1.00  0.00     0.101 A
HETATM    6  N4  UNL     1     -35.179   9.828 -41.101  1.00  0.00    -0.328 N
HETATM    7  C5  UNL     1     -36.579  10.085 -40.912  1.00  0.00     0.150 C
HETATM    8  C6  UNL     1     -36.726  11.412 -40.204  1.00  0.00     0.134 C
HETATM    9  N5  UNL     1     -36.081  11.468 -38.938  1.00  0.00    -0.413 N
ATOM     10  H5  UNL     1     -36.412  12.072 -38.185  1.00  0.00     0.153 HD
HETATM   11  C7  UNL     1     -34.943  10.627 -38.793  1.00  0.00     0.190 C
ENDROOT
BRANCH   1  12
HETATM   12  C1  UNL     1     -34.880   8.955 -43.397  1.00  0.00     0.287 C
HETATM   13  N2  UNL     1     -34.596   7.640 -43.922  1.00  0.00    -0.271 N
ATOM     14  H2  UNL     1     -34.052   7.004 -43.340  1.00  0.00     0.189 HD
HETATM   15  O1  UNL     1     -35.541   9.716 -44.114  1.00  0.00    -0.264 OA
BRANCH  13  16
HETATM   16  N1  UNL     1     -35.007   7.188 -45.146  1.00  0.00    -0.342 N
ATOM     17  H12 UNL     1     -35.719   7.741 -45.623  1.00  0.00     0.176 HD
ATOM     18  H11 UNL     1     -34.652   6.346 -45.601  1.00  0.00     0.176 HD
ENDBRANCH  13  16
ENDBRANCH   1  12
TORSDOF 2
ENDMDL