MODEL 1
REMARK VINA RESULT: -9.060193370      0.000      0.000
REMARK  8 active torsions:
REMARK  status: ('A' for Active; 'I' for Inactive)
REMARK    1  A    between atoms: C9_9  and  C10_10
REMARK    2  A    between atoms: C10_10  and  C11_11
REMARK    3  A    between atoms: C11_11  and  C12_12
REMARK    4  A    between atoms: C12_12  and  C13_13
REMARK    5  A    between atoms: C14_14  and  O1_15
REMARK    6  A    between atoms: C15_17  and  O2_18
REMARK    7  A    between atoms: C15_17  and  N1_20
REMARK    8  A    between atoms: C20_25  and  C21_26
ROOT
HETATM    1  C12 UNL     1      12.849   8.578   1.990  1.00  0.00    -0.006 C
HETATM    2  C15 UNL     1      13.858   7.911   2.678  1.00  0.00     0.145 C
ENDROOT
BRANCH   1   3
HETATM    3  C11 UNL     1      11.477   7.782   2.009  1.00  0.00     0.044 C
BRANCH   3   4
HETATM    4  C10 UNL     1      10.389   8.793   2.142  1.00  0.00     0.016 C
BRANCH   4   5
HETATM    5  C9  UNL     1       9.795   8.831   3.550  1.00  0.00     0.040 C
HETATM    6  C7  UNL     1       9.132  10.121   3.886  1.00  0.00    -0.028 C
HETATM    7  C2  UNL     1       8.095   9.677   4.941  1.00  0.00    -0.031 C
HETATM    8  C6  UNL     1       8.167  10.497   2.801  1.00  0.00     0.011 C
HETATM    9  C8  UNL     1      10.007  11.199   4.364  1.00  0.00     0.016 C
HETATM   10  C1  UNL     1       8.744   9.095   6.141  1.00  0.00     0.016 C
HETATM   11  C3  UNL     1       7.146  10.759   5.310  1.00  0.00     0.016 C
HETATM   12  C4  UNL     1       7.462   8.609   4.040  1.00  0.00     0.040 C
HETATM   13  C5  UNL     1       7.091   9.410   2.845  1.00  0.00     0.012 C
HETATM   14  C23 UNL     1       8.707   7.834   3.729  1.00  0.00    -0.010 C
HETATM   15  N2  UNL     1       8.694   6.572   3.675  1.00  0.00    -0.405 N
ATOM     16  H22 UNL     1       7.948   5.888   3.798  1.00  0.00     0.155 HD
ATOM     17  H21 UNL     1       9.542   6.044   3.463  1.00  0.00     0.155 HD
ENDBRANCH   4   5
ENDBRANCH   3   4
ENDBRANCH   1   3
BRANCH   1  18
HETATM   18  C13 UNL     1      12.674   9.709   1.431  1.00  0.00     0.035 C
HETATM   19  C14 UNL     1      13.164  10.538   0.354  1.00  0.00     0.132 C
BRANCH  19  20
HETATM   20  O1  UNL     1      14.128  10.196  -0.489  1.00  0.00    -0.373 OA
ATOM     21  H1  UNL     1      13.991   9.893  -1.379  1.00  0.00     0.216 HD
ENDBRANCH  19  20
ENDBRANCH   1  18
BRANCH   2  22
HETATM   22  O2  UNL     1      13.525   6.593   2.876  1.00  0.00    -0.346 OA
ATOM     23  H2  UNL     1      14.181   6.154   3.404  1.00  0.00     0.219 HD
ENDBRANCH   2  22
BRANCH   2  24
HETATM   24  N1  UNL     1      15.108   8.124   3.253  1.00  0.00    -0.351 N
HETATM   25  C16 UNL     1      15.874   9.110   3.929  1.00  0.00     0.088 C
HETATM   26  C17 UNL     1      16.466   8.342   5.105  1.00  0.00     0.027 C
HETATM   27  C22 UNL     1      17.003   9.339   2.934  1.00  0.00     0.042 C
HETATM   28  C18 UNL     1      16.426   6.897   4.659  1.00  0.00     0.028 C
HETATM   29  C19 UNL     1      16.212   7.066   3.200  1.00  0.00     0.101 C
HETATM   30  C20 UNL     1      17.304   7.869   2.601  1.00  0.00     0.111 C
BRANCH  30  31
HETATM   31  C21 UNL     1      17.512   7.671   1.173  1.00  0.00     0.179 C
HETATM   32  O3  UNL     1      16.915   6.756   0.566  1.00  0.00    -0.648 OA
HETATM   33  O4  UNL     1      18.368   8.490   0.479  1.00  0.00    -0.648 OA
ENDBRANCH  30  31
ENDBRANCH   2  24
TORSDOF 8
ENDMDL