MODEL 4
REMARK VINA RESULT: -9.861481781      0.994      1.910
REMARK  6 active torsions:
REMARK  status: ('A' for Active; 'I' for Inactive)
REMARK    1  A    between atoms: C1_2  and  C2_3
REMARK    2  A    between atoms: C1_2  and  C8_12
REMARK    3  A    between atoms: C2_3  and  C3_4
REMARK    4  A    between atoms: C8_12  and  C9_13
REMARK    5  A    between atoms: C8_12  and  C15_19
REMARK       I    between atoms: C15_19  and  N2_21
REMARK    6  A    between atoms: N2_21  and  C16_23
ROOT
HETATM    1  C8  UNL     1      13.086  10.460   1.689  1.00  0.00     0.170 C
ENDROOT
BRANCH   1   2
HETATM    2  C1  UNL     1      13.951  10.463   2.869  1.00  0.00     0.143 C
HETATM    3  O1  UNL     1      13.660  11.287   3.758  1.00  0.00    -0.297 OA
BRANCH   2   4
HETATM    4  C2  UNL     1      15.113   9.596   3.096  1.00  0.00     0.084 C
BRANCH   4   5
HETATM    5  C3  UNL     1      14.783   8.523   4.127  1.00  0.00    -0.004 C
HETATM    6  C4  UNL     1      15.028   7.164   3.544  1.00  0.00     0.032 C
HETATM    7  C5  UNL     1      15.925   6.366   4.473  1.00  0.00     0.232 C
HETATM    8  N1  UNL     1      17.215   6.994   4.560  1.00  0.00    -0.075 N
HETATM    9  C6  UNL     1      17.105   8.331   5.056  1.00  0.00     0.232 C
ATOM     10  H12 UNL     1      17.865   6.439   5.118  1.00  0.00     0.277 HD
ATOM     11  H11 UNL     1      17.708   6.963   3.668  1.00  0.00     0.277 HD
HETATM   12  C7  UNL     1      15.680   8.760   5.309  1.00  0.00     0.032 C
ENDBRANCH   4   5
ENDBRANCH   2   4
ENDBRANCH   1   2
BRANCH   1  13
HETATM   13  C9  UNL     1      13.013  11.791   1.031  1.00  0.00    -0.002 C
HETATM   14  C10 UNL     1      13.824  12.183   0.083  1.00  0.00    -0.082 C
HETATM   15  C11 UNL     1      13.771  13.508  -0.591  1.00  0.00     0.034 C
HETATM   16  C14 UNL     1      14.963  11.427  -0.535  1.00  0.00     0.034 C
HETATM   17  C12 UNL     1      14.264  13.162  -1.980  1.00  0.00     0.005 C
HETATM   18  C13 UNL     1      15.485  12.304  -1.623  1.00  0.00     0.005 C
ENDBRANCH   1  13
BRANCH   1  19
HETATM   19  C15 UNL     1      11.757   9.928   2.034  1.00  0.00     0.233 C
HETATM   20  O2  UNL     1      11.264   8.996   1.337  1.00  0.00    -0.272 OA
HETATM   21  N2  UNL     1      11.050  10.467   3.138  1.00  0.00    -0.351 N
ATOM     22  H2  UNL     1      11.491  11.217   3.671  1.00  0.00     0.163 HD
BRANCH  21  23
HETATM   23  C16 UNL     1       9.739  10.013   3.549  1.00  0.00     0.034 C
HETATM   24  C17 UNL     1       9.734   8.561   3.897  1.00  0.00     0.035 C
HETATM   25  C18 UNL     1       8.399   8.169   4.516  1.00  0.00    -0.012 C
HETATM   26  C19 UNL     1       7.358   8.339   3.440  1.00  0.00     0.009 C
HETATM   27  C23 UNL     1       8.160   9.003   5.728  1.00  0.00     0.009 C
HETATM   28  C20 UNL     1       7.357   9.800   3.023  1.00  0.00    -0.012 C
HETATM   29  C21 UNL     1       6.929  10.598   4.222  1.00  0.00     0.009 C
HETATM   30  C25 UNL     1       8.692  10.221   2.466  1.00  0.00     0.035 C
HETATM   31  C22 UNL     1       7.980  10.440   5.289  1.00  0.00    -0.012 C
HETATM   32  C24 UNL     1       9.294  10.887   4.710  1.00  0.00     0.035 C
ENDBRANCH  21  23
ENDBRANCH   1  19
TORSDOF 6
ENDMDL