MODEL 3
REMARK VINA RESULT: -9.921407732      2.107      3.606
REMARK  7 active torsions:
REMARK  status: ('A' for Active; 'I' for Inactive)
REMARK    1  A    between atoms: C2_2  and  C3_3
REMARK    2  A    between atoms: C2_2  and  C8_8
REMARK    3  A    between atoms: C11_11  and  C12_12
REMARK    4  A    between atoms: C12_12  and  N1_13
REMARK       I    between atoms: N1_13  and  C13_15
REMARK    5  A    between atoms: C13_15  and  C14_17
REMARK    6  A    between atoms: C14_17  and  N2_18
REMARK       I    between atoms: N2_18  and  C15_20
REMARK    7  A    between atoms: C15_20  and  C16_22
ROOT
HETATM    1  N1  UNL     1      13.381   7.845   2.515  1.00  0.00    -0.357 N
ATOM      2  H1  UNL     1      12.871   7.788   1.633  1.00  0.00     0.162 HD
HETATM    3  C13 UNL     1      14.693   8.398   2.523  1.00  0.00     0.246 C
HETATM    4  O1  UNL     1      15.291   8.456   3.625  1.00  0.00    -0.271 OA
ENDROOT
BRANCH   1   5
HETATM    5  C12 UNL     1      12.750   7.362   3.727  1.00  0.00     0.147 C
BRANCH   5   6
HETATM    6  C11 UNL     1      11.535   8.194   4.003  1.00  0.00     0.094 C
HETATM    7  C10 UNL     1      11.189   9.106   2.869  1.00  0.00     0.027 C
HETATM    8  C9  UNL     1      10.201  10.136   3.446  1.00  0.00     0.013 C
HETATM    9  C8  UNL     1       9.057   9.393   4.073  1.00  0.00     0.031 C
HETATM   10  C24 UNL     1       9.134   7.890   3.850  1.00  0.00     0.123 C
HETATM   11  N3  UNL     1      10.397   7.401   4.354  1.00  0.00    -0.415 N
ATOM     12  H3  UNL     1      10.472   6.554   4.917  1.00  0.00     0.153 HD
BRANCH   9  13
HETATM   13  C2  UNL     1       7.730   9.978   3.857  1.00  0.00    -0.079 C
HETATM   14  C1  UNL     1       7.250  10.718   4.856  1.00  0.00     0.015 C
BRANCH  13  15
HETATM   15  C3  UNL     1       6.901   9.827   2.658  1.00  0.00     0.014 C
HETATM   16  C4  UNL     1       7.341  10.497   1.412  1.00  0.00     0.009 C
HETATM   17  C5  UNL     1       6.070  11.088   0.772  1.00  0.00     0.001 C
HETATM   18  C6  UNL     1       5.030  10.097   1.323  1.00  0.00     0.001 C
HETATM   19  C7  UNL     1       5.443  10.160   2.811  1.00  0.00     0.009 C
ENDBRANCH  13  15
ENDBRANCH   9  13
ENDBRANCH   5   6
ENDBRANCH   1   5
BRANCH   3  20
HETATM   20  C14 UNL     1      15.292   8.871   1.280  1.00  0.00     0.113 C
HETATM   21  C20 UNL     1      16.596   9.580   1.589  1.00  0.00     0.041 C
HETATM   22  C21 UNL     1      17.228   9.666   0.210  1.00  0.00     0.003 C
HETATM   23  C22 UNL     1      16.731   8.436  -0.534  1.00  0.00     0.003 C
HETATM   24  C23 UNL     1      15.827   7.709   0.435  1.00  0.00     0.041 C
BRANCH  20  25
HETATM   25  N2  UNL     1      14.406   9.676   0.504  1.00  0.00    -0.342 N
HETATM   26  C15 UNL     1      13.950  10.932   0.941  1.00  0.00     0.226 C
HETATM   27  O2  UNL     1      14.319  11.386   2.044  1.00  0.00    -0.273 OA
ATOM     28  H2  UNL     1      14.092   9.328  -0.402  1.00  0.00     0.163 HD
BRANCH  26  29
HETATM   29  C16 UNL     1      13.027  11.738   0.110  1.00  0.00     0.030 C
HETATM   30  C17 UNL     1      11.735  10.994  -0.052  1.00  0.00     0.024 C
HETATM   31  C18 UNL     1      12.805  13.068   0.793  1.00  0.00     0.024 C
HETATM   32  C19 UNL     1      13.672  11.967  -1.240  1.00  0.00     0.024 C
ENDBRANCH  26  29
ENDBRANCH  20  25
ENDBRANCH   3  20
TORSDOF 7
ENDMDL