MODEL 5
REMARK VINA RESULT: -9.504807163      1.606      2.381
REMARK  6 active torsions:
REMARK  status: ('A' for Active; 'I' for Inactive)
REMARK       I    between atoms: C1_2  and  N1_3
REMARK       I    between atoms: C1_2  and  N3_21
REMARK    1  A    between atoms: N1_3  and  C2_5
REMARK    2  A    between atoms: C2_5  and  C3_6
REMARK    3  A    between atoms: C6_9  and  C7_10
REMARK       I    between atoms: C7_10  and  N2_12
REMARK    4  A    between atoms: N2_12  and  C8_14
REMARK    5  A    between atoms: C8_14  and  C9_15
REMARK    6  A    between atoms: N3_21  and  C14_23
ROOT
HETATM    1  C2  UNL     1      13.579   6.899   3.055  1.00  0.00     0.129 C
ENDROOT
BRANCH   1   2
HETATM    2  N1  UNL     1      12.423   6.949   3.883  1.00  0.00    -0.343 N
HETATM    3  C1  UNL     1      11.352   7.832   3.644  1.00  0.00     0.316 C
HETATM    4  O1  UNL     1      11.319   8.652   2.669  1.00  0.00    -0.247 OA
HETATM    5  N3  UNL     1      10.240   7.839   4.503  1.00  0.00    -0.334 N
ATOM      6  H3  UNL     1      10.255   7.185   5.286  1.00  0.00     0.165 HD
ATOM      7  H1  UNL     1      12.368   6.318   4.682  1.00  0.00     0.164 HD
BRANCH   5   8
HETATM    8  C14 UNL     1       9.089   8.683   4.378  1.00  0.00     0.039 C
HETATM    9  C15 UNL     1       8.311   8.880   5.655  1.00  0.00     0.036 C
HETATM   10  C16 UNL     1       7.576  10.188   5.330  1.00  0.00    -0.011 C
HETATM   11  C17 UNL     1       6.665  10.027   4.135  1.00  0.00     0.009 C
HETATM   12  C21 UNL     1       8.753  11.043   4.876  1.00  0.00     0.012 C
HETATM   13  C18 UNL     1       7.362   9.395   2.975  1.00  0.00    -0.011 C
HETATM   14  C19 UNL     1       8.576  10.256   2.601  1.00  0.00     0.012 C
HETATM   15  C22 UNL     1       8.082   8.108   3.374  1.00  0.00     0.036 C
HETATM   16  C20 UNL     1       9.405  10.080   3.882  1.00  0.00     0.014 C
ENDBRANCH   5   8
ENDBRANCH   1   2
BRANCH   1  17
HETATM   17  C3  UNL     1      14.612   7.861   3.539  1.00  0.00     0.004 C
HETATM   18  C4  UNL     1      15.870   7.157   4.002  1.00  0.00     0.007 C
HETATM   19  C5  UNL     1      16.980   7.640   3.096  1.00  0.00     0.014 C
HETATM   20  C6  UNL     1      16.200   7.866   1.797  1.00  0.00     0.078 C
HETATM   21  C13 UNL     1      15.042   8.683   2.320  1.00  0.00     0.020 C
BRANCH  20  22
HETATM   22  C7  UNL     1      16.997   8.575   0.799  1.00  0.00     0.222 C
HETATM   23  O2  UNL     1      18.169   8.218   0.529  1.00  0.00    -0.273 OA
HETATM   24  N2  UNL     1      16.437   9.691   0.119  1.00  0.00    -0.356 N
ATOM     25  H2  UNL     1      15.485   9.983   0.336  1.00  0.00     0.162 HD
BRANCH  24  26
HETATM   26  C8  UNL     1      17.189  10.414  -0.868  1.00  0.00     0.168 C
BRANCH  26  27
HETATM   27  C9  UNL     1      16.737   9.959  -2.229  1.00  0.00     0.000 A
HETATM   28  C10 UNL     1      17.471   9.297  -3.178  1.00  0.00     0.017 A
HETATM   29  C11 UNL     1      16.857   8.990  -4.324  1.00  0.00     0.008 A
HETATM   30  C12 UNL     1      15.548   9.359  -4.461  1.00  0.00     0.050 A
HETATM   31  S1  UNL     1      15.214  10.128  -2.975  1.00  0.00    -0.105 SA
ENDBRANCH  26  27
ENDBRANCH  24  26
ENDBRANCH  20  22
ENDBRANCH   1  17
TORSDOF 6
ENDMDL