MODEL 2
REMARK VINA RESULT: -8.701777079      3.605      6.442
REMARK  6 active torsions:
REMARK  status: ('A' for Active; 'I' for Inactive)
REMARK    1  A    between atoms: C11_11  and  C12_12
REMARK       I    between atoms: C12_12  and  N1_14
REMARK    2  A    between atoms: N1_14  and  C13_16
REMARK    3  A    between atoms: C13_16  and  C14_17
REMARK    4  A    between atoms: C13_16  and  C16_20
REMARK    5  A    between atoms: C14_17  and  C15_18
REMARK       I    between atoms: C16_20  and  N2_22
REMARK    6  A    between atoms: N2_22  and  C17_24
ROOT
HETATM    1  C12 UNL     1      13.257  10.423   2.412  1.00  0.00     0.223 C
HETATM    2  O1  UNL     1      12.974  11.630   2.700  1.00  0.00    -0.273 OA
HETATM    3  N1  UNL     1      12.988  10.013   1.085  1.00  0.00    -0.347 N
ATOM      4  H1  UNL     1      13.199   9.053   0.810  1.00  0.00     0.163 HD
ENDROOT
BRANCH   3   5
HETATM    5  C13 UNL     1      12.407  10.942   0.082  1.00  0.00     0.177 C
BRANCH   5   6
HETATM    6  C14 UNL     1      11.096  10.407  -0.373  1.00  0.00     0.046 C
BRANCH   6   7
HETATM    7  C15 UNL     1      10.073  10.032   0.603  1.00  0.00     0.088 C
HETATM    8  S1  UNL     1       8.389   9.984  -0.133  1.00  0.00    -0.098 SA
ENDBRANCH   6   7
ENDBRANCH   5   6
BRANCH   5   9
HETATM    9  C16 UNL     1      13.402  11.181  -0.987  1.00  0.00     0.240 C
HETATM   10  O2  UNL     1      13.237  12.301  -1.613  1.00  0.00    -0.271 OA
HETATM   11  N2  UNL     1      14.457  10.377  -1.391  1.00  0.00    -0.355 N
ATOM     12  H2  UNL     1      14.589   9.491  -0.904  1.00  0.00     0.162 HD
BRANCH  11  13
HETATM   13  C17 UNL     1      15.391  10.703  -2.460  1.00  0.00     0.084 C
HETATM   14  C18 UNL     1      15.441   9.674  -3.534  1.00  0.00     0.025 C
HETATM   15  C19 UNL     1      16.476   8.623  -3.370  1.00  0.00     0.002 C
HETATM   16  C20 UNL     1      17.826   9.307  -3.119  1.00  0.00     0.000 C
HETATM   17  C21 UNL     1      17.666   9.925  -1.723  1.00  0.00     0.002 C
HETATM   18  C22 UNL     1      16.700  11.048  -1.847  1.00  0.00     0.025 C
ENDBRANCH  11  13
ENDBRANCH   5   9
ENDBRANCH   3   5
BRANCH   1  19
HETATM   19  C11 UNL     1      13.845   9.494   3.442  1.00  0.00     0.090 C
HETATM   20  C2  UNL     1      12.781   8.784   4.201  1.00  0.00    -0.035 C
HETATM   21  C1  UNL     1      12.156   9.755   5.189  1.00  0.00     0.015 C
HETATM   22  C3  UNL     1      11.694   8.169   3.371  1.00  0.00     0.015 C
HETATM   23  C4  UNL     1      13.428   7.639   4.970  1.00  0.00     0.010 C
HETATM   24  C5  UNL     1      13.885   6.646   3.936  1.00  0.00     0.006 C
HETATM   25  C6  UNL     1      15.034   7.265   3.201  1.00  0.00    -0.010 C
HETATM   26  C7  UNL     1      16.292   7.071   4.006  1.00  0.00     0.005 C
HETATM   27  C10 UNL     1      14.899   8.675   2.809  1.00  0.00     0.003 C
HETATM   28  C8  UNL     1      16.772   8.455   4.278  1.00  0.00     0.001 C
HETATM   29  C9  UNL     1      16.259   9.274   3.123  1.00  0.00     0.006 C
ENDBRANCH   1  19
TORSDOF 6
ENDMDL