MODEL 1
REMARK VINA RESULT: -10.287149227      0.000      0.000
REMARK  6 active torsions:
REMARK  status: ('A' for Active; 'I' for Inactive)
REMARK       I    between atoms: C1_2  and  N1_3
REMARK    1  A    between atoms: C1_2  and  C14_20
REMARK    2  A    between atoms: N1_3  and  C2_5
REMARK    3  A    between atoms: C2_5  and  C3_6
REMARK       I    between atoms: C3_6  and  N2_8
REMARK    4  A    between atoms: N2_8  and  C4_10
REMARK    5  A    between atoms: C17_26  and  C18_27
REMARK    6  A    between atoms: C18_27  and  C19_28
ROOT
HETATM    1  O1  UNL     1      12.352  10.740   3.586  1.00  0.00    -0.273 OA
HETATM    2  C1  UNL     1      12.059   9.752   2.864  1.00  0.00     0.224 C
HETATM    3  N1  UNL     1      12.472   9.700   1.510  1.00  0.00    -0.343 N
ATOM      4  H1  UNL     1      12.209   8.879   0.965  1.00  0.00     0.163 HD
ENDROOT
BRANCH   3   5
HETATM    5  C2  UNL     1      13.247  10.739   0.843  1.00  0.00     0.113 C
HETATM    6  C10 UNL     1      12.509  11.419  -0.259  1.00  0.00     0.041 C
HETATM    7  C11 UNL     1      12.393  12.870   0.078  1.00  0.00     0.003 C
HETATM    8  C12 UNL     1      13.426  13.125   1.128  1.00  0.00     0.003 C
HETATM    9  C13 UNL     1      13.684  11.807   1.781  1.00  0.00     0.041 C
BRANCH   5  10
HETATM   10  C3  UNL     1      14.422  10.065   0.233  1.00  0.00     0.246 C
HETATM   11  O2  UNL     1      15.111   9.232   0.881  1.00  0.00    -0.271 OA
HETATM   12  N2  UNL     1      14.809  10.331  -1.081  1.00  0.00    -0.354 N
ATOM     13  H2  UNL     1      14.262  11.003  -1.618  1.00  0.00     0.162 HD
BRANCH  12  14
HETATM   14  C4  UNL     1      15.954   9.700  -1.729  1.00  0.00     0.084 C
HETATM   15  C5  UNL     1      15.697   9.459  -3.198  1.00  0.00     0.025 C
HETATM   16  C6  UNL     1      16.890   8.642  -3.707  1.00  0.00     0.002 C
HETATM   17  C7  UNL     1      18.147   9.431  -3.538  1.00  0.00     0.000 C
HETATM   18  C8  UNL     1      18.339   9.942  -2.145  1.00  0.00     0.002 C
HETATM   19  C9  UNL     1      17.110  10.673  -1.633  1.00  0.00     0.025 C
ENDBRANCH  12  14
ENDBRANCH   5  10
ENDBRANCH   3   5
BRANCH   2  20
HETATM   20  C14 UNL     1      11.277   8.632   3.418  1.00  0.00     0.109 C
HETATM   21  C15 UNL     1      10.720   7.716   2.382  1.00  0.00     0.246 C
HETATM   22  N3  UNL     1       9.563   7.083   2.988  1.00  0.00    -0.074 N
HETATM   23  C16 UNL     1       9.304   7.749   4.228  1.00  0.00     0.237 C
ATOM     24  H32 UNL     1       8.751   7.064   2.369  1.00  0.00     0.277 HD
ATOM     25  H31 UNL     1       9.674   6.074   3.095  1.00  0.00     0.277 HD
HETATM   26  C17 UNL     1       9.996   9.115   4.105  1.00  0.00     0.026 C
BRANCH  26  27
HETATM   27  C18 UNL     1       9.166   9.958   3.185  1.00  0.00     0.011 C
BRANCH  27  28
HETATM   28  C19 UNL     1       7.757  10.008   3.653  1.00  0.00    -0.014 C
HETATM   29  C20 UNL     1       7.519  10.848   4.884  1.00  0.00     0.005 C
HETATM   30  C21 UNL     1       6.140  10.492   5.398  1.00  0.00     0.000 C
HETATM   31  C22 UNL     1       5.056  10.640   4.391  1.00  0.00     0.000 C
HETATM   32  C23 UNL     1       5.419  10.112   3.026  1.00  0.00     0.000 C
HETATM   33  C24 UNL     1       6.801  10.530   2.598  1.00  0.00     0.005 C
ENDBRANCH  27  28
ENDBRANCH  26  27
ENDBRANCH   2  20
TORSDOF 6
ENDMDL