MODEL 3
REMARK VINA RESULT: -8.874634296      3.754      5.533
REMARK  8 active torsions:
REMARK  status: ('A' for Active; 'I' for Inactive)
REMARK    1  A    between atoms: C6_7  and  C7_8
REMARK    2  A    between atoms: C7_8  and  C8_9
REMARK    3  A    between atoms: C8_9  and  C9_10
REMARK    4  A    between atoms: C8_9  and  C21_25
REMARK    5  A    between atoms: C9_10  and  C10_11
REMARK       I    between atoms: C10_11  and  N2_13
REMARK    6  A    between atoms: N2_13  and  C11_15
REMARK    7  A    between atoms: C21_25  and  O2_26
REMARK    8  A    between atoms: N3_28  and  O3_30
ROOT
HETATM    1  C8  UNL     1      16.708   9.643  -1.423  1.00  0.00     0.071 C
ENDROOT
BRANCH   1   2
HETATM    2  C7  UNL     1      16.702  11.147  -1.483  1.00  0.00     0.019 C
BRANCH   2   3
HETATM    3  C6  UNL     1      15.283  11.651  -1.432  1.00  0.00     0.012 C
HETATM    4  C5  UNL     1      15.314  13.146  -1.525  1.00  0.00     0.008 C
HETATM    5  C4  UNL     1      13.905  13.659  -1.196  1.00  0.00     0.028 C
HETATM    6  C3  UNL     1      13.680  13.300   0.254  1.00  0.00     0.236 C
HETATM    7  N1  UNL     1      13.589  11.863   0.380  1.00  0.00    -0.074 N
HETATM    8  C1  UNL     1      13.456  11.565   1.798  1.00  0.00     0.272 C
HETATM    9  C2  UNL     1      12.354  11.392  -0.260  1.00  0.00     0.272 C
HETATM   10  C22 UNL     1      14.705  11.157  -0.126  1.00  0.00     0.241 C
ENDBRANCH   2   3
ENDBRANCH   1   2
BRANCH   1  11
HETATM   11  C9  UNL     1      17.997   9.173  -0.820  1.00  0.00     0.115 C
BRANCH  11  12
HETATM   12  C10 UNL     1      17.791   8.985   0.651  1.00  0.00     0.218 C
HETATM   13  O1  UNL     1      18.673   9.334   1.447  1.00  0.00    -0.274 OA
HETATM   14  N2  UNL     1      16.576   8.408   1.052  1.00  0.00    -0.352 N
ATOM     15  H2  UNL     1      15.894   8.147   0.341  1.00  0.00     0.163 HD
BRANCH  14  16
HETATM   16  C11 UNL     1      16.263   8.174   2.431  1.00  0.00     0.034 C
HETATM   17  C12 UNL     1      15.052   7.253   2.465  1.00  0.00     0.035 C
HETATM   18  C13 UNL     1      14.622   6.991   3.890  1.00  0.00    -0.012 C
HETATM   19  C14 UNL     1      15.795   6.298   4.551  1.00  0.00     0.009 C
HETATM   20  C18 UNL     1      14.259   8.283   4.541  1.00  0.00     0.009 C
HETATM   21  C15 UNL     1      16.977   7.227   4.598  1.00  0.00    -0.012 C
HETATM   22  C16 UNL     1      16.565   8.495   5.309  1.00  0.00     0.009 C
HETATM   23  C20 UNL     1      17.416   7.589   3.195  1.00  0.00     0.035 C
HETATM   24  C17 UNL     1      15.481   9.191   4.553  1.00  0.00    -0.012 C
HETATM   25  C19 UNL     1      15.829   9.455   3.103  1.00  0.00     0.035 C
ENDBRANCH  14  16
ENDBRANCH  11  12
ENDBRANCH   1  11
BRANCH   1  26
HETATM   26  C21 UNL     1      16.516   9.089  -2.808  1.00  0.00     0.140 C
HETATM   27  N3  UNL     1      15.458   8.443  -3.149  1.00  0.00    -0.251 N
ATOM     28  H3  UNL     1      14.721   8.300  -2.458  1.00  0.00     0.196 HD
BRANCH  26  29
HETATM   29  O2  UNL     1      17.503   9.268  -3.765  1.00  0.00    -0.348 OA
ATOM     30  H2  UNL     1      18.417   9.168  -3.524  1.00  0.00     0.219 HD
ENDBRANCH  26  29
BRANCH  27  31
HETATM   31  O3  UNL     1      15.290   7.941  -4.412  1.00  0.00    -0.288 OA
ATOM     32  H3  UNL     1      14.982   7.055  -4.565  1.00  0.00     0.244 HD
ENDBRANCH  27  31
ENDBRANCH   1  26
TORSDOF 8
ENDMDL