MODEL 5
REMARK VINA RESULT: -8.836055623      2.460      3.773
REMARK  8 active torsions:
REMARK  status: ('A' for Active; 'I' for Inactive)
REMARK    1  A    between atoms: C1_2  and  C2_3
REMARK       I    between atoms: C1_2  and  N6_27
REMARK    2  A    between atoms: C2_3  and  C3_4
REMARK    3  A    between atoms: C3_4  and  C4_5
REMARK    4  A    between atoms: C4_5  and  C12_20
REMARK    5  A    between atoms: N1_6  and  N2_8
REMARK    6  A    between atoms: N2_8  and  C5_10
REMARK    7  A    between atoms: C5_10  and  N3_12
REMARK    8  A    between atoms: N3_12  and  C6_14
ROOT
HETATM    1  C4  UNL     1      12.559   9.814   1.913  1.00  0.00     0.054 C
HETATM    2  N1  UNL     1      12.113  10.356   0.852  1.00  0.00    -0.300 N
ATOM      3  H1  UNL     1      11.323  10.992   0.956  1.00  0.00     0.186 HD
ENDROOT
BRANCH   1   4
HETATM    4  C3  UNL     1      11.924  10.131   3.198  1.00  0.00     0.070 C
BRANCH   4   5
HETATM    5  C2  UNL     1      11.196   8.919   3.720  1.00  0.00     0.109 C
BRANCH   5   6
HETATM    6  C1  UNL     1       9.887   8.725   3.068  1.00  0.00     0.220 C
HETATM    7  O1  UNL     1       9.850   8.164   1.949  1.00  0.00    -0.273 OA
HETATM    8  N6  UNL     1       8.726   9.170   3.710  1.00  0.00    -0.343 N
HETATM    9  C15 UNL     1       8.885   9.823   5.042  1.00  0.00     0.205 C
HETATM   10  C20 UNL     1       7.415   8.988   3.088  1.00  0.00     0.127 C
HETATM   11  C16 UNL     1       7.638  10.429   5.378  1.00  0.00    -0.163 C
HETATM   12  C17 UNL     1       6.330  10.922   5.441  1.00  0.00     0.081 C
HETATM   13  C18 UNL     1       5.569  10.476   4.147  1.00  0.00     0.013 C
HETATM   14  C19 UNL     1       6.491  10.109   3.019  1.00  0.00     0.021 C
ENDBRANCH   5   6
ENDBRANCH   4   5
ENDBRANCH   1   4
BRANCH   1  15
HETATM   15  C12 UNL     1      13.662   8.875   1.807  1.00  0.00     0.072 A
HETATM   16  C13 UNL     1      15.010   9.082   2.053  1.00  0.00     0.120 A
HETATM   17  N4  UNL     1      15.664   7.927   1.834  1.00  0.00    -0.360 N
HETATM   18  C14 UNL     1      14.789   6.984   1.456  1.00  0.00     0.180 A
ATOM     19  H4  UNL     1      16.669   7.791   1.940  1.00  0.00     0.166 HD
HETATM   20  N5  UNL     1      13.583   7.565   1.442  1.00  0.00    -0.350 N
ATOM     21  H5  UNL     1      12.716   7.088   1.191  1.00  0.00     0.166 HD
ENDBRANCH   1  15
BRANCH   2  22
HETATM   22  N2  UNL     1      12.595  10.166  -0.428  1.00  0.00    -0.276 N
ATOM     23  H2  UNL     1      12.298   9.325  -0.922  1.00  0.00     0.189 HD
BRANCH  22  24
HETATM   24  C5  UNL     1      13.470  11.054  -1.112  1.00  0.00     0.186 C
HETATM   25  S1  UNL     1      13.834  12.437  -0.286  1.00  0.00    -0.040 SA
BRANCH  24  26
HETATM   26  N3  UNL     1      13.963  10.737  -2.379  1.00  0.00    -0.361 N
ATOM     27  H3  UNL     1      13.267  10.697  -3.123  1.00  0.00     0.162 HD
BRANCH  26  28
HETATM   28  C6  UNL     1      15.300  10.460  -2.777  1.00  0.00     0.083 C
HETATM   29  C7  UNL     1      16.076   9.743  -1.698  1.00  0.00     0.025 C
HETATM   30  C8  UNL     1      17.524   9.582  -2.126  1.00  0.00     0.002 C
HETATM   31  C9  UNL     1      17.621   9.082  -3.554  1.00  0.00     0.000 C
HETATM   32  C10 UNL     1      16.300   8.484  -3.939  1.00  0.00     0.002 C
HETATM   33  C11 UNL     1      15.286   9.605  -4.024  1.00  0.00     0.025 C
ENDBRANCH  26  28
ENDBRANCH  24  26
ENDBRANCH  22  24
ENDBRANCH   2  22
TORSDOF 8
ENDMDL