MODEL 1
REMARK VINA RESULT: -10.292845972      0.000      0.000
REMARK  6 active torsions:
REMARK  status: ('A' for Active; 'I' for Inactive)
REMARK    1  A    between atoms: C4_4  and  C5_5
REMARK    2  A    between atoms: C5_5  and  C6_6
REMARK    3  A    between atoms: C13_14  and  N1_15
REMARK       I    between atoms: N1_15  and  C14_17
REMARK    4  A    between atoms: C14_17  and  C15_19
REMARK    5  A    between atoms: C15_19  and  N2_20
REMARK       I    between atoms: N2_20  and  C16_22
REMARK       I    between atoms: C16_22  and  N3_24
REMARK    6  A    between atoms: N3_24  and  C17_26
ROOT
HETATM    1  C6  UNL     1       7.485  10.068   3.231  1.00  0.00    -0.013 C
HETATM    2  C7  UNL     1       7.093   8.630   3.178  1.00  0.00     0.177 C
HETATM    3  O1  UNL     1       8.154   7.745   3.296  1.00  0.00    -0.385 OA
HETATM    4  C8  UNL     1       9.001   7.954   4.342  1.00  0.00     0.124 C
HETATM    5  C9  UNL     1       8.393   8.615   5.543  1.00  0.00     0.037 C
HETATM    6  C10 UNL     1       8.422  10.110   5.485  1.00  0.00    -0.009 C
HETATM    7  C11 UNL     1       7.316  10.657   4.627  1.00  0.00     0.016 C
HETATM    8  C12 UNL     1       9.730  10.679   5.016  1.00  0.00     0.035 C
HETATM    9  C13 UNL     1       9.988  10.138   3.625  1.00  0.00     0.036 C
HETATM   10  C22 UNL     1      10.238   8.637   3.859  1.00  0.00     0.062 C
HETATM   11  C23 UNL     1       8.861  10.325   2.671  1.00  0.00     0.043 C
ENDROOT
BRANCH   9  12
HETATM   12  N1  UNL     1      11.187  10.669   3.043  1.00  0.00    -0.350 N
HETATM   13  C14 UNL     1      11.759  10.258   1.829  1.00  0.00     0.236 C
HETATM   14  O2  UNL     1      11.200   9.351   1.168  1.00  0.00    -0.272 OA
ATOM     15  H1  UNL     1      11.665  11.410   3.555  1.00  0.00     0.163 HD
BRANCH  13  16
HETATM   16  C15 UNL     1      13.002  10.837   1.264  1.00  0.00     0.227 C
BRANCH  16  17
HETATM   17  N2  UNL     1      13.746   9.889   0.488  1.00  0.00    -0.334 N
HETATM   18  C16 UNL     1      14.769  10.280  -0.403  1.00  0.00     0.316 C
HETATM   19  O3  UNL     1      15.052  11.486  -0.536  1.00  0.00    -0.247 OA
HETATM   20  N3  UNL     1      15.471   9.309  -1.143  1.00  0.00    -0.339 N
ATOM     21  H3  UNL     1      15.219   8.330  -1.011  1.00  0.00     0.164 HD
ATOM     22  H2  UNL     1      13.529   8.897   0.582  1.00  0.00     0.164 HD
BRANCH  20  23
HETATM   23  C17 UNL     1      16.514   9.616  -2.067  1.00  0.00     0.086 C
HETATM   24  C18 UNL     1      17.912   9.490  -1.492  1.00  0.00     0.025 C
HETATM   25  C19 UNL     1      18.761   9.738  -2.752  1.00  0.00     0.002 C
HETATM   26  C20 UNL     1      17.903   9.270  -3.908  1.00  0.00     0.002 C
HETATM   27  C21 UNL     1      16.603   8.749  -3.276  1.00  0.00     0.025 C
ENDBRANCH  20  23
ENDBRANCH  16  17
ENDBRANCH  13  16
ENDBRANCH   9  12
BRANCH   1  28
HETATM   28  C5  UNL     1       6.527  10.854   2.342  1.00  0.00     0.039 C
BRANCH  28  29
HETATM   29  C4  UNL     1       6.562  10.362   0.945  1.00  0.00    -0.024 C
HETATM   30  C2  UNL     1       5.518   9.879   0.285  1.00  0.00    -0.091 C
HETATM   31  C1  UNL     1       4.151   9.764   0.866  1.00  0.00     0.042 C
HETATM   32  C3  UNL     1       5.664   9.408  -1.129  1.00  0.00     0.042 C
ENDBRANCH  28  29
ENDBRANCH   1  28
TORSDOF 6
ENDMDL