MODEL 4
REMARK VINA RESULT: -8.304601479      3.411      5.429
REMARK  9 active torsions:
REMARK  status: ('A' for Active; 'I' for Inactive)
REMARK       I    between atoms: N1_2  and  C2_4
REMARK       I    between atoms: C2_4  and  N2_6
REMARK    1  A    between atoms: N2_6  and  C3_8
REMARK    2  A    between atoms: C3_8  and  C4_9
REMARK    3  A    between atoms: C4_9  and  C5_10
REMARK    4  A    between atoms: C9_14  and  C10_15
REMARK    5  A    between atoms: C10_15  and  C11_16
REMARK    6  A    between atoms: C10_15  and  C17_27
REMARK    7  A    between atoms: C11_16  and  O2_17
REMARK    8  A    between atoms: C11_16  and  N3_19
REMARK       I    between atoms: N3_19  and  C12_21
REMARK    9  A    between atoms: C12_21  and  C13_23
ROOT
HETATM    1  C5  UNL     1      10.985   9.890   3.097  1.00  0.00    -0.043 C
HETATM    2  C6  UNL     1       9.947   9.762   2.043  1.00  0.00     0.015 C
HETATM    3  C7  UNL     1      11.328   8.541   3.633  1.00  0.00     0.010 C
HETATM    4  C8  UNL     1      12.419   7.786   2.904  1.00  0.00     0.010 C
HETATM    5  C9  UNL     1      13.551   8.687   2.705  1.00  0.00     0.019 C
HETATM    6  C21 UNL     1      13.020   9.750   1.714  1.00  0.00     0.010 C
HETATM    7  C22 UNL     1      12.142  10.666   2.506  1.00  0.00     0.010 C
ENDROOT
BRANCH   5   8
HETATM    8  C10 UNL     1      14.878   8.269   2.257  1.00  0.00    -0.017 C
BRANCH   8   9
HETATM    9  C11 UNL     1      15.100   7.790   0.899  1.00  0.00     0.146 C
BRANCH   9  10
HETATM   10  O2  UNL     1      14.825   6.478   0.725  1.00  0.00    -0.346 OA
ATOM     11  H2  UNL     1      15.205   6.103  -0.061  1.00  0.00     0.219 HD
ENDBRANCH   9  10
BRANCH   9  12
HETATM   12  N3  UNL     1      15.527   8.307  -0.301  1.00  0.00    -0.307 N
HETATM   13  C12 UNL     1      16.708   8.724  -0.900  1.00  0.00     0.231 C
HETATM   14  O3  UNL     1      17.789   8.674  -0.292  1.00  0.00    -0.272 OA
ATOM     15  H3  UNL     1      14.742   8.416  -0.943  1.00  0.00     0.171 HD
BRANCH  13  16
HETATM   16  C13 UNL     1      16.800   9.258  -2.291  1.00  0.00     0.030 C
HETATM   17  C14 UNL     1      15.822  10.393  -2.440  1.00  0.00     0.025 C
HETATM   18  C15 UNL     1      18.175   9.779  -2.598  1.00  0.00     0.025 C
HETATM   19  C16 UNL     1      16.441   8.227  -3.328  1.00  0.00     0.025 C
ENDBRANCH  13  16
ENDBRANCH   9  12
ENDBRANCH   8   9
BRANCH   8  20
HETATM   20  C17 UNL     1      15.860   7.770   3.283  1.00  0.00    -0.023 C
HETATM   21  C18 UNL     1      17.287   7.720   2.960  1.00  0.00     0.019 C
HETATM   22  C19 UNL     1      15.456   6.419   3.849  1.00  0.00     0.019 C
HETATM   23  C20 UNL     1      15.714   8.742   4.474  1.00  0.00     0.019 C
ENDBRANCH   8  20
ENDBRANCH   5   8
BRANCH   1  24
HETATM   24  C4  UNL     1      10.552  10.734   4.267  1.00  0.00     0.029 C
BRANCH  24  25
HETATM   25  C3  UNL     1       9.842  10.102   5.379  1.00  0.00     0.125 C
BRANCH  25  26
HETATM   26  N2  UNL     1       8.586  10.714   5.687  1.00  0.00    -0.343 N
HETATM   27  C2  UNL     1       7.315  10.260   5.176  1.00  0.00     0.315 C
HETATM   28  N1  UNL     1       6.105  10.905   5.527  1.00  0.00    -0.347 N
HETATM   29  O1  UNL     1       7.218   9.275   4.399  1.00  0.00    -0.247 OA
HETATM   30  C1  UNL     1       4.822  10.487   5.042  1.00  0.00     0.151 C
ATOM     31  H1  UNL     1       6.148  11.707   6.156  1.00  0.00     0.163 HD
ATOM     32  H2  UNL     1       8.589  11.523   6.308  1.00  0.00     0.164 HD
ENDBRANCH  25  26
ENDBRANCH  24  25
ENDBRANCH   1  24
TORSDOF 9
ENDMDL