MODEL 4
REMARK VINA RESULT: -5.369501716      1.816      4.889
REMARK  2 active torsions:
REMARK  status: ('A' for Active; 'I' for Inactive)
REMARK    1  A    between atoms: N1_1  and  C1_4
REMARK    2  A    between atoms: C3_8  and  N3_9
ROOT
HETATM    1  C1  UNL     1     -39.761  21.984   9.440  1.00  0.00     0.678 A
HETATM    2  N2  UNL     1     -38.715  22.594  10.016  1.00  0.00    -0.200 N
ATOM      3  H2  UNL     1     -38.181  23.294   9.502  1.00  0.00     0.183 HD
HETATM    4  C2  UNL     1     -38.376  22.276  11.268  1.00  0.00     0.143 A
HETATM    5  C3  UNL     1     -39.069  21.327  12.013  1.00  0.00     0.138 A
HETATM    6  C6  UNL     1     -40.138  20.726  11.376  1.00  0.00     0.289 A
HETATM    7  O1  UNL     1     -40.784  19.857  12.042  1.00  0.00    -0.265 OA
HETATM    8  N6  UNL     1     -40.476  21.048  10.117  1.00  0.00    -0.154 N
ATOM      9  H6  UNL     1     -41.269  20.590   9.669  1.00  0.00     0.187 HD
ENDROOT
BRANCH   5  10
HETATM   10  N3  UNL     1     -38.687  21.010  13.342  1.00  0.00    -0.243 N
HETATM   11  C4  UNL     1     -38.973  21.600  14.498  1.00  0.00     0.133 A
HETATM   12  C5  UNL     1     -38.367  20.924  15.537  1.00  0.00     0.123 A
HETATM   13  N4  UNL     1     -37.706  19.905  14.945  1.00  0.00    -0.294 N
HETATM   14  N5  UNL     1     -37.905  19.970  13.641  1.00  0.00    -0.016 NA
ATOM     15  H4  UNL     1     -37.146  19.202  15.426  1.00  0.00     0.183 HD
ENDBRANCH   5  10
BRANCH   1  16
HETATM   16  N1  UNL     1     -40.135  22.258   8.215  1.00  0.00    -0.234 N
ATOM     17  H12 UNL     1     -39.980  21.542   7.505  1.00  0.00     0.174 HD
ATOM     18  H11 UNL     1     -40.565  23.149   7.968  1.00  0.00     0.174 HD
ENDBRANCH   1  16
TORSDOF 2
ENDMDL