MODEL 4
REMARK VINA RESULT: -5.538004297      1.508      1.518
REMARK  1 active torsions:
REMARK  status: ('A' for Active; 'I' for Inactive)
REMARK    1  A    between atoms: C1_2  and  C2_4
ROOT
HETATM    1  C2  UNL     1     -39.017  21.524  11.021  1.00  0.00     0.188 A
HETATM    2  N2  UNL     1     -38.642  20.224  10.974  1.00  0.00    -0.280 N
ATOM      3  H2  UNL     1     -38.646  19.735  10.079  1.00  0.00     0.189 HD
HETATM    4  N3  UNL     1     -38.271  19.577  12.063  1.00  0.00    -0.281 N
ATOM      5  H3  UNL     1     -37.992  18.598  12.000  1.00  0.00     0.188 HD
HETATM    6  C3  UNL     1     -38.257  20.199  13.255  1.00  0.00     0.169 A
HETATM    7  N4  UNL     1     -37.946  19.853  14.516  1.00  0.00    -0.290 N
ATOM      8  H4  UNL     1     -37.625  18.932  14.817  1.00  0.00     0.172 HD
HETATM    9  C4  UNL     1     -38.128  20.924  15.321  1.00  0.00     0.327 A
HETATM   10  O2  UNL     1     -37.928  20.953  16.582  1.00  0.00    -0.247 OA
HETATM   11  N5  UNL     1     -38.555  21.967  14.602  1.00  0.00    -0.291 N
ATOM     12  H5  UNL     1     -38.774  22.902  14.946  1.00  0.00     0.172 HD
HETATM   13  C5  UNL     1     -38.637  21.522  13.313  1.00  0.00     0.157 A
HETATM   14  N6  UNL     1     -39.010  22.162  12.201  1.00  0.00    -0.320 N
ATOM     15  H6  UNL     1     -39.290  23.142  12.249  1.00  0.00     0.169 HD
ENDROOT
BRANCH   1  16
HETATM   16  C1  UNL     1     -39.427  22.251   9.837  1.00  0.00     0.300 C
HETATM   17  N1  UNL     1     -38.841  23.486   9.513  1.00  0.00    -0.054 NA
HETATM   18  O1  UNL     1     -40.311  21.767   9.107  1.00  0.00    -0.268 OA
ENDBRANCH   1  16
TORSDOF 1
ENDMDL