MODEL 4
REMARK VINA RESULT: -5.745094784      2.538      3.088
REMARK  3 active torsions:
REMARK  status: ('A' for Active; 'I' for Inactive)
REMARK    1  A    between atoms: N1_1  and  C1_4
REMARK    2  A    between atoms: C2_9  and  N4_10
REMARK    3  A    between atoms: C3_13  and  N5_14
ROOT
HETATM    1  C1  UNL     1     -38.441  20.294  11.758  1.00  0.00     0.151 A
HETATM    2  N2  UNL     1     -39.290  19.414  11.209  1.00  0.00    -0.282 N
ATOM      3  H2  UNL     1     -39.316  18.419  11.432  1.00  0.00     0.188 HD
HETATM    4  N3  UNL     1     -40.090  20.010  10.336  1.00  0.00    -0.277 N
ATOM      5  H3  UNL     1     -40.816  19.542   9.794  1.00  0.00     0.189 HD
HETATM    6  C2  UNL     1     -39.801  21.328  10.270  1.00  0.00     0.225 A
HETATM    7  C3  UNL     1     -38.759  21.509  11.170  1.00  0.00     0.198 A
ENDROOT
BRANCH   1   8
HETATM    8  N1  UNL     1     -37.519  20.093  12.643  1.00  0.00    -0.382 N
ATOM      9  H12 UNL     1     -37.309  19.206  13.102  1.00  0.00     0.157 HD
ATOM     10  H11 UNL     1     -36.850  20.755  13.035  1.00  0.00     0.157 HD
ENDBRANCH   1   8
BRANCH   7  11
HETATM   11  N5  UNL     1     -38.121  22.766  11.450  1.00  0.00    -0.107 N
HETATM   12  O3  UNL     1     -38.303  23.295  12.583  1.00  0.00    -0.531 OA
HETATM   13  O4  UNL     1     -37.362  23.367  10.501  1.00  0.00    -0.531 OA
ENDBRANCH   7  11
BRANCH   6  14
HETATM   14  N4  UNL     1     -40.394  22.334   9.495  1.00  0.00    -0.094 N
HETATM   15  O1  UNL     1     -40.333  22.352   8.253  1.00  0.00    -0.530 OA
HETATM   16  O2  UNL     1     -41.085  23.363  10.079  1.00  0.00    -0.530 OA
ENDBRANCH   6  14
TORSDOF 3
ENDMDL