MODEL 4
REMARK VINA RESULT: -5.851987410      2.490      2.839
REMARK  1 active torsions:
REMARK  status: ('A' for Active; 'I' for Inactive)
REMARK    1  A    between atoms: C1_2  and  C2_4
ROOT
HETATM    1  C2  UNL     1     -39.715  22.483   9.870  1.00  0.00     0.132 A
HETATM    2  N2  UNL     1     -38.583  23.258   9.985  1.00  0.00    -0.293 N
ATOM      3  H2  UNL     1     -38.392  24.091   9.429  1.00  0.00     0.187 HD
HETATM    4  N3  UNL     1     -37.785  22.776  10.909  1.00  0.00    -0.284 N
ATOM      5  H3  UNL     1     -36.885  23.176  11.178  1.00  0.00     0.188 HD
HETATM    6  C3  UNL     1     -38.336  21.673  11.448  1.00  0.00     0.139 A
HETATM    7  N4  UNL     1     -37.955  20.807  12.410  1.00  0.00    -0.337 N
ATOM      8  H4  UNL     1     -37.059  20.970  12.870  1.00  0.00     0.168 HD
HETATM    9  C4  UNL     1     -38.668  19.759  12.797  1.00  0.00     0.185 A
HETATM   10  N5  UNL     1     -39.843  19.543  12.194  1.00  0.00    -0.319 N
ATOM     11  H5  UNL     1     -40.415  18.744  12.469  1.00  0.00     0.169 HD
HETATM   12  C5  UNL     1     -40.284  20.388  11.209  1.00  0.00     0.262 A
HETATM   13  O2  UNL     1     -41.383  20.172  10.658  1.00  0.00    -0.267 OA
HETATM   14  C6  UNL     1     -39.553  21.480  10.798  1.00  0.00     0.110 A
ENDROOT
BRANCH   1  15
HETATM   15  C1  UNL     1     -40.803  22.719   8.954  1.00  0.00     0.283 C
HETATM   16  N1  UNL     1     -40.565  22.290   7.599  1.00  0.00    -0.056 NA
HETATM   17  O1  UNL     1     -41.878  23.246   9.261  1.00  0.00    -0.269 OA
ENDBRANCH   1  15
TORSDOF 1
ENDMDL