MODEL 3
REMARK VINA RESULT: -4.719303521      2.298      3.365
REMARK  2 active torsions:
REMARK  status: ('A' for Active; 'I' for Inactive)
REMARK    1  A    between atoms: N1_1  and  C1_4
REMARK    2  A    between atoms: C3_10  and  N4_11
ROOT
HETATM    1  C1  UNL     1     -38.708  20.389  14.178  1.00  0.00     0.691 A
HETATM    2  N2  UNL     1     -39.886  20.020  14.719  1.00  0.00    -0.187 N
ATOM      3  H2  UNL     1     -39.906  19.438  15.556  1.00  0.00     0.185 HD
HETATM    4  C2  UNL     1     -41.043  20.429  14.144  1.00  0.00     0.215 A
HETATM    5  N3  UNL     1     -41.005  21.201  13.036  1.00  0.00    -0.187 N
ATOM      6  H3  UNL     1     -41.882  21.504  12.611  1.00  0.00     0.185 HD
HETATM    7  C3  UNL     1     -39.838  21.580  12.478  1.00  0.00     0.695 A
HETATM    8  N6  UNL     1     -38.707  21.158  13.072  1.00  0.00    -0.022 N
ATOM      9  H6  UNL     1     -37.812  21.432  12.668  1.00  0.00     0.203 HD
ENDROOT
BRANCH   7  10
HETATM   10  N4  UNL     1     -39.805  22.389  11.317  1.00  0.00    -0.214 N
HETATM   11  C4  UNL     1     -38.795  23.380  11.186  1.00  0.00     0.160 C
HETATM   12  C5  UNL     1     -38.818  24.187   9.950  1.00  0.00     0.134 C
HETATM   13  N5  UNL     1     -39.684  23.753   8.911  1.00  0.00    -0.418 N
HETATM   14  C6  UNL     1     -40.084  22.383   8.957  1.00  0.00     0.134 C
ATOM     15  H5  UNL     1     -40.002  24.383   8.175  1.00  0.00     0.153 HD
HETATM   16  C7  UNL     1     -40.802  22.180  10.297  1.00  0.00     0.160 C
ENDBRANCH   7  10
BRANCH   1  17
HETATM   17  N1  UNL     1     -37.606  19.988  14.741  1.00  0.00    -0.234 N
ATOM     18  H12 UNL     1     -37.488  19.978  15.754  1.00  0.00     0.174 HD
ATOM     19  H11 UNL     1     -36.837  19.674  14.148  1.00  0.00     0.174 HD
ENDBRANCH   1  17
TORSDOF 2
ENDMDL