MODEL 4
REMARK VINA RESULT: -5.158068911      2.513      5.048
REMARK  2 active torsions:
REMARK  status: ('A' for Active; 'I' for Inactive)
REMARK    1  A    between atoms: C3_3  and  N1_4
REMARK    2  A    between atoms: C5_13  and  N6_14
ROOT
HETATM    1  C1  UNL     1     -42.006  20.124  17.683  1.00  0.00     0.014 C
HETATM    2  C2  UNL     1     -41.452  20.834  16.877  1.00  0.00    -0.095 C
HETATM    3  C3  UNL     1     -40.795  21.711  15.889  1.00  0.00     0.262 C
ENDROOT
BRANCH   3   4
HETATM    4  N1  UNL     1     -39.703  21.035  15.220  1.00  0.00    -0.095 N
HETATM    5  N2  UNL     1     -38.544  20.681  15.730  1.00  0.00    -0.210 N
HETATM    6  N3  UNL     1     -37.812  20.077  14.778  1.00  0.00    -0.205 N
ATOM      7  H2  UNL     1     -38.247  20.838  16.693  1.00  0.00     0.210 HD
HETATM    8  N4  UNL     1     -38.494  20.043  13.663  1.00  0.00    -0.064 N
ATOM      9  H3  UNL     1     -36.872  19.703  14.905  1.00  0.00     0.211 HD
HETATM   10  C4  UNL     1     -38.248  19.569  12.429  1.00  0.00     0.244 A
HETATM   11  C6  UNL     1     -39.678  20.644  13.943  1.00  0.00     0.739 A
HETATM   12  N5  UNL     1     -39.186  19.696  11.482  1.00  0.00    -0.185 N
HETATM   13  C5  UNL     1     -40.367  20.300  11.773  1.00  0.00     0.691 A
ATOM     14  H5  UNL     1     -39.012  19.340  10.542  1.00  0.00     0.185 HD
HETATM   15  N7  UNL     1     -40.627  20.779  13.001  1.00  0.00    -0.019 N
ATOM     16  H7  UNL     1     -41.517  21.230  13.211  1.00  0.00     0.203 HD
BRANCH  13  17
HETATM   17  N6  UNL     1     -41.246  20.403  10.831  1.00  0.00    -0.234 N
ATOM     18  H62 UNL     1     -40.954  20.439   9.855  1.00  0.00     0.174 HD
ATOM     19  H61 UNL     1     -42.230  20.447  11.095  1.00  0.00     0.174 HD
ENDBRANCH  13  17
ENDBRANCH   3   4
TORSDOF 2
ENDMDL