MODEL 2
REMARK VINA RESULT: -6.412874372      2.881      5.700
REMARK  3 active torsions:
REMARK  status: ('A' for Active; 'I' for Inactive)
REMARK    1  A    between atoms: C5_8  and  N3_9
REMARK    2  A    between atoms: N3_9  and  N4_11
REMARK    3  A    between atoms: N4_11  and  O1_13
ROOT
HETATM    1  N1  UNL     1     -40.558  22.584   8.294  1.00  0.00    -0.190 NA
HETATM    2  C1  UNL     1     -40.214  22.050   9.260  1.00  0.00     0.119 C
HETATM    3  C2  UNL     1     -39.772  21.362  10.458  1.00  0.00     0.130 A
HETATM    4  C3  UNL     1     -39.386  22.091  11.554  1.00  0.00     0.076 A
HETATM    5  C4  UNL     1     -38.970  21.416  12.679  1.00  0.00     0.098 A
HETATM    6  N2  UNL     1     -38.535  21.801  13.896  1.00  0.00    -0.186 N
ATOM      7  H2  UNL     1     -38.435  22.767  14.209  1.00  0.00     0.184 HD
HETATM    8  C5  UNL     1     -38.254  20.710  14.635  1.00  0.00     0.700 A
HETATM    9  N5  UNL     1     -38.498  19.600  13.921  1.00  0.00    -0.172 N
ATOM     10  H5  UNL     1     -38.375  18.635  14.226  1.00  0.00     0.186 HD
HETATM   11  C6  UNL     1     -38.937  20.019  12.722  1.00  0.00     0.163 A
HETATM   12  N6  UNL     1     -39.332  19.386  11.607  1.00  0.00    -0.282 N
ATOM     13  H6  UNL     1     -39.323  18.367  11.597  1.00  0.00     0.188 HD
HETATM   14  N7  UNL     1     -39.732  20.022  10.523  1.00  0.00    -0.289 N
ATOM     15  H7  UNL     1     -40.019  19.479   9.709  1.00  0.00     0.188 HD
ENDROOT
BRANCH   8  16
HETATM   16  N3  UNL     1     -37.814  20.749  15.853  1.00  0.00    -0.112 N
ATOM     17  H3  UNL     1     -38.303  21.318  16.545  1.00  0.00     0.207 HD
BRANCH  16  18
HETATM   18  N4  UNL     1     -36.685  20.028  16.234  1.00  0.00    -0.196 N
ATOM     19  H4  UNL     1     -36.766  19.014  16.320  1.00  0.00     0.216 HD
BRANCH  18  20
HETATM   20  O1  UNL     1     -35.579  20.554  16.477  1.00  0.00    -0.274 OA
ATOM     21  H1  UNL     1     -34.924  20.163  17.043  1.00  0.00     0.246 HD
ENDBRANCH  18  20
ENDBRANCH  16  18
ENDBRANCH   8  16
TORSDOF 3
ENDMDL