MODEL 3
REMARK VINA RESULT: -5.347003739      1.431      1.674
REMARK  3 active torsions:
REMARK  status: ('A' for Active; 'I' for Inactive)
REMARK    1  A    between atoms: N1_1  and  C1_4
REMARK    2  A    between atoms: C3_8  and  S1_9
REMARK    3  A    between atoms: S1_9  and  N3_10
ROOT
HETATM    1  C1  UNL     1     -38.048  20.201  14.306  1.00  0.00     0.675 A
HETATM    2  N2  UNL     1     -39.344  20.495  14.515  1.00  0.00    -0.201 N
ATOM      3  H2  UNL     1     -39.702  20.513  15.470  1.00  0.00     0.183 HD
HETATM    4  C2  UNL     1     -40.186  20.769  13.486  1.00  0.00     0.132 A
HETATM    5  C3  UNL     1     -39.748  20.757  12.176  1.00  0.00     0.111 A
HETATM    6  C4  UNL     1     -38.414  20.452  11.977  1.00  0.00     0.132 A
HETATM    7  N4  UNL     1     -37.619  20.188  13.032  1.00  0.00    -0.201 N
ATOM      8  H4  UNL     1     -36.639  19.966  12.854  1.00  0.00     0.183 HD
ENDROOT
BRANCH   5   9
HETATM    9  S1  UNL     1     -40.794  21.101  10.826  1.00  0.00     0.259 S
HETATM   10  O1  UNL     1     -39.998  21.421   9.578  1.00  0.00    -0.201 OA
HETATM   11  O2  UNL     1     -41.677  19.943  10.486  1.00  0.00    -0.201 OA
BRANCH   9  12
HETATM   12  N3  UNL     1     -41.804  22.470  11.132  1.00  0.00    -0.324 N
ATOM     13  H32 UNL     1     -41.559  23.213  11.787  1.00  0.00     0.169 HD
ATOM     14  H31 UNL     1     -42.662  22.437  10.580  1.00  0.00     0.169 HD
ENDBRANCH   9  12
ENDBRANCH   5   9
BRANCH   1  15
HETATM   15  N1  UNL     1     -37.237  19.938  15.290  1.00  0.00    -0.234 N
ATOM     16  H12 UNL     1     -37.456  19.213  15.973  1.00  0.00     0.174 HD
ATOM     17  H11 UNL     1     -36.360  20.444  15.414  1.00  0.00     0.174 HD
ENDBRANCH   1  15
TORSDOF 3
ENDMDL