MODEL 4
REMARK VINA RESULT: -5.468110819      3.154      4.817
REMARK  2 active torsions:
REMARK  status: ('A' for Active; 'I' for Inactive)
REMARK    1  A    between atoms: C3_3  and  N1_4
REMARK    2  A    between atoms: C7_10  and  N4_11
ROOT
HETATM    1  C1  UNL     1     -40.021  26.377   8.642  1.00  0.00     0.014 C
HETATM    2  C2  UNL     1     -39.825  25.910   9.738  1.00  0.00    -0.097 C
HETATM    3  C3  UNL     1     -39.602  25.355  11.091  1.00  0.00     0.227 C
ENDROOT
BRANCH   3   4
HETATM    4  N1  UNL     1     -39.184  23.977  10.973  1.00  0.00    -0.275 N
HETATM    5  C4  UNL     1     -40.143  23.017  10.876  1.00  0.00     0.147 A
HETATM    6  N2  UNL     1     -41.505  23.372  10.890  1.00  0.00    -0.081 NA
HETATM    7  C5  UNL     1     -39.769  21.696  10.763  1.00  0.00     0.129 A
HETATM    8  C6  UNL     1     -40.768  20.682  10.660  1.00  0.00     0.106 C
HETATM    9  C7  UNL     1     -38.416  21.421  10.755  1.00  0.00     0.127 A
HETATM   10  N3  UNL     1     -41.575  19.858  10.585  1.00  0.00    -0.191 NA
HETATM   11  N5  UNL     1     -37.495  22.380  10.852  1.00  0.00    -0.293 N
HETATM   12  C8  UNL     1     -37.880  23.659  10.961  1.00  0.00     0.330 A
ATOM     13  H5  UNL     1     -36.503  22.141  10.843  1.00  0.00     0.172 HD
HETATM   14  O1  UNL     1     -37.030  24.566  11.052  1.00  0.00    -0.246 OA
BRANCH   9  15
HETATM   15  N4  UNL     1     -38.056  20.207  10.651  1.00  0.00    -0.384 N
ATOM     16  H42 UNL     1     -38.316  19.537  11.375  1.00  0.00     0.157 HD
ATOM     17  H41 UNL     1     -37.511  19.939   9.832  1.00  0.00     0.157 HD
ENDBRANCH   9  15
ENDBRANCH   3   4
TORSDOF 2
ENDMDL