MODEL 4
REMARK VINA RESULT: -5.344587249      1.351      1.351
REMARK  1 active torsions:
REMARK  status: ('A' for Active; 'I' for Inactive)
REMARK    1  A    between atoms: C1_2  and  C2_4
ROOT
HETATM    1  C2  UNL     1     -39.729  21.244  11.387  1.00  0.00     0.115 A
HETATM    2  C3  UNL     1     -39.215  19.969  11.289  1.00  0.00     0.124 A
HETATM    3  N2  UNL     1     -38.565  19.406  12.320  1.00  0.00    -0.347 N
ATOM      4  H2  UNL     1     -38.191  18.461  12.232  1.00  0.00     0.167 HD
HETATM    5  C4  UNL     1     -38.406  20.097  13.486  1.00  0.00     0.154 A
HETATM    6  N3  UNL     1     -37.815  19.783  14.641  1.00  0.00    -0.291 N
ATOM      7  H3  UNL     1     -37.349  18.901  14.852  1.00  0.00     0.172 HD
HETATM    8  C5  UNL     1     -37.938  20.825  15.478  1.00  0.00     0.327 A
HETATM    9  O2  UNL     1     -37.516  20.933  16.668  1.00  0.00    -0.247 OA
HETATM   10  N4  UNL     1     -38.612  21.796  14.834  1.00  0.00    -0.291 N
ATOM     11  H4  UNL     1     -38.854  22.707  15.225  1.00  0.00     0.172 HD
HETATM   12  C6  UNL     1     -38.916  21.374  13.596  1.00  0.00     0.155 A
HETATM   13  N5  UNL     1     -39.567  21.913  12.536  1.00  0.00    -0.334 N
ATOM     14  H5  UNL     1     -39.945  22.857  12.615  1.00  0.00     0.168 HD
ENDROOT
BRANCH   1  15
HETATM   15  C1  UNL     1     -40.430  21.839  10.260  1.00  0.00     0.282 C
HETATM   16  N1  UNL     1     -41.822  21.659  10.143  1.00  0.00    -0.056 NA
HETATM   17  O1  UNL     1     -39.850  22.514   9.373  1.00  0.00    -0.269 OA
ENDBRANCH   1  15
TORSDOF 1
ENDMDL