MODEL 1
REMARK VINA RESULT: -6.389588528      0.000      0.000
REMARK  8 active torsions:
REMARK  status: ('A' for Active; 'I' for Inactive)
REMARK    1  A    between atoms: N1_2  and  C1_3
REMARK    2  A    between atoms: C1_3  and  C2_4
REMARK    3  A    between atoms: C2_4  and  C3_5
REMARK    4  A    between atoms: C3_5  and  O2_6
REMARK    5  A    between atoms: O2_6  and  C4_7
REMARK    6  A    between atoms: C4_7  and  C5_8
REMARK    7  A    between atoms: C5_8  and  O3_9
REMARK    8  A    between atoms: O3_9  and  C6_10
ROOT
HETATM    1  C4  UNL     1      80.382  20.028   2.717  1.00  0.00     0.193 C
ENDROOT
BRANCH   1   2
HETATM    2  O2  UNL     1      79.204  20.529   2.198  1.00  0.00    -0.389 OA
BRANCH   2   3
HETATM    3  C3  UNL     1      79.352  21.497   1.248  1.00  0.00     0.170 C
BRANCH   3   4
HETATM    4  C2  UNL     1      79.268  22.908   1.765  1.00  0.00     0.063 C
BRANCH   4   5
HETATM    5  C1  UNL     1      80.679  23.438   1.937  1.00  0.00     0.314 C
BRANCH   5   6
HETATM    6  N1  UNL     1      81.050  23.612   3.314  1.00  0.00     0.014 N
HETATM    7  O1  UNL     1      80.167  23.079   4.187  1.00  0.00    -0.064 OA
HETATM    8  C10 UNL     1      81.212  25.050   3.582  1.00  0.00     0.314 C
HETATM    9  C11 UNL     1      82.514  24.815   4.304  1.00  0.00     0.073 C
HETATM   10  C12 UNL     1      82.437  23.454   3.638  1.00  0.00     0.314 C
ENDBRANCH   5   6
ENDBRANCH   4   5
ENDBRANCH   3   4
ENDBRANCH   2   3
ENDBRANCH   1   2
BRANCH   1  11
HETATM   11  C5  UNL     1      81.152  19.405   1.583  1.00  0.00     0.194 C
BRANCH  11  12
HETATM   12  O3  UNL     1      80.830  18.072   1.373  1.00  0.00    -0.382 OA
BRANCH  12  13
HETATM   13  C6  UNL     1      81.086  17.726   0.074  1.00  0.00     0.148 C
HETATM   14  C7  UNL     1      80.442  18.705  -0.914  1.00  0.00     0.061 C
HETATM   15  C8  UNL     1      80.292  17.849  -2.130  1.00  0.00     0.235 C
HETATM   16  N2  UNL     1      80.314  16.477  -1.706  1.00  0.00    -0.073 N
HETATM   17  C9  UNL     1      80.313  16.454  -0.276  1.00  0.00     0.264 C
ATOM     18  H22 UNL     1      79.554  15.929  -2.109  1.00  0.00     0.277 HD
ATOM     19  H21 UNL     1      81.090  15.953  -2.108  1.00  0.00     0.277 HD
ENDBRANCH  12  13
ENDBRANCH  11  12
ENDBRANCH   1  11
TORSDOF 8
ENDMDL