MODEL 1
REMARK VINA RESULT: -5.771859885      0.000      0.000
REMARK  9 active torsions:
REMARK  status: ('A' for Active; 'I' for Inactive)
REMARK    1  A    between atoms: C2_2  and  C3_3
REMARK    2  A    between atoms: C3_3  and  N1_4
REMARK    3  A    between atoms: C6_7  and  N2_8
REMARK    4  A    between atoms: N2_8  and  C7_11
REMARK    5  A    between atoms: C7_11  and  C8_12
REMARK    6  A    between atoms: C8_12  and  C9_13
REMARK    7  A    between atoms: C9_13  and  N3_14
REMARK    8  A    between atoms: C10_16  and  C11_17
REMARK    9  A    between atoms: C11_17  and  N4_18
ROOT
HETATM    1  N2  UNL     1      79.363  20.868   2.030  1.00  0.00    -0.071 N
ATOM      2  H21 UNL     1      78.578  21.150   2.618  1.00  0.00     0.277 HD
ATOM      3  H22 UNL     1      79.676  20.067   2.577  1.00  0.00     0.277 HD
ENDROOT
BRANCH   1   4
HETATM    4  C6  UNL     1      80.386  21.908   1.941  1.00  0.00     0.189 C
HETATM    5  C5  UNL     1      79.629  23.218   1.842  1.00  0.00     0.052 C
HETATM    6  C4  UNL     1      80.264  24.320   2.651  1.00  0.00     0.119 C
HETATM    7  N1  UNL     1      81.677  24.241   2.755  1.00  0.00    -0.409 N
HETATM    8  C13 UNL     1      82.254  22.982   3.051  1.00  0.00     0.119 C
HETATM    9  C12 UNL     1      81.147  21.939   3.233  1.00  0.00     0.052 C
BRANCH   7  10
HETATM   10  C3  UNL     1      82.205  25.357   3.485  1.00  0.00     0.143 C
BRANCH  10  11
HETATM   11  C2  UNL     1      81.790  26.658   2.886  1.00  0.00    -0.018 C
HETATM   12  C1  UNL     1      82.587  27.411   2.166  1.00  0.00     0.008 C
ENDBRANCH  10  11
ENDBRANCH   7  10
ENDBRANCH   1   4
BRANCH   1  13
HETATM   13  C7  UNL     1      78.934  20.484   0.688  1.00  0.00     0.234 C
BRANCH  13  14
HETATM   14  C8  UNL     1      80.068  19.818  -0.039  1.00  0.00     0.047 C
BRANCH  14  15
HETATM   15  C9  UNL     1      79.674  19.202  -1.355  1.00  0.00     0.120 C
BRANCH  15  16
HETATM   16  N3  UNL     1      79.506  17.780  -1.069  1.00  0.00    -0.401 N
HETATM   17  C10 UNL     1      80.488  17.197  -0.488  1.00  0.00     0.082 C
ATOM     18  H3  UNL     1      78.654  17.278  -1.318  1.00  0.00     0.158 HD
BRANCH  17  19
HETATM   19  C11 UNL     1      80.468  15.754  -0.131  1.00  0.00     0.273 C
BRANCH  19  20
HETATM   20  N4  UNL     1      80.765  15.664   1.300  1.00  0.00    -0.075 N
ATOM     21  H43 UNL     1      80.628  14.728   1.680  1.00  0.00     0.274 HD
ATOM     22  H42 UNL     1      81.760  15.744   1.508  1.00  0.00     0.274 HD
ATOM     23  H41 UNL     1      80.200  16.375   1.765  1.00  0.00     0.274 HD
ENDBRANCH  19  20
ENDBRANCH  17  19
ENDBRANCH  15  16
ENDBRANCH  14  15
ENDBRANCH  13  14
ENDBRANCH   1  13
TORSDOF 9
ENDMDL