MODEL 5
REMARK VINA RESULT: -5.713127427      1.260      1.602
REMARK  8 active torsions:
REMARK  status: ('A' for Active; 'I' for Inactive)
REMARK    1  A    between atoms: C2_2  and  C3_3
REMARK    2  A    between atoms: C3_3  and  C4_4
REMARK    3  A    between atoms: C4_4  and  N1_5
REMARK    4  A    between atoms: N1_5  and  C5_8
REMARK    5  A    between atoms: C5_8  and  C6_9
REMARK    6  A    between atoms: C6_9  and  N2_10
REMARK    7  A    between atoms: N2_10  and  S1_12
REMARK    8  A    between atoms: S1_12  and  C7_15
ROOT
HETATM    1  C6  UNL     1      79.465  22.679   1.481  1.00  0.00     0.159 C
ENDROOT
BRANCH   1   2
HETATM    2  C5  UNL     1      79.466  24.041   2.141  1.00  0.00     0.252 C
BRANCH   2   3
HETATM    3  N1  UNL     1      80.280  24.994   1.448  1.00  0.00    -0.073 N
ATOM      4  H12 UNL     1      79.892  25.933   1.543  1.00  0.00     0.277 HD
ATOM      5  H11 UNL     1      80.194  24.872   0.439  1.00  0.00     0.277 HD
BRANCH   3   6
HETATM    6  C4  UNL     1      81.672  24.980   1.842  1.00  0.00     0.236 C
BRANCH   6   7
HETATM    7  C3  UNL     1      81.884  25.873   3.064  1.00  0.00     0.054 C
BRANCH   7   8
HETATM    8  C2  UNL     1      82.095  27.281   2.699  1.00  0.00    -0.035 C
HETATM    9  C1  UNL     1      83.001  27.611   1.794  1.00  0.00     0.007 C
ENDBRANCH   7   8
ENDBRANCH   6   7
ENDBRANCH   3   6
ENDBRANCH   2   3
ENDBRANCH   1   2
BRANCH   1  10
HETATM   10  N2  UNL     1      79.532  21.636   2.464  1.00  0.00    -0.318 N
ATOM     11  H2  UNL     1      78.710  21.241   2.922  1.00  0.00     0.172 HD
BRANCH  10  12
HETATM   12  S1  UNL     1      81.129  21.124   2.788  1.00  0.00     0.231 S
HETATM   13  O1  UNL     1      81.189  19.747   3.383  1.00  0.00    -0.206 OA
HETATM   14  O2  UNL     1      81.682  22.055   3.859  1.00  0.00    -0.206 OA
BRANCH  12  15
HETATM   15  C7  UNL     1      82.145  21.294   1.360  1.00  0.00     0.133 A
HETATM   16  C8  UNL     1      83.147  20.245   1.131  1.00  0.00     0.028 A
HETATM   17  C9  UNL     1      82.006  20.510   0.144  1.00  0.00     0.003 A
HETATM   18  C10 UNL     1      81.099  19.338  -0.040  1.00  0.00     0.011 C
ENDBRANCH  12  15
ENDBRANCH  10  12
ENDBRANCH   1  10
TORSDOF 8
ENDMDL