MODEL 1
REMARK VINA RESULT: -6.122553760      0.000      0.000
REMARK  8 active torsions:
REMARK  status: ('A' for Active; 'I' for Inactive)
REMARK    1  A    between atoms: C3_3  and  N1_4
REMARK    2  A    between atoms: N1_4  and  C4_5
REMARK    3  A    between atoms: N1_4  and  C7_8
REMARK    4  A    between atoms: C7_8  and  C8_9
REMARK    5  A    between atoms: C8_9  and  C9_10
REMARK    6  A    between atoms: C9_10  and  N2_11
REMARK    7  A    between atoms: N2_11  and  C10_13
REMARK    8  A    between atoms: C10_13  and  C11_14
ROOT
HETATM    1  C1  UNL     1      83.382  21.280   1.475  1.00  0.00     0.018 C
HETATM    2  C2  UNL     1      83.021  22.102   2.297  1.00  0.00    -0.072 C
HETATM    3  C3  UNL     1      82.637  23.074   3.300  1.00  0.00     0.155 C
ENDROOT
BRANCH   3   4
HETATM    4  N1  UNL     1      81.632  23.961   2.985  1.00  0.00    -0.352 N
BRANCH   4   5
HETATM    5  C4  UNL     1      81.636  25.122   3.831  1.00  0.00     0.220 C
HETATM    6  C5  UNL     1      82.002  26.350   3.070  1.00  0.00    -0.097 C
HETATM    7  C6  UNL     1      82.295  27.356   2.476  1.00  0.00     0.014 C
ENDBRANCH   4   5
BRANCH   4   8
HETATM    8  C7  UNL     1      80.875  24.001   1.837  1.00  0.00     0.066 C
BRANCH   8   9
HETATM    9  C8  UNL     1      79.461  23.483   1.871  1.00  0.00     0.064 C
BRANCH   9  10
HETATM   10  C9  UNL     1      79.427  21.941   1.951  1.00  0.00     0.118 C
BRANCH  10  11
HETATM   11  N2  UNL     1      79.096  21.392   0.685  1.00  0.00    -0.420 N
ATOM     12  H2  UNL     1      78.895  22.005  -0.106  1.00  0.00     0.153 HD
BRANCH  11  13
HETATM   13  C10 UNL     1      79.047  20.001   0.530  1.00  0.00     0.120 C
BRANCH  13  14
HETATM   14  C11 UNL     1      80.265  19.455  -0.236  1.00  0.00     0.020 C
HETATM   15  C12 UNL     1      81.051  18.520   0.634  1.00  0.00     0.009 C
HETATM   16  C13 UNL     1      81.109  17.111   0.141  1.00  0.00     0.020 C
HETATM   17  C14 UNL     1      79.764  16.625  -0.342  1.00  0.00     0.113 C
HETATM   18  N3  UNL     1      79.092  17.536  -1.214  1.00  0.00    -0.421 N
HETATM   19  C15 UNL     1      79.771  18.763  -1.483  1.00  0.00     0.120 C
ATOM     20  H3  UNL     1      78.180  17.323  -1.619  1.00  0.00     0.153 HD
ENDBRANCH  13  14
ENDBRANCH  11  13
ENDBRANCH  10  11
ENDBRANCH   9  10
ENDBRANCH   8   9
ENDBRANCH   4   8
ENDBRANCH   3   4
TORSDOF 8
ENDMDL