MODEL 5
REMARK VINA RESULT: -5.199775733      2.640      6.013
REMARK  10 active torsions:
REMARK  status: ('A' for Active; 'I' for Inactive)
REMARK    1  A    between atoms: O1_1  and  C1_3
REMARK    2  A    between atoms: C1_3  and  C2_4
REMARK    3  A    between atoms: C2_4  and  O2_5
REMARK    4  A    between atoms: O2_5  and  C3_6
REMARK    5  A    between atoms: C3_6  and  C4_7
REMARK    6  A    between atoms: C5_8  and  C6_9
REMARK    7  A    between atoms: C6_9  and  N1_10
REMARK    8  A    between atoms: N1_10  and  C7_11
REMARK    9  A    between atoms: C7_11  and  C8_12
REMARK   10  A    between atoms: C8_12  and  O3_13
ROOT
HETATM    1  N1  UNL     1      81.811  22.131   2.457  1.00  0.00    -0.062 N
HETATM    2  C9  UNL     1      80.908  22.740   3.350  1.00  0.00     0.238 C
HETATM    3  C10 UNL     1      80.378  24.090   3.049  1.00  0.00     0.028 C
HETATM    4  C11 UNL     1      81.271  25.023   2.304  1.00  0.00     0.003 C
HETATM    5  C12 UNL     1      82.299  24.343   1.447  1.00  0.00     0.028 C
HETATM    6  C13 UNL     1      82.014  22.889   1.216  1.00  0.00     0.238 C
ENDROOT
BRANCH   1   7
HETATM    7  C6  UNL     1      81.145  20.883   1.987  1.00  0.00     0.265 C
BRANCH   7   8
HETATM    8  C5  UNL     1      79.736  21.000   1.725  1.00  0.00    -0.001 C
HETATM    9  C4  UNL     1      79.122  20.455   0.711  1.00  0.00    -0.003 C
BRANCH   9  10
HETATM   10  C3  UNL     1      79.767  19.635  -0.332  1.00  0.00     0.194 C
BRANCH  10  11
HETATM   11  O2  UNL     1      79.473  18.278  -0.113  1.00  0.00    -0.385 OA
BRANCH  11  12
HETATM   12  C2  UNL     1      80.604  17.508  -0.166  1.00  0.00     0.194 C
BRANCH  12  13
HETATM   13  C1  UNL     1      80.440  16.077   0.234  1.00  0.00     0.190 C
BRANCH  13  14
HETATM   14  O1  UNL     1      80.706  16.032   1.627  1.00  0.00    -0.399 OA
ATOM     15  H1  UNL     1      81.210  15.239   1.769  1.00  0.00     0.209 HD
ENDBRANCH  13  14
ENDBRANCH  12  13
ENDBRANCH  11  12
ENDBRANCH  10  11
ENDBRANCH   9  10
ENDBRANCH   7   8
ENDBRANCH   1   7
BRANCH   1  16
HETATM   16  C7  UNL     1      83.059  21.671   2.964  1.00  0.00     0.263 C
BRANCH  16  17
HETATM   17  C8  UNL     1      83.645  22.262   4.171  1.00  0.00     0.192 C
BRANCH  17  18
HETATM   18  O3  UNL     1      84.196  21.343   5.059  1.00  0.00    -0.399 OA
ATOM     19  H3  UNL     1      83.561  20.834   5.549  1.00  0.00     0.209 HD
ENDBRANCH  17  18
ENDBRANCH  16  17
ENDBRANCH   1  16
TORSDOF 10
ENDMDL