MODEL 5
REMARK VINA RESULT: -5.036047807      1.683      1.971
REMARK  9 active torsions:
REMARK  status: ('A' for Active; 'I' for Inactive)
REMARK    1  A    between atoms: N1_2  and  C2_5
REMARK    2  A    between atoms: C2_5  and  C3_6
REMARK    3  A    between atoms: C5_8  and  C6_9
REMARK    4  A    between atoms: C6_9  and  C7_10
REMARK    5  A    between atoms: C7_10  and  N2_11
REMARK    6  A    between atoms: N2_11  and  C8_13
REMARK    7  A    between atoms: C8_13  and  C9_15
REMARK    8  A    between atoms: C9_15  and  C10_16
REMARK    9  A    between atoms: C10_16  and  N3_17
ROOT
HETATM    1  C7  UNL     1      83.546  20.217   0.852  1.00  0.00     0.120 C
ENDROOT
BRANCH   1   2
HETATM    2  C6  UNL     1      82.217  19.600   1.016  1.00  0.00     0.024 C
BRANCH   2   3
HETATM    3  C5  UNL     1      81.210  19.777  -0.063  1.00  0.00    -0.007 A
HETATM    4  C3  UNL     1      80.391  18.532  -0.336  1.00  0.00     0.016 A
HETATM    5  C4  UNL     1      79.758  19.814   0.064  1.00  0.00     0.011 A
BRANCH   4   6
HETATM    6  C2  UNL     1      80.153  18.075  -1.738  1.00  0.00     0.236 C
BRANCH   6   7
HETATM    7  N1  UNL     1      80.323  16.620  -1.777  1.00  0.00    -0.079 N
HETATM    8  C1  UNL     1      80.562  16.134  -0.420  1.00  0.00     0.267 C
ATOM      9  H12 UNL     1      81.054  16.332  -2.428  1.00  0.00     0.276 HD
ATOM     10  H11 UNL     1      79.539  16.148  -2.227  1.00  0.00     0.276 HD
ENDBRANCH   6   7
ENDBRANCH   4   6
ENDBRANCH   2   3
ENDBRANCH   1   2
BRANCH   1  11
HETATM   11  N2  UNL     1      83.876  21.146   1.876  1.00  0.00    -0.384 N
ATOM     12  H2  UNL     1      84.606  20.899   2.545  1.00  0.00     0.160 HD
BRANCH  11  13
HETATM   13  C8  UNL     1      83.232  22.398   2.005  1.00  0.00     0.074 C
HETATM   14  S1  UNL     1      83.168  23.446   0.723  1.00  0.00    -0.066 SA
BRANCH  13  15
HETATM   15  C9  UNL     1      82.619  22.785   3.293  1.00  0.00     0.088 C
BRANCH  15  16
HETATM   16  C10 UNL     1      81.120  22.395   3.157  1.00  0.00     0.122 C
BRANCH  16  17
HETATM   17  N3  UNL     1      80.345  23.580   3.174  1.00  0.00    -0.420 N
HETATM   18  C11 UNL     1      80.968  24.746   3.680  1.00  0.00     0.142 C
HETATM   19  C12 UNL     1      79.540  23.753   2.004  1.00  0.00     0.142 C
ENDBRANCH  16  17
ENDBRANCH  15  16
ENDBRANCH  13  15
ENDBRANCH  11  13
ENDBRANCH   1  11
TORSDOF 9
ENDMDL