MODEL 3
REMARK VINA RESULT: -6.074944879      3.073      6.017
REMARK  7 active torsions:
REMARK  status: ('A' for Active; 'I' for Inactive)
REMARK    1  A    between atoms: C2_2  and  C3_3
REMARK    2  A    between atoms: C3_3  and  N1_4
REMARK    3  A    between atoms: C8_14  and  C9_15
REMARK    4  A    between atoms: C9_15  and  C10_16
REMARK    5  A    between atoms: C10_16  and  N3_17
REMARK    6  A    between atoms: N3_17  and  C11_20
REMARK    7  A    between atoms: C11_20  and  C12_21
ROOT
HETATM    1  N1  UNL     1      81.763  23.632   3.580  1.00  0.00    -0.364 N
ATOM      2  H1  UNL     1      82.493  23.114   4.069  1.00  0.00     0.165 HD
HETATM    3  C4  UNL     1      81.162  22.931   2.758  1.00  0.00     0.082 C
HETATM    4  C5  UNL     1      80.047  23.415   1.897  1.00  0.00     0.271 C
HETATM    5  O1  UNL     1      79.909  24.623   1.638  1.00  0.00    -0.266 OA
HETATM    6  N2  UNL     1      79.140  22.457   1.373  1.00  0.00    -0.292 N
ATOM      7  H2  UNL     1      78.367  22.760   0.782  1.00  0.00     0.172 HD
HETATM    8  C6  UNL     1      79.303  21.074   1.668  1.00  0.00     0.225 C
HETATM    9  O2  UNL     1      78.649  20.241   0.999  1.00  0.00    -0.273 OA
HETATM   10  C7  UNL     1      80.252  20.720   2.765  1.00  0.00     0.114 C
HETATM   11  C8  UNL     1      81.553  21.469   2.569  1.00  0.00     0.051 C
ENDROOT
BRANCH  11  12
HETATM   12  C9  UNL     1      82.130  21.292   1.185  1.00  0.00     0.039 C
BRANCH  12  13
HETATM   13  C10 UNL     1      82.445  19.848   0.963  1.00  0.00     0.233 C
BRANCH  13  14
HETATM   14  N3  UNL     1      81.633  19.276  -0.098  1.00  0.00    -0.072 N
ATOM     15  H32 UNL     1      80.892  19.901  -0.415  1.00  0.00     0.277 HD
ATOM     16  H31 UNL     1      82.130  19.201  -0.986  1.00  0.00     0.277 HD
BRANCH  14  17
HETATM   17  C11 UNL     1      81.128  17.985   0.392  1.00  0.00     0.259 C
BRANCH  17  18
HETATM   18  C12 UNL     1      80.476  17.314  -0.744  1.00  0.00    -0.010 C
HETATM   19  C13 UNL     1      80.395  17.896  -1.943  1.00  0.00     0.008 C
ENDBRANCH  17  18
ENDBRANCH  14  17
ENDBRANCH  13  14
ENDBRANCH  12  13
ENDBRANCH  11  12
BRANCH   1  20
HETATM   20  C3  UNL     1      81.686  24.971   4.004  1.00  0.00     0.087 C
BRANCH  20  21
HETATM   21  C2  UNL     1      82.593  25.924   3.303  1.00  0.00     0.007 C
HETATM   22  C1  UNL     1      82.114  27.038   2.761  1.00  0.00     0.012 C
ENDBRANCH  20  21
ENDBRANCH   1  20
TORSDOF 7
ENDMDL