MODEL 4
REMARK VINA RESULT: -7.423683355      2.482      6.462
REMARK  8 active torsions:
REMARK  status: ('A' for Active; 'I' for Inactive)
REMARK    1  A    between atoms: N1_1  and  C1_4
REMARK    2  A    between atoms: C5_13  and  N4_14
REMARK    3  A    between atoms: N4_14  and  C6_16
REMARK    4  A    between atoms: C6_16  and  O2_17
REMARK    5  A    between atoms: C6_16  and  C7_19
REMARK    6  A    between atoms: C7_19  and  N5_20
REMARK    7  A    between atoms: C7_19  and  C8_24
REMARK       I    between atoms: N7_29  and  C9_30
REMARK    8  A    between atoms: N9_32  and  N10_34
ROOT
HETATM    1  C1  UNL     1      30.235  50.120   5.840  1.00  0.00     0.680 A
HETATM    2  N2  UNL     1      31.549  50.343   5.993  1.00  0.00    -0.154 N
ATOM      3  H2  UNL     1      32.171  49.993   5.264  1.00  0.00     0.187 HD
HETATM    4  C2  UNL     1      32.111  50.988   7.027  1.00  0.00     0.292 A
HETATM    5  O1  UNL     1      33.356  51.148   7.083  1.00  0.00    -0.265 OA
HETATM    6  C3  UNL     1      31.294  51.469   8.023  1.00  0.00     0.173 A
HETATM    7  C4  UNL     1      29.921  51.240   7.872  1.00  0.00     0.171 A
HETATM    8  N3  UNL     1      29.057  51.675   8.791  1.00  0.00    -0.172 N
ATOM      9  H3  UNL     1      28.055  51.512   8.685  1.00  0.00     0.186 HD
HETATM   10  C5  UNL     1      29.542  52.336   9.869  1.00  0.00     0.697 A
HETATM   11  N6  UNL     1      30.868  52.545   9.995  1.00  0.00    -0.122 N
ATOM     12  H6  UNL     1      31.207  53.046  10.817  1.00  0.00     0.206 HD
HETATM   13  N7  UNL     1      31.753  52.125   9.096  1.00  0.00    -0.203 N
HETATM   14  C9  UNL     1      33.130  52.375   9.290  1.00  0.00     0.229 C
HETATM   15  N8  UNL     1      33.908  51.401   9.974  1.00  0.00    -0.060 NA
HETATM   16  N9  UNL     1      33.725  53.447   8.894  1.00  0.00    -0.279 N
ATOM     17  H9  UNL     1      34.724  53.526   9.086  1.00  0.00     0.189 HD
HETATM   18  N11 UNL     1      29.429  50.586   6.807  1.00  0.00    -0.174 N
ATOM     19  H11 UNL     1      28.423  50.440   6.731  1.00  0.00     0.186 HD
ENDROOT
BRANCH  10  20
HETATM   20  N4  UNL     1      28.692  52.743  10.739  1.00  0.00    -0.196 N
ATOM     21  H4  UNL     1      27.784  53.054  10.398  1.00  0.00     0.180 HD
BRANCH  20  22
HETATM   22  C6  UNL     1      28.919  52.795  12.160  1.00  0.00     0.276 C
BRANCH  22  23
HETATM   23  O2  UNL     1      27.890  52.263  12.914  1.00  0.00    -0.373 OA
ATOM     24  H2  UNL     1      27.024  52.455  12.577  1.00  0.00     0.212 HD
ENDBRANCH  22  23
BRANCH  22  25
HETATM   25  C7  UNL     1      29.210  54.227  12.558  1.00  0.00     0.331 C
BRANCH  25  26
HETATM   26  N5  UNL     1      28.806  55.128  11.519  1.00  0.00    -0.061 N
ATOM     27  H53 UNL     1      28.426  54.631  10.713  1.00  0.00     0.275 HD
ATOM     28  H52 UNL     1      27.974  55.657  11.777  1.00  0.00     0.275 HD
ATOM     29  H51 UNL     1      29.580  55.740  11.257  1.00  0.00     0.275 HD
ENDBRANCH  25  26
BRANCH  25  30
HETATM   30  C8  UNL     1      30.667  54.367  12.877  1.00  0.00     0.209 C
HETATM   31  O3  UNL     1      31.186  55.501  12.954  1.00  0.00    -0.646 OA
HETATM   32  O4  UNL     1      31.448  53.243  13.088  1.00  0.00    -0.646 OA
ENDBRANCH  25  30
ENDBRANCH  22  25
ENDBRANCH  20  22
ENDBRANCH  10  20
BRANCH   1  33
HETATM   33  N1  UNL     1      29.734  49.498   4.830  1.00  0.00    -0.234 N
ATOM     34  H12 UNL     1      30.278  49.397   3.973  1.00  0.00     0.174 HD
ATOM     35  H11 UNL     1      28.801  49.084   4.831  1.00  0.00     0.174 HD
ENDBRANCH   1  33
BRANCH  16  36
HETATM   36  N10 UNL     1      33.125  54.493   8.237  1.00  0.00    -0.343 N
ATOM     37 2H10 UNL     1      32.991  54.377   7.232  1.00  0.00     0.176 HD
ATOM     38 1H10 UNL     1      32.810  55.360   8.672  1.00  0.00     0.176 HD
ENDBRANCH  16  36
TORSDOF 8
ENDMDL