MODEL 1
REMARK VINA RESULT: -7.376191116      0.000      0.000
REMARK  6 active torsions:
REMARK  status: ('A' for Active; 'I' for Inactive)
REMARK    1  A    between atoms: N1_1  and  N2_4
REMARK       I    between atoms: N2_4  and  C1_6
REMARK       I    between atoms: C1_6  and  N11_31
REMARK    2  A    between atoms: N3_7  and  C2_9
REMARK    3  A    between atoms: C2_9  and  C3_10
REMARK    4  A    between atoms: C4_13  and  N5_14
REMARK       I    between atoms: N5_14  and  C5_16
REMARK       I    between atoms: C5_16  and  N6_17
REMARK       I    between atoms: C5_16  and  N7_21
REMARK    5  A    between atoms: N9_27  and  N10_28
REMARK    6  A    between atoms: N11_31  and  S1_33
ROOT
HETATM    1  C3  UNL     1      31.273  53.156  10.859  1.00  0.00     0.155 A
HETATM    2  N4  UNL     1      30.269  52.753  11.661  1.00  0.00    -0.174 N
ATOM      3  H4  UNL     1      29.813  51.843  11.609  1.00  0.00     0.185 HD
HETATM    4  C4  UNL     1      29.954  53.720  12.537  1.00  0.00     0.698 A
HETATM    5  N8  UNL     1      30.785  54.738  12.264  1.00  0.00    -0.110 N
ATOM      6  H8  UNL     1      30.800  55.631  12.756  1.00  0.00     0.208 HD
HETATM    7  N9  UNL     1      31.590  54.404  11.247  1.00  0.00    -0.174 N
ENDROOT
BRANCH   1   8
HETATM    8  C2  UNL     1      31.917  52.378   9.755  1.00  0.00     0.218 C
BRANCH   8   9
HETATM    9  N3  UNL     1      30.938  51.760   8.919  1.00  0.00    -0.217 N
HETATM   10  C1  UNL     1      31.118  51.697   7.653  1.00  0.00     0.702 C
HETATM   11  N2  UNL     1      32.295  52.244   7.080  1.00  0.00    -0.138 N
HETATM   12  N11 UNL     1      30.182  51.094   6.767  1.00  0.00    -0.106 N
ATOM     13  H2  UNL     1      32.942  51.623   6.596  1.00  0.00     0.205 HD
ATOM     14  H11 UNL     1      29.219  51.426   6.717  1.00  0.00     0.198 HD
ATOM     15  H3  UNL     1      30.092  51.367   9.333  1.00  0.00     0.178 HD
BRANCH  11  16
HETATM   16  N1  UNL     1      32.598  53.612   7.159  1.00  0.00    -0.331 N
ATOM     17  H12 UNL     1      32.554  54.058   8.075  1.00  0.00     0.177 HD
ATOM     18  H11 UNL     1      32.855  54.159   6.338  1.00  0.00     0.177 HD
ENDBRANCH  11  16
BRANCH  12  19
HETATM   19  S1  UNL     1      30.715  49.801   5.790  1.00  0.00     0.312 S
HETATM   20  O1  UNL     1      31.613  50.358   4.761  1.00  0.00    -0.192 OA
HETATM   21  O2  UNL     1      29.615  49.111   5.054  1.00  0.00    -0.192 OA
HETATM   22  S2  UNL     1      31.347  48.338   7.060  1.00  0.00     0.076 SA
ENDBRANCH  12  19
ENDBRANCH   8   9
ENDBRANCH   1   8
BRANCH   7  23
HETATM   23  N10 UNL     1      32.585  55.195  10.677  1.00  0.00    -0.322 N
ATOM     24 2H10 UNL     1      32.767  55.324   9.681  1.00  0.00     0.179 HD
ATOM     25 1H10 UNL     1      33.265  55.751  11.195  1.00  0.00     0.179 HD
ENDBRANCH   7  23
BRANCH   4  26
HETATM   26  N5  UNL     1      29.032  53.613  13.422  1.00  0.00    -0.172 N
HETATM   27  C5  UNL     1      28.403  52.371  13.786  1.00  0.00     0.494 C
HETATM   28  N6  UNL     1      27.248  52.724  14.627  1.00  0.00    -0.032 N
HETATM   29  N7  UNL     1      29.262  51.544  14.611  1.00  0.00    -0.032 N
ATOM     30  H63 UNL     1      27.494  53.305  15.430  1.00  0.00     0.278 HD
ATOM     31  H62 UNL     1      26.612  53.387  14.183  1.00  0.00     0.278 HD
ATOM     32  H61 UNL     1      26.802  51.845  14.885  1.00  0.00     0.278 HD
ATOM     33  H73 UNL     1      30.163  51.383  14.161  1.00  0.00     0.278 HD
ATOM     34  H72 UNL     1      29.581  52.051  15.436  1.00  0.00     0.278 HD
ATOM     35  H71 UNL     1      28.816  50.664  14.869  1.00  0.00     0.278 HD
ATOM     36  H5  UNL     1      28.727  54.462  13.899  1.00  0.00     0.181 HD
ENDBRANCH   4  26
TORSDOF 6
ENDMDL