MODEL 2
REMARK VINA RESULT: -6.759436438      2.217      5.619
REMARK  8 active torsions:
REMARK  status: ('A' for Active; 'I' for Inactive)
REMARK    1  A    between atoms: N1_2  and  C2_4
REMARK    2  A    between atoms: C3_7  and  N3_8
REMARK    3  A    between atoms: C5_14  and  N5_15
REMARK    4  A    between atoms: N5_15  and  C6_17
REMARK    5  A    between atoms: C6_17  and  O1_18
REMARK    6  A    between atoms: C6_17  and  C7_20
REMARK    7  A    between atoms: C7_20  and  N6_21
REMARK    8  A    between atoms: C7_20  and  C8_25
ROOT
HETATM    1  C2  UNL     1      31.219  51.237   6.778  1.00  0.00     0.168 C
HETATM    2  N2  UNL     1      30.078  51.018   7.480  1.00  0.00    -0.173 N
ATOM      3  H2  UNL     1      29.350  50.519   6.969  1.00  0.00     0.186 HD
HETATM    4  C3  UNL     1      29.757  51.353   8.731  1.00  0.00     0.678 C
HETATM    5  N4  UNL     1      30.520  52.049   9.598  1.00  0.00    -0.187 N
ATOM      6  H4  UNL     1      30.158  52.064  10.552  1.00  0.00     0.184 HD
HETATM    7  C4  UNL     1      31.674  52.727   9.439  1.00  0.00     0.114 A
HETATM    8  C5  UNL     1      32.061  53.404  10.598  1.00  0.00     0.147 A
HETATM    9  N8  UNL     1      33.191  54.101  10.532  1.00  0.00    -0.281 N
ATOM     10  H8  UNL     1      33.493  54.604  11.366  1.00  0.00     0.188 HD
HETATM   11  N9  UNL     1      33.949  54.184   9.446  1.00  0.00    -0.264 N
ATOM     12  H9  UNL     1      34.805  54.739   9.466  1.00  0.00     0.190 HD
HETATM   13  C9  UNL     1      33.594  53.538   8.316  1.00  0.00     0.276 A
HETATM   14  O3  UNL     1      34.298  53.602   7.276  1.00  0.00    -0.266 OA
HETATM   15  C10 UNL     1      32.435  52.787   8.289  1.00  0.00     0.118 A
HETATM   16  C11 UNL     1      32.193  52.179   7.068  1.00  0.00     0.234 C
HETATM   17  O4  UNL     1      32.950  52.533   6.128  1.00  0.00    -0.283 OA
ENDROOT
BRANCH   8  18
HETATM   18  N5  UNL     1      31.299  53.292  11.608  1.00  0.00    -0.345 N
ATOM     19  H5  UNL     1      30.940  52.359  11.811  1.00  0.00     0.163 HD
BRANCH  18  20
HETATM   20  C6  UNL     1      30.891  54.344  12.490  1.00  0.00     0.259 C
BRANCH  20  21
HETATM   21  O1  UNL     1      30.635  55.538  11.776  1.00  0.00    -0.374 OA
ATOM     22  H1  UNL     1      29.880  55.994  12.131  1.00  0.00     0.212 HD
ENDBRANCH  20  21
BRANCH  20  23
HETATM   23  C7  UNL     1      29.530  53.935  13.066  1.00  0.00     0.319 C
BRANCH  23  24
HETATM   24  N6  UNL     1      29.786  53.180  14.251  1.00  0.00    -0.063 N
ATOM     25  H63 UNL     1      30.645  52.633  14.199  1.00  0.00     0.275 HD
ATOM     26  H62 UNL     1      30.050  53.761  15.048  1.00  0.00     0.275 HD
ATOM     27  H61 UNL     1      28.959  52.611  14.428  1.00  0.00     0.275 HD
ENDBRANCH  23  24
BRANCH  23  28
HETATM   28  C8  UNL     1      28.721  53.211  12.070  1.00  0.00     0.266 C
HETATM   29  N7  UNL     1      28.196  53.879  10.937  1.00  0.00    -0.060 NA
HETATM   30  O2  UNL     1      28.472  51.983  12.192  1.00  0.00    -0.274 OA
ENDBRANCH  23  28
ENDBRANCH  20  23
ENDBRANCH  18  20
ENDBRANCH   8  18
BRANCH   4  31
HETATM   31  N3  UNL     1      28.603  50.978   9.158  1.00  0.00    -0.234 N
ATOM     32  H32 UNL     1      28.336  50.016   8.955  1.00  0.00     0.174 HD
ATOM     33  H31 UNL     1      28.049  51.670   9.664  1.00  0.00     0.174 HD
ENDBRANCH   4  31
BRANCH   1  34
HETATM   34  N1  UNL     1      31.443  50.520   5.748  1.00  0.00    -0.377 N
HETATM   35  C1  UNL     1      30.594  49.376   5.476  1.00  0.00     0.148 C
ATOM     36  H1  UNL     1      32.213  50.749   5.120  1.00  0.00     0.160 HD
ENDBRANCH   1  34
TORSDOF 8
ENDMDL