MODEL 2
REMARK VINA RESULT: -8.100711395      0.168      1.631
REMARK  9 active torsions:
REMARK  status: ('A' for Active; 'I' for Inactive)
REMARK       I    between atoms: C1_4  and  N3_6
REMARK    1  A    between atoms: N3_6  and  N4_8
REMARK    2  A    between atoms: C2_10  and  O1_11
REMARK    3  A    between atoms: C2_10  and  C3_13
REMARK    4  A    between atoms: C3_13  and  N5_14
REMARK    5  A    between atoms: C3_13  and  C4_18
REMARK    6  A    between atoms: C5_20  and  N6_21
REMARK    7  A    between atoms: N6_21  and  C6_23
REMARK    8  A    between atoms: C7_26  and  N8_27
REMARK    9  A    between atoms: C8_32  and  N10_33
ROOT
HETATM    1  C4  UNL     1      31.354  52.790  12.479  1.00  0.00     0.262 C
HETATM    2  O2  UNL     1      30.938  51.722  11.654  1.00  0.00    -0.304 OA
HETATM    3  C5  UNL     1      31.639  51.771  10.448  1.00  0.00     0.241 C
HETATM    4  N12 UNL     1      32.118  52.988  10.315  1.00  0.00    -0.290 N
ATOM      5  H12 UNL     1      32.673  53.311   9.522  1.00  0.00     0.172 HD
HETATM    6  C9  UNL     1      31.755  53.788  11.425  1.00  0.00     0.257 C
HETATM    7  O3  UNL     1      31.747  55.037  11.561  1.00  0.00    -0.270 OA
ENDROOT
BRANCH   1   8
HETATM    8  C3  UNL     1      30.217  53.343  13.313  1.00  0.00     0.297 C
BRANCH   8   9
HETATM    9  C2  UNL     1      29.169  52.366  13.566  1.00  0.00     0.164 C
HETATM   10  N4  UNL     1      28.324  52.015  12.700  1.00  0.00    -0.279 N
ATOM     11  H4  UNL     1      27.645  51.322  13.014  1.00  0.00     0.189 HD
BRANCH  10  12
HETATM   12  N3  UNL     1      28.176  52.424  11.394  1.00  0.00    -0.272 N
HETATM   13  C1  UNL     1      28.086  53.793  11.013  1.00  0.00     0.200 C
HETATM   14  N1  UNL     1      28.520  54.132   9.829  1.00  0.00    -0.372 N
HETATM   15  N2  UNL     1      27.559  54.801  11.837  1.00  0.00    -0.062 NA
ATOM     16  H12 UNL     1      28.457  55.113   9.556  1.00  0.00     0.158 HD
ATOM     17  H11 UNL     1      28.904  53.400   9.231  1.00  0.00     0.158 HD
ATOM     18  H3  UNL     1      28.127  51.714  10.664  1.00  0.00     0.189 HD
ENDBRANCH  10  12
BRANCH   9  19
HETATM   19  O1  UNL     1      29.086  51.780  14.832  1.00  0.00    -0.347 OA
ATOM     20  H1  UNL     1      29.544  50.959  14.971  1.00  0.00     0.219 HD
ENDBRANCH   9  19
ENDBRANCH   8   9
BRANCH   8  21
HETATM   21  N5  UNL     1      30.786  53.883  14.514  1.00  0.00    -0.065 N
ATOM     22  H53 UNL     1      30.694  53.224  15.287  1.00  0.00     0.275 HD
ATOM     23  H52 UNL     1      31.804  53.924  14.449  1.00  0.00     0.275 HD
ATOM     24  H51 UNL     1      30.401  54.794  14.765  1.00  0.00     0.275 HD
ENDBRANCH   8  21
ENDBRANCH   1   8
BRANCH   3  25
HETATM   25  N6  UNL     1      31.870  50.790   9.465  1.00  0.00    -0.153 N
ATOM     26  H6  UNL     1      32.601  50.109   9.671  1.00  0.00     0.188 HD
BRANCH  25  27
HETATM   27  C6  UNL     1      31.272  50.653   8.343  1.00  0.00     0.714 A
HETATM   28  N7  UNL     1      30.452  51.589   7.843  1.00  0.00    -0.021 N
HETATM   29  C7  UNL     1      29.829  51.449   6.672  1.00  0.00     0.705 A
ATOM     30  H7  UNL     1      30.299  52.443   8.379  1.00  0.00     0.203 HD
HETATM   31  N9  UNL     1      30.020  50.335   5.952  1.00  0.00    -0.022 N
HETATM   32  C8  UNL     1      30.834  49.379   6.423  1.00  0.00     0.705 A
ATOM     33  H9  UNL     1      29.550  50.215   5.055  1.00  0.00     0.203 HD
HETATM   34  N11 UNL     1      31.463  49.538   7.623  1.00  0.00    -0.021 N
ATOM     35  H11 UNL     1      32.080  48.805   7.973  1.00  0.00     0.203 HD
BRANCH  29  36
HETATM   36  N8  UNL     1      29.032  52.387   6.213  1.00  0.00    -0.234 N
ATOM     37  H82 UNL     1      28.854  53.216   6.779  1.00  0.00     0.174 HD
ATOM     38  H81 UNL     1      28.588  52.299   5.299  1.00  0.00     0.174 HD
ENDBRANCH  29  36
BRANCH  32  39
HETATM   39  N10 UNL     1      31.056  48.298   5.786  1.00  0.00    -0.234 N
ATOM     40 2H10 UNL     1      30.481  48.113   4.964  1.00  0.00     0.174 HD
ATOM     41 1H10 UNL     1      31.775  47.634   6.072  1.00  0.00     0.174 HD
ENDBRANCH  32  39
ENDBRANCH  25  27
ENDBRANCH   3  25
TORSDOF 9
ENDMDL