MODEL 2
REMARK VINA RESULT: -9.439427501      0.958      1.145
REMARK  8 active torsions:
REMARK  status: ('A' for Active; 'I' for Inactive)
REMARK    1  A    between atoms: C3_3  and  O1_4
REMARK       I    between atoms: N3_13  and  C6_15
REMARK       I    between atoms: C6_15  and  N5_19
REMARK       I    between atoms: N5_19  and  C7_21
REMARK    2  A    between atoms: C7_21  and  C8_23
REMARK    3  A    between atoms: C8_23  and  N6_24
REMARK    4  A    between atoms: C8_23  and  C9_28
REMARK    5  A    between atoms: C9_28  and  O4_29
REMARK    6  A    between atoms: C9_28  and  C10_31
REMARK    7  A    between atoms: C10_31  and  O5_32
REMARK    8  A    between atoms: C10_31  and  C11_34
ROOT
HETATM    1  C1  UNL     1      29.183  54.209  11.222  1.00  0.00     0.057 C
HETATM    2  C2  UNL     1      29.463  53.107  12.170  1.00  0.00     0.034 A
HETATM    3  C3  UNL     1      28.380  52.690  12.960  1.00  0.00     0.153 A
HETATM    4  N1  UNL     1      28.611  51.692  13.822  1.00  0.00    -0.288 N
ATOM      5  H1  UNL     1      27.853  51.358  14.417  1.00  0.00     0.172 HD
HETATM    6  C4  UNL     1      29.829  51.120  13.915  1.00  0.00     0.327 A
HETATM    7  O2  UNL     1      30.002  50.169  14.752  1.00  0.00    -0.247 OA
HETATM    8  N2  UNL     1      30.851  51.511  13.172  1.00  0.00    -0.293 N
ATOM      9  H2  UNL     1      31.755  51.049  13.279  1.00  0.00     0.172 HD
HETATM   10  C5  UNL     1      30.716  52.545  12.243  1.00  0.00     0.135 A
HETATM   11  N3  UNL     1      31.734  52.848  11.592  1.00  0.00    -0.176 N
ATOM     12  H3  UNL     1      32.523  52.259  11.858  1.00  0.00     0.186 HD
HETATM   13  C6  UNL     1      32.096  53.733  10.634  1.00  0.00     0.680 C
HETATM   14  N4  UNL     1      32.357  55.011  10.855  1.00  0.00    -0.234 N
ATOM     15  H41 UNL     1      32.630  55.678  10.134  1.00  0.00     0.174 HD
ATOM     16  H42 UNL     1      32.245  55.295  11.828  1.00  0.00     0.174 HD
HETATM   17  N5  UNL     1      32.256  53.327   9.246  1.00  0.00    -0.158 N
ATOM     18  H5  UNL     1      32.543  54.019   8.555  1.00  0.00     0.187 HD
HETATM   19  C7  UNL     1      32.022  51.996   8.835  1.00  0.00     0.269 C
HETATM   20  O3  UNL     1      31.667  51.150   9.684  1.00  0.00    -0.270 OA
ENDROOT
BRANCH  19  21
HETATM   21  C8  UNL     1      32.188  51.598   7.429  1.00  0.00     0.306 C
BRANCH  21  22
HETATM   22  N6  UNL     1      32.355  52.861   6.660  1.00  0.00    -0.064 N
ATOM     23  H63 UNL     1      31.521  53.449   6.658  1.00  0.00     0.275 HD
ATOM     24  H62 UNL     1      32.977  53.531   7.110  1.00  0.00     0.275 HD
ATOM     25  H61 UNL     1      32.660  52.586   5.727  1.00  0.00     0.275 HD
ENDBRANCH  21  22
BRANCH  21  26
HETATM   26  C9  UNL     1      30.939  50.986   6.825  1.00  0.00     0.195 C
BRANCH  26  27
HETATM   27  O4  UNL     1      30.280  52.058   6.170  1.00  0.00    -0.390 OA
ATOM     28  H4  UNL     1      29.956  51.691   5.356  1.00  0.00     0.210 HD
ENDBRANCH  26  27
BRANCH  26  29
HETATM   29  C10 UNL     1      31.191  49.958   5.774  1.00  0.00     0.238 C
BRANCH  29  30
HETATM   30  O5  UNL     1      30.226  49.951   4.758  1.00  0.00    -0.384 OA
ATOM     31  H5  UNL     1      30.584  50.129   3.896  1.00  0.00     0.210 HD
ENDBRANCH  29  30
BRANCH  29  32
HETATM   32  C11 UNL     1      31.124  48.624   6.484  1.00  0.00     0.262 C
HETATM   33  N7  UNL     1      31.323  48.540   7.888  1.00  0.00    -0.060 NA
HETATM   34  O6  UNL     1      30.895  47.560   5.864  1.00  0.00    -0.274 OA
ENDBRANCH  29  32
ENDBRANCH  26  29
ENDBRANCH  21  26
ENDBRANCH  19  21
BRANCH   3  35
HETATM   35  O1  UNL     1      27.140  53.305  12.833  1.00  0.00    -0.345 OA
ATOM     36  H1  UNL     1      26.890  54.007  13.422  1.00  0.00     0.219 HD
ENDBRANCH   3  35
TORSDOF 8
ENDMDL