MODEL 1
REMARK VINA RESULT: -9.525481713      0.000      0.000
REMARK  9 active torsions:
REMARK  status: ('A' for Active; 'I' for Inactive)
REMARK    1  A    between atoms: N1_1  and  C1_4
REMARK    2  A    between atoms: C2_7  and  C3_8
REMARK    3  A    between atoms: C3_8  and  C4_9
REMARK    4  A    between atoms: C5_10  and  C6_11
REMARK    5  A    between atoms: C6_11  and  O1_13
REMARK    6  A    between atoms: C7_15  and  C8_16
REMARK       I    between atoms: C8_16  and  N4_18
REMARK    7  A    between atoms: N4_18  and  N5_19
REMARK       I    between atoms: N5_19  and  C9_21
REMARK       I    between atoms: C9_21  and  N6_23
REMARK    8  A    between atoms: N6_23  and  N7_25
REMARK    9  A    between atoms: N7_25  and  N8_26
ROOT
HETATM    1  C4  UNL     1      30.864  52.248   9.332  1.00  0.00     0.071 A
HETATM    2  C5  UNL     1      32.120  53.190   9.480  1.00  0.00     0.012 A
HETATM    3  C7  UNL     1      32.002  52.181   8.592  1.00  0.00     0.046 A
ENDROOT
BRANCH   1   4
HETATM    4  C3  UNL     1      30.815  51.457  10.668  1.00  0.00     0.091 C
BRANCH   4   5
HETATM    5  C2  UNL     1      29.809  51.927  11.593  1.00  0.00     0.102 A
HETATM    6  N2  UNL     1      29.558  51.644  12.778  1.00  0.00    -0.181 N
HETATM    7  C1  UNL     1      28.659  52.244  13.567  1.00  0.00     0.681 A
ATOM      8  H2  UNL     1      30.090  50.877  13.189  1.00  0.00     0.185 HD
HETATM    9  N10 UNL     1      27.961  53.183  13.138  1.00  0.00    -0.141 N
HETATM   10  C10 UNL     1      28.134  53.625  11.812  1.00  0.00     0.339 A
ATOM     11  H10 UNL     1      27.270  53.628  13.742  1.00  0.00     0.189 HD
HETATM   12  N9  UNL     1      28.999  53.095  10.977  1.00  0.00    -0.297 N
HETATM   13  O4  UNL     1      27.424  54.579  11.439  1.00  0.00    -0.246 OA
ATOM     14  H9  UNL     1      29.125  53.420  10.018  1.00  0.00     0.172 HD
BRANCH   7  15
HETATM   15  N1  UNL     1      28.670  52.115  14.933  1.00  0.00    -0.234 N
ATOM     16  H12 UNL     1      27.838  51.677  15.326  1.00  0.00     0.174 HD
ATOM     17  H11 UNL     1      29.321  52.627  15.529  1.00  0.00     0.174 HD
ENDBRANCH   7  15
ENDBRANCH   4   5
ENDBRANCH   1   4
BRANCH   2  18
HETATM   18  C6  UNL     1      32.534  54.206  10.456  1.00  0.00     0.157 C
HETATM   19  N3  UNL     1      31.751  54.787  11.469  1.00  0.00    -0.074 NA
BRANCH  18  20
HETATM   20  O1  UNL     1      33.760  54.624  10.332  1.00  0.00    -0.348 OA
ATOM     21  H1  UNL     1      33.877  55.562  10.427  1.00  0.00     0.219 HD
ENDBRANCH  18  20
ENDBRANCH   2  18
BRANCH   3  22
HETATM   22  C8  UNL     1      32.678  51.420   7.420  1.00  0.00     0.343 C
HETATM   23  O2  UNL     1      33.917  51.381   7.508  1.00  0.00    -0.249 OA
HETATM   24  N4  UNL     1      31.717  51.004   6.590  1.00  0.00    -0.277 NA
BRANCH  24  25
HETATM   25  N5  UNL     1      30.767  50.588   5.762  1.00  0.00    -0.180 N
HETATM   26  C9  UNL     1      30.399  49.203   5.390  1.00  0.00     0.362 C
HETATM   27  O3  UNL     1      30.642  48.186   5.574  1.00  0.00    -0.243 OA
HETATM   28  N6  UNL     1      29.230  49.422   4.339  1.00  0.00    -0.234 N
ATOM     29  H6  UNL     1      28.895  50.357   4.107  1.00  0.00     0.189 HD
ATOM     30  H5  UNL     1      30.214  51.323   5.321  1.00  0.00     0.207 HD
BRANCH  28  31
HETATM   31  N7  UNL     1      28.701  48.330   3.770  1.00  0.00    -0.026 NA
BRANCH  31  32
HETATM   32  N8  UNL     1      28.292  48.528   2.504  1.00  0.00    -0.329 N
ATOM     33  H82 UNL     1      28.555  47.905   1.741  1.00  0.00     0.174 HD
ATOM     34  H81 UNL     1      27.703  49.353   2.392  1.00  0.00     0.174 HD
ENDBRANCH  31  32
ENDBRANCH  28  31
ENDBRANCH  24  25
ENDBRANCH   3  22
TORSDOF 9
ENDMDL