MODEL 3
REMARK VINA RESULT: -6.994140263      1.722      5.998
REMARK  4 active torsions:
REMARK  status: ('A' for Active; 'I' for Inactive)
REMARK    1  A    between atoms: N2_4  and  N3_6
REMARK       I    between atoms: N3_6  and  C1_8
REMARK       I    between atoms: C1_8  and  N5_12
REMARK    2  A    between atoms: N5_12  and  C2_14
REMARK    3  A    between atoms: C4_23  and  C5_24
REMARK    4  A    between atoms: C5_24  and  C6_25
ROOT
HETATM    1  C2  UNL     1      30.827  53.132  10.974  1.00  0.00     0.156 A
HETATM    2  N6  UNL     1      31.313  54.358  11.079  1.00  0.00    -0.175 N
ATOM      3  H6  UNL     1      30.846  55.009  11.709  1.00  0.00     0.186 HD
HETATM    4  C3  UNL     1      32.388  54.793  10.401  1.00  0.00     0.677 A
HETATM    5  N7  UNL     1      32.864  55.985  10.497  1.00  0.00    -0.234 N
ATOM      6  H71 UNL     1      33.680  56.316   9.982  1.00  0.00     0.174 HD
ATOM      7  H72 UNL     1      32.420  56.662  11.119  1.00  0.00     0.174 HD
HETATM    8  N8  UNL     1      32.982  53.886   9.567  1.00  0.00    -0.194 N
ATOM      9  H8  UNL     1      33.802  54.180   9.035  1.00  0.00     0.184 HD
HETATM   10  C4  UNL     1      32.541  52.635   9.416  1.00  0.00     0.051 A
HETATM   11  C9  UNL     1      31.415  52.216  10.142  1.00  0.00     0.080 A
HETATM   12  S1  UNL     1      30.772  50.543   9.981  1.00  0.00    -0.046 SA
ENDROOT
BRANCH   1  13
HETATM   13  N5  UNL     1      29.782  52.711  11.644  1.00  0.00    -0.174 N
HETATM   14  C1  UNL     1      29.425  53.245  12.903  1.00  0.00     0.693 C
HETATM   15  N3  UNL     1      30.049  52.868  14.119  1.00  0.00    -0.118 N
HETATM   16  N4  UNL     1      28.474  54.128  12.940  1.00  0.00    -0.233 N
ATOM     17  H3  UNL     1      29.933  53.470  14.934  1.00  0.00     0.207 HD
ATOM     18  H42 UNL     1      28.216  54.514  13.848  1.00  0.00     0.174 HD
ATOM     19  H41 UNL     1      28.026  54.399  12.064  1.00  0.00     0.174 HD
ATOM     20  H5  UNL     1      29.206  51.972  11.243  1.00  0.00     0.186 HD
BRANCH  15  21
HETATM   21  N2  UNL     1      30.815  51.704  14.249  1.00  0.00    -0.235 N
HETATM   22  N1  UNL     1      30.252  50.557  14.340  1.00  0.00    -0.330 N
ATOM     23  H12 UNL     1      29.233  50.509  14.315  1.00  0.00     0.178 HD
ATOM     24  H11 UNL     1      30.810  49.709  14.434  1.00  0.00     0.178 HD
ATOM     25  H2  UNL     1      31.832  51.770  14.271  1.00  0.00     0.208 HD
ENDBRANCH  15  21
ENDBRANCH   1  13
BRANCH  10  26
HETATM   26  C5  UNL     1      33.143  51.617   8.542  1.00  0.00     0.106 C
BRANCH  26  27
HETATM   27  C6  UNL     1      32.515  51.482   7.186  1.00  0.00     0.192 A
HETATM   28  N9  UNL     1      31.311  52.210   6.996  1.00  0.00    -0.343 N
HETATM   29  C7  UNL     1      30.189  51.742   6.580  1.00  0.00     0.192 A
ATOM     30  H9  UNL     1      31.340  53.206   7.213  1.00  0.00     0.164 HD
HETATM   31  N10 UNL     1      29.113  52.657   6.466  1.00  0.00    -0.063 NA
HETATM   32  N11 UNL     1      30.030  50.362   6.242  1.00  0.00    -0.305 N
HETATM   33  C8  UNL     1      31.078  49.610   6.379  1.00  0.00     0.192 A
ATOM     34  H11 UNL     1      29.140  49.988   5.913  1.00  0.00     0.171 HD
HETATM   35  N12 UNL     1      30.997  48.205   6.059  1.00  0.00    -0.063 NA
HETATM   36  N13 UNL     1      32.325  50.097   6.822  1.00  0.00    -0.343 N
ATOM     37  H13 UNL     1      33.114  49.453   6.889  1.00  0.00     0.164 HD
ENDBRANCH  26  27
ENDBRANCH  10  26
TORSDOF 4
ENDMDL