MODEL 5
REMARK VINA RESULT: -7.253249291      2.386      5.662
REMARK  11 active torsions:
REMARK  status: ('A' for Active; 'I' for Inactive)
REMARK    1  A    between atoms: N1_1  and  C1_4
REMARK    2  A    between atoms: C3_9  and  S1_10
REMARK    3  A    between atoms: S1_10  and  N4_11
REMARK    4  A    between atoms: S1_10  and  N5_15
REMARK    5  A    between atoms: N5_15  and  N6_17
REMARK    6  A    between atoms: N6_17  and  N7_18
REMARK    7  A    between atoms: N6_17  and  N8_21
REMARK    8  A    between atoms: C4_24  and  N9_25
REMARK    9  A    between atoms: N9_25  and  C5_27
REMARK   10  A    between atoms: C5_27  and  C6_28
REMARK   11  A    between atoms: C6_28  and  N10_29
ROOT
HETATM    1  C1  UNL     1      32.451  54.319  10.146  1.00  0.00     0.678 A
HETATM    2  N2  UNL     1      31.987  54.984  11.216  1.00  0.00    -0.177 N
ATOM      3  H2  UNL     1      32.499  55.802  11.548  1.00  0.00     0.185 HD
HETATM    4  C2  UNL     1      30.860  54.609  11.872  1.00  0.00     0.157 A
HETATM    5  N3  UNL     1      30.422  55.360  13.003  1.00  0.00    -0.080 NA
HETATM    6  C3  UNL     1      30.174  53.515  11.428  1.00  0.00     0.145 A
HETATM    7  C4  UNL     1      30.672  52.839  10.316  1.00  0.00     0.142 A
HETATM    8  N13 UNL     1      31.788  53.238   9.693  1.00  0.00    -0.176 N
ATOM      9  H13 UNL     1      32.134  52.726   8.881  1.00  0.00     0.186 HD
ENDROOT
BRANCH   6  10
HETATM   10  S1  UNL     1      28.720  53.003  12.248  1.00  0.00     0.160 S
HETATM   11  O1  UNL     1      28.204  51.701  11.714  1.00  0.00    -0.222 OA
BRANCH  10  12
HETATM   12  N4  UNL     1      27.553  54.273  12.042  1.00  0.00    -0.340 N
ATOM     13  H42 UNL     1      27.191  54.877  12.781  1.00  0.00     0.167 HD
ATOM     14  H41 UNL     1      27.309  54.293  11.052  1.00  0.00     0.167 HD
ENDBRANCH  10  12
BRANCH  10  15
HETATM   15  N5  UNL     1      29.075  52.830  13.766  1.00  0.00    -0.204 N
ATOM     16  H5  UNL     1      28.616  53.429  14.452  1.00  0.00     0.202 HD
BRANCH  15  17
HETATM   17  N6  UNL     1      29.995  51.887  14.205  1.00  0.00    -0.136 N
BRANCH  17  18
HETATM   18  N7  UNL     1      31.352  52.210  14.211  1.00  0.00    -0.309 N
ATOM     19  H72 UNL     1      31.765  52.824  13.509  1.00  0.00     0.180 HD
ATOM     20  H71 UNL     1      31.953  51.825  14.940  1.00  0.00     0.180 HD
ENDBRANCH  17  18
BRANCH  17  21
HETATM   21  N8  UNL     1      29.529  50.640  14.628  1.00  0.00    -0.309 N
ATOM     22  H82 UNL     1      28.558  50.353  14.499  1.00  0.00     0.180 HD
ATOM     23  H81 UNL     1      30.181  50.000  15.081  1.00  0.00     0.180 HD
ENDBRANCH  17  21
ENDBRANCH  15  17
ENDBRANCH  10  15
ENDBRANCH   6  10
BRANCH   7  24
HETATM   24  N9  UNL     1      29.998  51.829   9.942  1.00  0.00    -0.373 N
ATOM     25  H9  UNL     1      29.904  51.021  10.558  1.00  0.00     0.161 HD
BRANCH  24  26
HETATM   26  C5  UNL     1      29.365  51.827   8.641  1.00  0.00     0.141 C
BRANCH  26  27
HETATM   27  C6  UNL     1      30.172  50.944   7.718  1.00  0.00     0.141 C
BRANCH  27  28
HETATM   28  N10 UNL     1      30.945  51.707   6.770  1.00  0.00    -0.365 N
HETATM   29  C7  UNL     1      32.220  51.761   6.935  1.00  0.00     0.197 C
HETATM   30  N11 UNL     1      33.061  52.496   6.041  1.00  0.00    -0.067 NA
HETATM   31  N12 UNL     1      32.873  51.099   8.009  1.00  0.00    -0.067 NA
ATOM     32  H10 UNL     1      30.495  52.189   5.992  1.00  0.00     0.161 HD
ENDBRANCH  27  28
ENDBRANCH  26  27
ENDBRANCH  24  26
ENDBRANCH   7  24
BRANCH   1  33
HETATM   33  N1  UNL     1      33.535  54.691   9.525  1.00  0.00    -0.234 N
ATOM     34  H12 UNL     1      33.918  54.079   8.804  1.00  0.00     0.174 HD
ATOM     35  H11 UNL     1      34.004  55.571   9.743  1.00  0.00     0.174 HD
ENDBRANCH   1  33
TORSDOF 11
ENDMDL