MODEL 4
REMARK VINA RESULT: -9.133123472      1.861      2.912
REMARK  6 active torsions:
REMARK  status: ('A' for Active; 'I' for Inactive)
REMARK    1  A    between atoms: C4_13  and  C5_14
REMARK    2  A    between atoms: C5_14  and  C6_15
REMARK    3  A    between atoms: C6_15  and  N5_16
REMARK    4  A    between atoms: C6_15  and  C7_20
REMARK    5  A    between atoms: C7_20  and  C8_21
REMARK    6  A    between atoms: C10_26  and  C11_27
ROOT
HETATM    1  C6  UNL     1      32.094  53.907  10.980  1.00  0.00     0.213 C
ENDROOT
BRANCH   1   2
HETATM    2  C5  UNL     1      31.068  54.790  11.612  1.00  0.00     0.082 C
BRANCH   2   3
HETATM    3  C4  UNL     1      30.073  54.144  12.469  1.00  0.00     0.029 A
HETATM    4  C1  UNL     1      30.406  53.412  13.575  1.00  0.00     0.112 A
HETATM    5  N1  UNL     1      31.624  53.258  13.982  1.00  0.00    -0.385 N
HETATM    6  N2  UNL     1      29.395  52.836  14.292  1.00  0.00    -0.294 N
ATOM      7  H12 UNL     1      31.872  52.712  14.806  1.00  0.00     0.157 HD
ATOM      8  H11 UNL     1      32.379  53.688  13.447  1.00  0.00     0.157 HD
HETATM    9  C2  UNL     1      28.108  52.971  13.944  1.00  0.00     0.327 A
ATOM     10  H2  UNL     1      29.627  52.286  15.119  1.00  0.00     0.172 HD
HETATM   11  O1  UNL     1      27.218  52.402  14.666  1.00  0.00    -0.247 OA
HETATM   12  N3  UNL     1      27.753  53.679  12.870  1.00  0.00    -0.296 N
HETATM   13  C3  UNL     1      28.731  54.255  12.148  1.00  0.00     0.130 A
ATOM     14  H3  UNL     1      26.774  53.780  12.605  1.00  0.00     0.171 HD
HETATM   15  N4  UNL     1      28.304  55.006  11.009  1.00  0.00    -0.082 NA
ENDBRANCH   2   3
ENDBRANCH   1   2
BRANCH   1  16
HETATM   16  N5  UNL     1      32.609  54.345   9.709  1.00  0.00    -0.071 N
ATOM     17  H53 UNL     1      31.853  54.733   9.145  1.00  0.00     0.275 HD
ATOM     18  H52 UNL     1      33.186  55.177   9.838  1.00  0.00     0.275 HD
ATOM     19  H51 UNL     1      33.122  53.648   9.169  1.00  0.00     0.275 HD
ENDBRANCH   1  16
BRANCH   1  20
HETATM   20  C7  UNL     1      31.414  52.602  10.725  1.00  0.00     0.041 C
BRANCH  20  21
HETATM   21  C8  UNL     1      31.343  51.956   9.605  1.00  0.00     0.102 A
HETATM   22  N6  UNL     1      32.387  51.531   8.906  1.00  0.00    -0.317 N
HETATM   23  C9  UNL     1      32.258  50.856   7.733  1.00  0.00     0.280 A
ATOM     24  H6  UNL     1      33.325  51.718   9.262  1.00  0.00     0.169 HD
HETATM   25  O2  UNL     1      33.287  50.465   7.090  1.00  0.00    -0.265 OA
HETATM   26  C10 UNL     1      31.004  50.597   7.246  1.00  0.00     0.181 A
HETATM   27  N7  UNL     1      29.945  51.027   7.955  1.00  0.00    -0.311 N
HETATM   28  C12 UNL     1      30.065  51.693   9.111  1.00  0.00     0.272 A
ATOM     29  H7  UNL     1      29.008  50.838   7.597  1.00  0.00     0.169 HD
HETATM   30  O5  UNL     1      29.041  52.081   9.749  1.00  0.00    -0.266 OA
BRANCH  26  31
HETATM   31  C11 UNL     1      30.878  49.944   6.111  1.00  0.00     0.232 C
HETATM   32  O3  UNL     1      30.586  48.593   6.134  1.00  0.00    -0.643 OA
HETATM   33  O4  UNL     1      31.029  50.578   4.909  1.00  0.00    -0.643 OA
ENDBRANCH  26  31
ENDBRANCH  20  21
ENDBRANCH   1  20
TORSDOF 6
ENDMDL