MODEL 5
REMARK VINA RESULT: 0.600754980      2.502      3.643
REMARK  3 active torsions:
REMARK  status: ('A' for Active; 'I' for Inactive)
REMARK       I    between atoms: C1_4  and  N3_6
REMARK    1  A    between atoms: N3_6  and  N4_8
REMARK    2  A    between atoms: C8_24  and  N8_25
REMARK       I    between atoms: N8_25  and  C9_27
REMARK       I    between atoms: C9_27  and  N9_28
REMARK       I    between atoms: C9_27  and  N10_32
REMARK    3  A    between atoms: C10_37  and  C11_38
ROOT
HETATM    1  N4  UNL     1      27.570  53.631   7.900  1.00  0.00    -0.284 N
ATOM      2  H4  UNL     1      26.875  54.239   8.333  1.00  0.00     0.188 HD
HETATM    3  C2  UNL     1      28.451  53.138   8.698  1.00  0.00     0.129 C
HETATM    4  N5  UNL     1      28.424  53.446  10.086  1.00  0.00    -0.367 N
ATOM      5  H5  UNL     1      27.522  53.354  10.552  1.00  0.00     0.161 HD
HETATM    6  C3  UNL     1      29.517  53.869  10.900  1.00  0.00     0.223 C
HETATM    7  C4  UNL     1      30.105  52.811  11.747  1.00  0.00     0.235 C
HETATM    8  O1  UNL     1      29.375  51.839  12.093  1.00  0.00    -0.272 OA
HETATM    9  N6  UNL     1      31.460  52.920  12.142  1.00  0.00    -0.358 N
ATOM     10  H6  UNL     1      31.859  52.176  12.715  1.00  0.00     0.162 HD
HETATM   11  C5  UNL     1      32.308  54.032  11.775  1.00  0.00     0.142 C
HETATM   12  C6  UNL     1      33.138  53.764  10.536  1.00  0.00     0.142 C
HETATM   13  N7  UNL     1      33.311  52.346  10.376  1.00  0.00    -0.356 N
ATOM     14  H7  UNL     1      34.048  51.903  10.924  1.00  0.00     0.162 HD
HETATM   15  C7  UNL     1      32.557  51.517   9.533  1.00  0.00     0.266 C
HETATM   16  O2  UNL     1      32.469  50.267   9.804  1.00  0.00    -0.269 OA
HETATM   17  C8  UNL     1      31.865  52.073   8.344  1.00  0.00     0.314 C
HETATM   18  O3  UNL     1      30.674  52.604   8.727  1.00  0.00    -0.338 OA
HETATM   19  C10 UNL     1      29.523  52.213   8.144  1.00  0.00     0.254 C
ENDROOT
BRANCH  17  20
HETATM   20  N8  UNL     1      31.886  51.273   7.175  1.00  0.00    -0.341 N
HETATM   21  C9  UNL     1      32.266  51.948   5.962  1.00  0.00     0.478 C
HETATM   22  N9  UNL     1      32.235  51.038   4.821  1.00  0.00    -0.033 N
HETATM   23  N10 UNL     1      33.583  52.526   5.988  1.00  0.00    -0.033 N
ATOM     24  H93 UNL     1      32.808  50.211   4.985  1.00  0.00     0.278 HD
ATOM     25  H92 UNL     1      31.326  50.584   4.728  1.00  0.00     0.278 HD
ATOM     26  H91 UNL     1      32.504  51.517   3.961  1.00  0.00     0.278 HD
ATOM     27 3H10 UNL     1      33.681  53.151   6.788  1.00  0.00     0.278 HD
ATOM     28 2H10 UNL     1      34.277  51.819   6.233  1.00  0.00     0.278 HD
ATOM     29 1H10 UNL     1      33.853  53.004   5.128  1.00  0.00     0.278 HD
ATOM     30  H8  UNL     1      31.647  50.281   7.192  1.00  0.00     0.160 HD
ENDBRANCH  17  20
BRANCH  19  31
HETATM   31  C11 UNL     1      29.126  50.809   8.366  1.00  0.00     0.270 C
HETATM   32  O4  UNL     1      29.502  49.954   7.595  1.00  0.00    -0.304 OA
ENDBRANCH  19  31
BRANCH   1  33
HETATM   33  N3  UNL     1      27.441  53.452   6.555  1.00  0.00    -0.272 N
HETATM   34  C1  UNL     1      26.270  53.874   5.880  1.00  0.00     0.200 C
HETATM   35  N1  UNL     1      26.176  55.030   5.340  1.00  0.00    -0.372 N
HETATM   36  N2  UNL     1      25.176  52.982   5.805  1.00  0.00    -0.062 NA
ATOM     37  H12 UNL     1      25.333  55.334   4.854  1.00  0.00     0.158 HD
ATOM     38  H11 UNL     1      26.965  55.674   5.395  1.00  0.00     0.158 HD
ATOM     39  H3  UNL     1      28.194  53.009   6.030  1.00  0.00     0.189 HD
ENDBRANCH   1  33
TORSDOF 3
ENDMDL