MODEL 5
REMARK VINA RESULT: -8.318603726      2.871      3.775
REMARK  5 active torsions:
REMARK  status: ('A' for Active; 'I' for Inactive)
REMARK    1  A    between atoms: C1_2  and  C2_3
REMARK       I    between atoms: C1_2  and  N2_10
REMARK    2  A    between atoms: C2_3  and  N1_4
REMARK    3  A    between atoms: C9_13  and  C10_14
REMARK    4  A    between atoms: C11_18  and  C12_19
REMARK    5  A    between atoms: C14_22  and  C15_23
ROOT
HETATM    1  C10 UNL     1      10.382  62.988  38.638  1.00  0.00     0.092 A
HETATM    2  N3  UNL     1       9.606  62.490  37.669  1.00  0.00    -0.314 N
ATOM      3  H3  UNL     1       9.813  61.741  37.009  1.00  0.00     0.175 HD
HETATM    4  S1  UNL     1       8.201  63.409  37.811  1.00  0.00     0.006 SA
HETATM    5  C11 UNL     1       8.683  64.391  39.115  1.00  0.00     0.102 A
HETATM    6  N4  UNL     1       9.901  63.951  39.362  1.00  0.00    -0.338 N
ATOM      7  H4  UNL     1      10.457  64.362  40.112  1.00  0.00     0.168 HD
ENDROOT
BRANCH   1   8
HETATM    8  C9  UNL     1      11.779  62.436  38.881  1.00  0.00     0.057 C
HETATM    9  C8  UNL     1      12.807  63.296  38.246  1.00  0.00     0.032 C
HETATM   10  C7  UNL     1      14.073  63.393  39.015  1.00  0.00     0.127 C
HETATM   11  N2  UNL     1      14.370  62.240  39.816  1.00  0.00    -0.347 N
HETATM   12  C1  UNL     1      15.698  61.785  39.936  1.00  0.00     0.258 C
HETATM   13  C22 UNL     1      13.322  61.527  40.519  1.00  0.00     0.127 C
HETATM   14  O1  UNL     1      16.609  62.403  39.341  1.00  0.00    -0.267 OA
HETATM   15  C21 UNL     1      12.028  62.355  40.377  1.00  0.00     0.032 C
BRANCH  12  16
HETATM   16  C2  UNL     1      16.064  60.589  40.748  1.00  0.00     0.160 C
BRANCH  16  17
HETATM   17  N1  UNL     1      16.465  59.533  39.905  1.00  0.00    -0.381 N
HETATM   18  C3  UNL     1      17.845  59.397  39.606  1.00  0.00     0.148 C
HETATM   19  C4  UNL     1      18.074  57.901  39.337  1.00  0.00     0.187 C
HETATM   20  O2  UNL     1      17.285  57.622  38.217  1.00  0.00    -0.388 OA
HETATM   21  C5  UNL     1      15.953  57.674  38.543  1.00  0.00     0.187 C
HETATM   22  C6  UNL     1      15.571  59.127  38.872  1.00  0.00     0.148 C
ENDBRANCH  16  17
ENDBRANCH  12  16
ENDBRANCH   1   8
BRANCH   5  23
HETATM   23  C12 UNL     1       7.925  65.474  39.810  1.00  0.00     0.007 A
HETATM   24  C13 UNL     1       6.758  65.950  39.282  1.00  0.00     0.064 A
HETATM   25  S2  UNL     1       6.284  67.143  40.399  1.00  0.00    -0.105 SA
HETATM   26  C14 UNL     1       7.573  67.012  41.504  1.00  0.00    -0.013 A
HETATM   27  C20 UNL     1       8.350  66.028  40.968  1.00  0.00     0.029 A
BRANCH  26  28
HETATM   28  C15 UNL     1       7.821  67.785  42.784  1.00  0.00     0.026 C
HETATM   29  C16 UNL     1       6.723  67.486  43.747  1.00  0.00     0.010 C
HETATM   30  C17 UNL     1       7.308  66.704  44.894  1.00  0.00     0.001 C
HETATM   31  C18 UNL     1       8.783  67.017  44.866  1.00  0.00     0.001 C
HETATM   32  C19 UNL     1       9.120  67.353  43.433  1.00  0.00     0.010 C
ENDBRANCH  26  28
ENDBRANCH   5  23
TORSDOF 5
ENDMDL