MODEL 1
REMARK VINA RESULT: -7.476779362      0.000      0.000
REMARK  8 active torsions:
REMARK  status: ('A' for Active; 'I' for Inactive)
REMARK    1  A    between atoms: C2_2  and  O2_4
REMARK    2  A    between atoms: O2_4  and  C3_5
REMARK    3  A    between atoms: C3_5  and  C4_6
REMARK    4  A    between atoms: C4_6  and  O3_7
REMARK    5  A    between atoms: C4_6  and  C7_11
REMARK    6  A    between atoms: O3_7  and  C5_8
REMARK    7  A    between atoms: C9_13  and  O5_14
REMARK    8  A    between atoms: O5_14  and  C10_15
ROOT
HETATM    1  C7  UNL     1      13.989  59.947  38.834  1.00  0.00     0.036 C
HETATM    2  C8  UNL     1      13.516  59.813  40.305  1.00  0.00     0.025 C
HETATM    3  C9  UNL     1      15.014  58.825  38.738  1.00  0.00     0.147 C
HETATM    4  C12 UNL     1      14.791  57.888  37.562  1.00  0.00     0.034 C
HETATM    5  C13 UNL     1      14.450  58.546  36.297  1.00  0.00     0.011 C
HETATM    6  C14 UNL     1      13.436  59.652  36.492  1.00  0.00     0.016 C
HETATM    7  C15 UNL     1      12.268  59.464  35.498  1.00  0.00     0.010 C
HETATM    8  C16 UNL     1      11.626  60.832  35.491  1.00  0.00     0.014 C
HETATM    9  C17 UNL     1      10.924  60.964  36.824  1.00  0.00    -0.019 C
HETATM   10  C18 UNL     1      10.653  62.397  37.092  1.00  0.00     0.020 C
HETATM   11  C19 UNL     1       9.499  60.433  36.479  1.00  0.00     0.021 C
HETATM   12  C20 UNL     1       8.780  60.161  37.787  1.00  0.00     0.079 C
HETATM   13  C21 UNL     1       9.431  60.810  38.939  1.00  0.00     0.131 C
HETATM   14  O7  UNL     1       8.791  61.496  39.693  1.00  0.00    -0.298 OA
HETATM   15  C22 UNL     1      10.919  60.640  39.217  1.00  0.00     0.113 C
HETATM   16  C23 UNL     1      11.520  60.140  37.934  1.00  0.00    -0.061 C
HETATM   17  C24 UNL     1      12.887  59.659  37.899  1.00  0.00    -0.059 C
ENDROOT
BRANCH   1  18
HETATM   18  C4  UNL     1      14.717  61.232  38.763  1.00  0.00     0.171 C
BRANCH  18  19
HETATM   19  C3  UNL     1      15.451  61.603  40.055  1.00  0.00     0.212 C
BRANCH  19  20
HETATM   20  O2  UNL     1      16.647  60.889  40.234  1.00  0.00    -0.319 OA
BRANCH  20  21
HETATM   21  C2  UNL     1      17.827  61.378  39.696  1.00  0.00     0.254 C
HETATM   22  C1  UNL     1      17.904  62.759  39.140  1.00  0.00     0.126 C
HETATM   23  O1  UNL     1      18.845  60.652  39.677  1.00  0.00    -0.266 OA
ENDBRANCH  20  21
ENDBRANCH  19  20
ENDBRANCH  18  19
BRANCH  18  24
HETATM   24  O3  UNL     1      14.251  62.352  38.179  1.00  0.00    -0.313 OA
BRANCH  24  25
HETATM   25  C5  UNL     1      13.963  63.538  38.745  1.00  0.00     0.255 C
HETATM   26  C6  UNL     1      12.811  63.904  39.586  1.00  0.00     0.126 C
HETATM   27  O4  UNL     1      14.817  64.394  38.491  1.00  0.00    -0.266 OA
ENDBRANCH  24  25
ENDBRANCH  18  24
ENDBRANCH   1  18
BRANCH   3  28
HETATM   28  O5  UNL     1      14.949  57.906  39.835  1.00  0.00    -0.315 OA
BRANCH  28  29
HETATM   29  C10 UNL     1      15.969  57.127  40.285  1.00  0.00     0.255 C
HETATM   30  C11 UNL     1      17.350  57.446  39.804  1.00  0.00     0.126 C
HETATM   31  O6  UNL     1      15.775  56.186  41.064  1.00  0.00    -0.266 OA
ENDBRANCH  28  29
ENDBRANCH   3  28
TORSDOF 8
ENDMDL