MODEL 4
REMARK VINA RESULT: -5.837004907      1.679      1.941
REMARK  6 active torsions:
REMARK  status: ('A' for Active; 'I' for Inactive)
REMARK    1  A    between atoms: C2_2  and  C3_3
REMARK    2  A    between atoms: C3_3  and  C4_4
REMARK    3  A    between atoms: C4_4  and  O2_6
REMARK    4  A    between atoms: O2_6  and  C5_7
REMARK    5  A    between atoms: C6_8  and  S1_9
REMARK    6  A    between atoms: S1_9  and  S2_10
ROOT
HETATM    1  C5  UNL     1       6.128  66.044  42.087  1.00  0.00     0.162 C
HETATM    2  C6  UNL     1       7.484  65.922  41.482  1.00  0.00     0.120 C
HETATM    3  C8  UNL     1       7.390  66.347  39.996  1.00  0.00     0.178 C
HETATM    4  O3  UNL     1       6.893  65.289  39.224  1.00  0.00    -0.346 OA
HETATM    5  C9  UNL     1       6.373  64.087  39.746  1.00  0.00     0.062 C
HETATM    6  C10 UNL     1       5.564  64.021  40.822  1.00  0.00     0.057 C
HETATM    7  C11 UNL     1       5.139  62.703  41.214  1.00  0.00     0.292 C
HETATM    8  O4  UNL     1       4.397  62.606  42.195  1.00  0.00    -0.259 OA
HETATM    9  O5  UNL     1       5.554  61.575  40.506  1.00  0.00    -0.317 OA
HETATM   10  C12 UNL     1       6.757  61.610  39.733  1.00  0.00     0.185 C
HETATM   11  C13 UNL     1       6.804  62.893  38.980  1.00  0.00     0.092 C
HETATM   12  C14 UNL     1       5.050  65.180  41.538  1.00  0.00     0.019 C
HETATM   13  C15 UNL     1       4.116  64.928  42.679  1.00  0.00     0.023 C
HETATM   14  C16 UNL     1       4.129  65.836  40.506  1.00  0.00     0.017 C
HETATM   15  C17 UNL     1       3.903  67.270  40.537  1.00  0.00     0.007 C
HETATM   16  C18 UNL     1       4.457  67.998  39.297  1.00  0.00     0.014 C
HETATM   17  C19 UNL     1       4.115  67.224  38.027  1.00  0.00     0.012 C
HETATM   18  C20 UNL     1       5.869  68.394  39.401  1.00  0.00     0.223 A
HETATM   19  N1  UNL     1       6.875  68.063  38.428  1.00  0.00    -0.060 N
ATOM     20  H11 UNL     1       7.461  68.548  37.748  1.00  0.00     0.278 HD
ATOM     21  H12 UNL     1       6.931  67.596  37.524  1.00  0.00     0.278 HD
HETATM   22  C21 UNL     1       6.924  67.684  39.918  1.00  0.00     0.247 A
ENDROOT
BRANCH   1  23
HETATM   23  O2  UNL     1       6.139  65.989  43.526  1.00  0.00    -0.314 OA
BRANCH  23  24
HETATM   24  C4  UNL     1       5.792  67.038  44.341  1.00  0.00     0.259 C
HETATM   25  O1  UNL     1       5.546  66.815  45.528  1.00  0.00    -0.265 OA
BRANCH  24  26
HETATM   26  C3  UNL     1       5.712  68.415  43.819  1.00  0.00     0.111 C
BRANCH  26  27
HETATM   27  C2  UNL     1       4.298  68.933  43.829  1.00  0.00     0.005 C
HETATM   28  C1  UNL     1       4.369  70.391  44.297  1.00  0.00     0.005 C
ENDBRANCH  26  27
ENDBRANCH  24  26
ENDBRANCH  23  24
ENDBRANCH   1  23
BRANCH   2  29
HETATM   29  S1  UNL     1       8.760  66.909  42.198  1.00  0.00    -0.088 SA
BRANCH  29  30
HETATM   30  S2  UNL     1      10.609  66.882  41.217  1.00  0.00    -0.102 SA
HETATM   31  C7  UNL     1      12.024  66.955  42.339  1.00  0.00     0.102 C
ENDBRANCH  29  30
ENDBRANCH   2  29
TORSDOF 6
ENDMDL