MODEL 1
REMARK VINA RESULT: -6.674189754      0.000      0.000
REMARK  8 active torsions:
REMARK  status: ('A' for Active; 'I' for Inactive)
REMARK    1  A    between atoms: C2_2  and  C3_3
REMARK    2  A    between atoms: C6_6  and  C7_7
REMARK    3  A    between atoms: C13_15  and  O3_16
REMARK    4  A    between atoms: O3_16  and  C14_17
REMARK    5  A    between atoms: C20_25  and  O6_26
REMARK    6  A    between atoms: O6_26  and  C21_27
REMARK    7  A    between atoms: C21_27  and  C22_29
REMARK    8  A    between atoms: C22_29  and  C23_30
ROOT
HETATM    1  C3  UNL     1      16.916  61.056  39.499  1.00  0.00    -0.054 C
HETATM    2  C4  UNL     1      18.099  60.110  39.289  1.00  0.00     0.048 C
HETATM    3  C5  UNL     1      15.689  60.713  39.505  1.00  0.00     0.004 C
HETATM    4  C6  UNL     1      14.584  61.734  39.465  1.00  0.00     0.140 C
HETATM    5  O1  UNL     1      14.181  62.032  40.676  1.00  0.00    -0.327 OA
HETATM    6  C9  UNL     1      13.442  60.882  40.691  1.00  0.00     0.194 C
HETATM    7  C10 UNL     1      12.395  61.000  41.699  1.00  0.00     0.085 C
HETATM    8  O2  UNL     1      14.154  59.679  40.805  1.00  0.00    -0.334 OA
HETATM    9  C11 UNL     1      15.093  59.386  39.742  1.00  0.00     0.105 C
HETATM   10  C12 UNL     1      15.915  58.286  40.333  1.00  0.00     0.084 C
HETATM   11  C13 UNL     1      15.771  57.050  39.470  1.00  0.00     0.205 C
HETATM   12  C16 UNL     1      15.028  57.461  38.293  1.00  0.00     0.163 C
HETATM   13  O5  UNL     1      14.885  56.859  37.274  1.00  0.00    -0.295 OA
HETATM   14  C17 UNL     1      14.410  58.843  38.534  1.00  0.00     0.098 C
HETATM   15  C18 UNL     1      14.690  59.555  37.218  1.00  0.00     0.022 C
HETATM   16  C19 UNL     1      13.440  60.373  36.799  1.00  0.00     0.066 C
HETATM   17  C20 UNL     1      12.693  60.489  38.193  1.00  0.00     0.068 C
HETATM   18  C25 UNL     1      13.242  61.037  39.220  1.00  0.00     0.054 C
ENDROOT
BRANCH  17  19
HETATM   19  O6  UNL     1      11.492  59.931  37.986  1.00  0.00    -0.283 OA
BRANCH  19  20
HETATM   20  C21 UNL     1      10.258  60.534  38.174  1.00  0.00     0.263 C
HETATM   21  O7  UNL     1       9.328  59.797  38.559  1.00  0.00    -0.265 OA
BRANCH  20  22
HETATM   22  C22 UNL     1      10.142  61.970  37.910  1.00  0.00     0.111 C
BRANCH  22  23
HETATM   23  C23 UNL     1       9.744  62.759  39.138  1.00  0.00     0.005 C
HETATM   24  C24 UNL     1      10.798  63.715  39.581  1.00  0.00     0.005 C
ENDBRANCH  22  23
ENDBRANCH  20  22
ENDBRANCH  19  20
ENDBRANCH  17  19
BRANCH   4  25
HETATM   25  C7  UNL     1      14.715  62.829  38.476  1.00  0.00     0.010 C
HETATM   26  C8  UNL     1      14.280  64.042  38.760  1.00  0.00     0.010 C
ENDBRANCH   4  25
BRANCH   1  27
HETATM   27  C2  UNL     1      17.383  62.449  39.497  1.00  0.00    -0.003 C
HETATM   28  C1  UNL     1      18.397  62.844  38.777  1.00  0.00     0.012 C
ENDBRANCH   1  27
BRANCH  11  29
HETATM   29  O3  UNL     1      17.017  56.503  39.074  1.00  0.00    -0.308 OA
BRANCH  29  30
HETATM   30  C14 UNL     1      17.586  55.415  39.736  1.00  0.00     0.255 C
HETATM   31  C15 UNL     1      17.064  54.034  39.553  1.00  0.00     0.126 C
HETATM   32  O4  UNL     1      18.563  55.580  40.509  1.00  0.00    -0.266 OA
ENDBRANCH  29  30
ENDBRANCH  11  29
TORSDOF 8
ENDMDL