MODEL 4
REMARK VINA RESULT: -6.776760681      2.247      5.640
REMARK  7 active torsions:
REMARK  status: ('A' for Active; 'I' for Inactive)
REMARK    1  A    between atoms: C3_3  and  O1_4
REMARK    2  A    between atoms: O1_4  and  C4_5
REMARK    3  A    between atoms: C11_13  and  O3_14
REMARK    4  A    between atoms: O3_14  and  C12_15
REMARK    5  A    between atoms: C16_21  and  O6_22
REMARK    6  A    between atoms: C18_24  and  C19_25
REMARK    7  A    between atoms: C19_25  and  O7_26
ROOT
HETATM    1  C1  UNL     1      15.694  61.288  40.672  1.00  0.00     0.017 C
HETATM    2  C2  UNL     1      15.071  60.756  39.667  1.00  0.00    -0.055 C
HETATM    3  C3  UNL     1      15.313  59.353  39.177  1.00  0.00     0.160 C
HETATM    4  C6  UNL     1      13.980  58.693  39.253  1.00  0.00     0.037 C
HETATM    5  C7  UNL     1      12.974  59.350  38.322  1.00  0.00     0.009 C
HETATM    6  C8  UNL     1      13.439  60.639  37.786  1.00  0.00     0.005 C
HETATM    7  C9  UNL     1      14.049  61.497  38.900  1.00  0.00     0.024 C
HETATM    8  C10 UNL     1      12.798  61.796  39.634  1.00  0.00     0.049 C
HETATM    9  C11 UNL     1      11.949  62.447  38.493  1.00  0.00     0.081 C
HETATM   10  C14 UNL     1      10.548  62.376  38.979  1.00  0.00     0.072 C
HETATM   11  C15 UNL     1       9.522  62.089  38.002  1.00  0.00     0.143 C
HETATM   12  O5  UNL     1       8.178  62.187  38.365  1.00  0.00    -0.354 OA
HETATM   13  C16 UNL     1       7.963  61.239  37.329  1.00  0.00     0.272 C
HETATM   14  C18 UNL     1       9.237  60.606  37.863  1.00  0.00     0.057 C
HETATM   15  C21 UNL     1      10.244  60.140  36.870  1.00  0.00     0.020 C
HETATM   16  C22 UNL     1      11.322  61.046  36.457  1.00  0.00     0.014 C
HETATM   17  C23 UNL     1      12.334  61.619  37.349  1.00  0.00    -0.008 C
HETATM   18  C24 UNL     1      13.144  62.508  36.388  1.00  0.00     0.019 C
ENDROOT
BRANCH   3  19
HETATM   19  O1  UNL     1      16.364  58.744  39.788  1.00  0.00    -0.312 OA
BRANCH  19  20
HETATM   20  C4  UNL     1      17.638  58.563  39.362  1.00  0.00     0.255 C
HETATM   21  C5  UNL     1      17.989  57.370  38.560  1.00  0.00     0.126 C
HETATM   22  O2  UNL     1      18.464  59.442  39.684  1.00  0.00    -0.266 OA
ENDBRANCH  19  20
ENDBRANCH   3  19
BRANCH   9  23
HETATM   23  O3  UNL     1      12.452  63.748  38.586  1.00  0.00    -0.309 OA
BRANCH  23  24
HETATM   24  C12 UNL     1      12.788  64.506  39.642  1.00  0.00     0.255 C
HETATM   25  C13 UNL     1      14.242  64.692  39.960  1.00  0.00     0.126 C
HETATM   26  O4  UNL     1      11.888  65.013  40.300  1.00  0.00    -0.266 OA
ENDBRANCH  23  24
ENDBRANCH   9  23
BRANCH  14  27
HETATM   27  C19 UNL     1       8.935  59.851  39.082  1.00  0.00     0.184 C
BRANCH  27  28
HETATM   28  O7  UNL     1       8.268  58.714  38.963  1.00  0.00    -0.395 OA
HETATM   29  C20 UNL     1       7.188  58.248  39.519  1.00  0.00     0.201 C
ENDBRANCH  27  28
ENDBRANCH  14  27
BRANCH  13  30
HETATM   30  O6  UNL     1       8.026  61.713  36.050  1.00  0.00    -0.365 OA
HETATM   31  C17 UNL     1       6.933  61.297  35.295  1.00  0.00     0.204 C
ENDBRANCH  13  30
TORSDOF 7
ENDMDL