MODEL 1
REMARK VINA RESULT: -8.399536479      0.000      0.000
REMARK  8 active torsions:
REMARK  status: ('A' for Active; 'I' for Inactive)
REMARK    1  A    between atoms: C2_2  and  C4_4
REMARK    2  A    between atoms: C4_4  and  C5_5
REMARK    3  A    between atoms: C4_4  and  C22_27
REMARK    4  A    between atoms: C6_6  and  C7_7
REMARK    5  A    between atoms: C12_12  and  O1_13
REMARK    6  A    between atoms: O1_13  and  C13_14
REMARK    7  A    between atoms: C22_27  and  C23_28
REMARK    8  A    between atoms: C23_28  and  O7_30
ROOT
HETATM    1  C7  UNL     1      12.324  64.047  39.300  1.00  0.00     0.054 C
HETATM    2  C8  UNL     1      13.688  63.341  39.295  1.00  0.00    -0.030 C
HETATM    3  C9  UNL     1      14.041  63.012  37.842  1.00  0.00     0.016 C
HETATM    4  C10 UNL     1      14.760  64.270  39.798  1.00  0.00     0.013 C
HETATM    5  C11 UNL     1      15.879  63.655  40.567  1.00  0.00     0.033 C
HETATM    6  C12 UNL     1      16.099  62.189  40.360  1.00  0.00     0.132 C
HETATM    7  C15 UNL     1      14.893  61.394  40.114  1.00  0.00     0.038 C
HETATM    8  C16 UNL     1      13.587  62.114  40.111  1.00  0.00    -0.001 C
HETATM    9  C17 UNL     1      12.564  61.115  39.625  1.00  0.00     0.041 C
HETATM   10  C18 UNL     1      11.272  61.708  39.262  1.00  0.00     0.170 C
HETATM   11  O3  UNL     1      10.893  61.129  37.987  1.00  0.00    -0.290 OA
HETATM   12  C19 UNL     1      10.150  62.095  37.320  1.00  0.00     0.407 C
HETATM   13  O4  UNL     1       9.172  61.888  36.574  1.00  0.00    -0.229 OA
HETATM   14  O5  UNL     1      10.735  63.276  37.663  1.00  0.00    -0.284 OA
HETATM   15  C20 UNL     1      11.208  63.132  39.014  1.00  0.00     0.103 C
HETATM   16  C21 UNL     1       9.968  63.662  39.813  1.00  0.00     0.050 C
ENDROOT
BRANCH   1  17
HETATM   17  C6  UNL     1      12.139  64.690  40.607  1.00  0.00    -0.018 C
HETATM   18  C5  UNL     1      11.835  66.048  40.674  1.00  0.00     0.004 C
BRANCH  18  19
HETATM   19  C4  UNL     1      11.664  66.682  41.847  1.00  0.00    -0.044 C
BRANCH  19  20
HETATM   20  C2  UNL     1      10.132  67.393  41.284  1.00  0.00    -0.065 C
HETATM   21  C1  UNL     1       9.099  66.782  41.550  1.00  0.00     0.019 C
HETATM   22  C3  UNL     1      10.255  68.653  40.608  1.00  0.00     0.048 C
ENDBRANCH  19  20
BRANCH  19  23
HETATM   23  C22 UNL     1      11.493  67.298  42.976  1.00  0.00     0.150 C
BRANCH  23  24
HETATM   24  C23 UNL     1      12.780  68.086  43.352  1.00  0.00     0.262 C
HETATM   25  O6  UNL     1      12.885  69.286  43.116  1.00  0.00    -0.265 OA
BRANCH  24  26
HETATM   26  O7  UNL     1      13.801  67.425  43.963  1.00  0.00    -0.326 OA
HETATM   27  C24 UNL     1      13.618  67.043  45.337  1.00  0.00     0.213 C
ENDBRANCH  24  26
ENDBRANCH  23  24
ENDBRANCH  19  23
ENDBRANCH  18  19
ENDBRANCH   1  17
BRANCH   6  28
HETATM   28  O1  UNL     1      17.025  61.983  39.304  1.00  0.00    -0.316 OA
BRANCH  28  29
HETATM   29  C13 UNL     1      18.172  61.257  39.431  1.00  0.00     0.255 C
HETATM   30  C14 UNL     1      18.041  59.811  39.748  1.00  0.00     0.126 C
HETATM   31  O2  UNL     1      19.287  61.771  39.290  1.00  0.00    -0.266 OA
ENDBRANCH  28  29
ENDBRANCH   6  28
TORSDOF 8
ENDMDL