MODEL 1
REMARK VINA RESULT: -10.060951265      0.000      0.000
REMARK  4 active torsions:
REMARK  status: ('A' for Active; 'I' for Inactive)
REMARK    1  A    between atoms: O1_2  and  C2_3
REMARK    2  A    between atoms: C5_6  and  C6_7
REMARK    3  A    between atoms: C6_7  and  C7_8
REMARK    4  A    between atoms: C7_8  and  N1_9
ROOT
HETATM    1  C2  UNL     1      11.688  67.705  42.445  1.00  0.00     0.101 A
HETATM    2  C3  UNL     1      10.831  67.254  41.560  1.00  0.00     0.040 A
HETATM    3  C4  UNL     1      10.882  66.159  40.736  1.00  0.00     0.010 A
HETATM    4  C5  UNL     1      12.089  65.392  40.871  1.00  0.00    -0.054 A
HETATM    5  C23 UNL     1      13.003  65.792  41.752  1.00  0.00     0.046 A
HETATM    6  C24 UNL     1      12.893  66.942  42.588  1.00  0.00     0.102 A
HETATM    7  O6  UNL     1      13.778  67.323  43.427  1.00  0.00    -0.353 OA
HETATM    8  C25 UNL     1      14.664  67.698  44.262  1.00  0.00     0.210 C
ENDROOT
BRANCH   1   9
HETATM    9  O1  UNL     1      11.503  68.842  43.227  1.00  0.00    -0.353 OA
HETATM   10  C1  UNL     1      11.907  70.114  42.716  1.00  0.00     0.210 C
ENDBRANCH   1   9
BRANCH   4  11
HETATM   11  C6  UNL     1      12.251  64.278  39.877  1.00  0.00     0.058 C
BRANCH  11  12
HETATM   12  C7  UNL     1      13.765  64.037  39.875  1.00  0.00     0.121 C
BRANCH  12  13
HETATM   13  N1  UNL     1      14.105  62.703  39.733  1.00  0.00    -0.412 N
HETATM   14  C8  UNL     1      15.501  62.339  39.840  1.00  0.00     0.122 C
HETATM   15  C9  UNL     1      15.473  60.964  40.502  1.00  0.00     0.094 C
HETATM   16  C10 UNL     1      14.875  60.002  39.540  1.00  0.00     0.232 C
HETATM   17  C11 UNL     1      13.535  60.446  38.994  1.00  0.00     0.094 C
HETATM   18  O2  UNL     1      15.739  59.801  38.471  1.00  0.00    -0.194 OA
HETATM   19  O5  UNL     1      14.655  58.790  40.194  1.00  0.00    -0.194 OA
HETATM   20  C12 UNL     1      13.421  61.909  38.755  1.00  0.00     0.122 C
HETATM   21  O3  UNL     1      16.826  59.229  38.885  1.00  0.00    -0.194 OA
HETATM   22  C13 UNL     1      16.524  57.948  39.369  1.00  0.00     0.237 C
HETATM   23  O4  UNL     1      15.701  58.096  40.463  1.00  0.00    -0.194 OA
HETATM   24  C14 UNL     1      15.929  57.154  38.258  1.00  0.00     0.055 C
HETATM   25  C21 UNL     1      17.810  57.315  39.854  1.00  0.00     0.055 C
HETATM   26  C15 UNL     1      15.703  55.725  38.710  1.00  0.00     0.015 C
HETATM   27  C19 UNL     1      16.919  57.197  37.082  1.00  0.00     0.015 C
HETATM   28  C16 UNL     1      17.019  55.139  39.119  1.00  0.00    -0.013 C
HETATM   29  C17 UNL     1      18.002  55.216  37.994  1.00  0.00     0.009 C
HETATM   30  C22 UNL     1      17.547  55.894  40.301  1.00  0.00     0.015 C
HETATM   31  C18 UNL     1      18.236  56.634  37.550  1.00  0.00    -0.013 C
HETATM   32  C20 UNL     1      18.803  57.409  38.740  1.00  0.00     0.015 C
ENDBRANCH  12  13
ENDBRANCH  11  12
ENDBRANCH   4  11
TORSDOF 4
ENDMDL