MODEL 4
REMARK VINA RESULT: -9.374097625      4.444      7.715
REMARK  5 active torsions:
REMARK  status: ('A' for Active; 'I' for Inactive)
REMARK    1  A    between atoms: C2_2  and  C3_3
REMARK    2  A    between atoms: C3_3  and  C4_4
REMARK    3  A    between atoms: N2_8  and  C7_9
REMARK       I    between atoms: N3_12  and  C10_13
REMARK    4  A    between atoms: C10_13  and  C11_15
REMARK    5  A    between atoms: C13_17  and  C14_18
ROOT
HETATM    1  C4  UNL     1      13.569  67.972  44.016  1.00  0.00     0.163 C
HETATM    2  C5  UNL     1      13.687  67.018  45.120  1.00  0.00     0.062 C
HETATM    3  N1  UNL     1      13.764  66.252  46.007  1.00  0.00    -0.197 NA
ENDROOT
BRANCH   1   4
HETATM    4  C3  UNL     1      12.117  68.523  43.955  1.00  0.00     0.099 C
HETATM    5  C6  UNL     1      11.288  67.418  43.426  1.00  0.00     0.311 C
HETATM    6  N2  UNL     1      10.381  67.828  42.377  1.00  0.00     0.097 N
HETATM    7  C22 UNL     1      11.136  68.224  41.202  1.00  0.00     0.275 C
HETATM    8  C23 UNL     1      11.113  69.738  41.160  1.00  0.00     0.056 C
HETATM    9  C24 UNL     1      11.099  70.179  42.635  1.00  0.00     0.170 C
HETATM   10  O4  UNL     1      12.212  69.660  43.217  1.00  0.00    -0.377 OA
BRANCH   4  11
HETATM   11  C2  UNL     1      11.811  68.877  45.392  1.00  0.00     0.036 C
HETATM   12  C1  UNL     1      10.399  68.666  45.811  1.00  0.00     0.008 C
ENDBRANCH   4  11
BRANCH   6  13
HETATM   13  C7  UNL     1       9.497  66.758  41.988  1.00  0.00     0.242 C
HETATM   14  C8  UNL     1       8.171  67.276  41.467  1.00  0.00     0.057 C
HETATM   15  C9  UNL     1       7.648  65.981  40.817  1.00  0.00     0.128 C
HETATM   16  N3  UNL     1       8.832  65.345  40.286  1.00  0.00    -0.345 N
HETATM   17  C10 UNL     1       8.830  64.237  39.401  1.00  0.00     0.272 C
HETATM   18  C21 UNL     1      10.007  66.001  40.785  1.00  0.00     0.161 C
HETATM   19  O1  UNL     1       7.688  63.766  39.061  1.00  0.00    -0.266 OA
BRANCH  17  20
HETATM   20  C11 UNL     1       9.995  63.598  38.853  1.00  0.00     0.125 A
HETATM   21  C12 UNL     1      10.973  62.956  39.584  1.00  0.00     0.074 A
HETATM   22  C13 UNL     1      11.937  62.460  38.734  1.00  0.00     0.107 A
HETATM   23  O3  UNL     1      11.532  62.806  37.520  1.00  0.00    -0.239 OA
HETATM   24  N4  UNL     1      10.415  63.461  37.573  1.00  0.00    -0.256 N
ATOM     25  H4  UNL     1       9.919  63.825  36.760  1.00  0.00     0.195 HD
BRANCH  22  26
HETATM   26  C14 UNL     1      13.191  61.690  39.059  1.00  0.00     0.180 C
HETATM   27  C15 UNL     1      14.277  62.714  39.258  1.00  0.00     0.039 C
HETATM   28  C16 UNL     1      15.658  62.106  39.331  1.00  0.00     0.003 C
HETATM   29  C17 UNL     1      15.893  61.421  40.657  1.00  0.00     0.000 C
HETATM   30  C18 UNL     1      15.957  59.944  40.397  1.00  0.00     0.002 C
HETATM   31  C19 UNL     1      14.700  59.394  39.774  1.00  0.00     0.026 C
HETATM   32  C20 UNL     1      13.452  59.814  40.447  1.00  0.00     0.168 C
HETATM   33  O2  UNL     1      12.951  61.024  40.203  1.00  0.00    -0.379 OA
ENDBRANCH  22  26
ENDBRANCH  17  20
ENDBRANCH   6  13
ENDBRANCH   1   4
TORSDOF 5
ENDMDL