MODEL 3
REMARK VINA RESULT: -8.128834196      0.980      1.153
REMARK  6 active torsions:
REMARK  status: ('A' for Active; 'I' for Inactive)
REMARK    1  A    between atoms: C5_5  and  C6_6
REMARK    2  A    between atoms: C7_8  and  C8_9
REMARK    3  A    between atoms: C8_9  and  O3_11
REMARK    4  A    between atoms: O3_11  and  C9_12
REMARK    5  A    between atoms: C13_16  and  C15_19
REMARK    6  A    between atoms: C16_20  and  C17_21
ROOT
HETATM    1  C1  UNL     1      16.350  58.976  40.371  1.00  0.00     0.014 C
HETATM    2  C2  UNL     1      16.093  59.992  39.537  1.00  0.00    -0.089 C
HETATM    3  C3  UNL     1      16.952  61.124  39.825  1.00  0.00     0.034 C
HETATM    4  C4  UNL     1      16.558  62.455  39.256  1.00  0.00     0.017 C
HETATM    5  C5  UNL     1      15.298  63.042  39.784  1.00  0.00     0.069 C
HETATM    6  C7  UNL     1      14.030  62.597  39.141  1.00  0.00     0.091 C
HETATM    7  C11 UNL     1      14.095  62.481  37.645  1.00  0.00     0.026 C
HETATM    8  C12 UNL     1      12.971  61.668  37.070  1.00  0.00     0.030 C
HETATM    9  C13 UNL     1      12.803  60.320  37.681  1.00  0.00     0.074 C
HETATM   10  C14 UNL     1      13.198  59.232  36.753  1.00  0.00     0.073 C
HETATM   11  N1  UNL     1      13.489  58.386  36.019  1.00  0.00    -0.196 NA
HETATM   12  C21 UNL     1      13.653  60.130  38.925  1.00  0.00     0.054 C
HETATM   13  C22 UNL     1      15.020  59.602  38.595  1.00  0.00     0.043 C
HETATM   14  C23 UNL     1      13.601  61.316  39.835  1.00  0.00     0.105 A
HETATM   15  C24 UNL     1      12.784  61.252  41.009  1.00  0.00     0.209 A
HETATM   16  O4  UNL     1      14.200  61.026  41.090  1.00  0.00    -0.373 OA
ENDROOT
BRANCH   9  17
HETATM   17  C15 UNL     1      11.382  60.084  38.030  1.00  0.00     0.001 C
HETATM   18  C16 UNL     1      10.495  61.049  38.025  1.00  0.00     0.035 C
BRANCH  18  19
HETATM   19  C17 UNL     1       9.103  60.698  38.391  1.00  0.00     0.073 A
HETATM   20  N2  UNL     1       8.637  59.539  38.824  1.00  0.00    -0.354 N
HETATM   21  C18 UNL     1       7.371  59.408  39.102  1.00  0.00     0.012 A
ATOM     22  H2  UNL     1       9.269  58.747  38.942  1.00  0.00     0.166 HD
HETATM   23  C19 UNL     1       6.764  58.106  39.601  1.00  0.00     0.068 C
HETATM   24  C20 UNL     1       6.572  60.508  38.924  1.00  0.00     0.076 A
HETATM   25  S1  UNL     1       7.695  61.668  38.367  1.00  0.00    -0.082 SA
ENDBRANCH  18  19
ENDBRANCH   9  17
BRANCH   6  26
HETATM   26  C8  UNL     1      12.975  63.607  39.378  1.00  0.00     0.271 C
HETATM   27  O2  UNL     1      12.190  63.957  38.474  1.00  0.00    -0.264 OA
BRANCH  26  28
HETATM   28  O3  UNL     1      12.772  64.240  40.598  1.00  0.00    -0.321 OA
BRANCH  28  29
HETATM   29  C9  UNL     1      12.023  65.437  40.709  1.00  0.00     0.174 C
HETATM   30  C10 UNL     1      12.527  66.298  41.840  1.00  0.00     0.034 C
ENDBRANCH  28  29
ENDBRANCH  26  28
ENDBRANCH   6  26
BRANCH   5  31
HETATM   31  C6  UNL     1      15.472  64.529  39.828  1.00  0.00     0.237 C
HETATM   32  O1  UNL     1      15.893  65.138  40.795  1.00  0.00    -0.306 OA
ENDBRANCH   5  31
TORSDOF 6
ENDMDL