MODEL 3
REMARK VINA RESULT: -8.380741202      3.476      5.179
REMARK  7 active torsions:
REMARK  status: ('A' for Active; 'I' for Inactive)
REMARK    1  A    between atoms: C2_2  and  C3_3
REMARK    2  A    between atoms: C15_19  and  O5_20
REMARK    3  A    between atoms: O5_20  and  C16_21
REMARK    4  A    between atoms: C16_21  and  C17_23
REMARK    5  A    between atoms: C18_24  and  C19_25
REMARK    6  A    between atoms: C20_26  and  C21_27
REMARK    7  A    between atoms: C21_27  and  C23_29
ROOT
HETATM    1  C23 UNL     1      15.919  59.969  39.902  1.00  0.00    -0.099 C
HETATM    2  C24 UNL     1      16.821  60.771  39.779  1.00  0.00    -0.110 C
HETATM    3  C25 UNL     1      17.922  61.728  39.618  1.00  0.00     0.112 C
ENDROOT
BRANCH   1   4
HETATM    4  C21 UNL     1      14.845  59.001  40.030  1.00  0.00     0.083 C
HETATM    5  C22 UNL     1      15.426  57.614  39.892  1.00  0.00     0.027 C
BRANCH   4   6
HETATM    6  C20 UNL     1      13.798  59.173  38.995  1.00  0.00    -0.010 C
HETATM    7  C19 UNL     1      14.017  59.011  37.709  1.00  0.00    -0.003 C
BRANCH   7   8
HETATM    8  C18 UNL     1      12.958  59.192  36.735  1.00  0.00     0.006 C
HETATM    9  C17 UNL     1      12.114  60.202  36.765  1.00  0.00     0.082 C
BRANCH   9  10
HETATM   10  C16 UNL     1      11.090  60.322  35.774  1.00  0.00     0.283 C
HETATM   11  O6  UNL     1      11.196  59.728  34.671  1.00  0.00    -0.260 OA
BRANCH  10  12
HETATM   12  O5  UNL     1       9.926  61.080  35.938  1.00  0.00    -0.311 OA
BRANCH  12  13
HETATM   13  C15 UNL     1       9.162  61.032  37.156  1.00  0.00     0.151 C
HETATM   14  C6  UNL     1       8.969  62.442  37.616  1.00  0.00     0.031 C
HETATM   15  C5  UNL     1       8.076  63.250  36.683  1.00  0.00     0.186 C
HETATM   16  C7  UNL     1      10.344  63.120  37.548  1.00  0.00     0.023 C
HETATM   17  C8  UNL     1       8.415  62.586  38.987  1.00  0.00     0.140 C
HETATM   18  O1  UNL     1       8.083  64.561  37.215  1.00  0.00    -0.351 OA
HETATM   19  C3  UNL     1       7.296  64.525  38.383  1.00  0.00     0.179 C
HETATM   20  C4  UNL     1       7.797  65.547  39.402  1.00  0.00     0.084 C
HETATM   21  O7  UNL     1       7.196  63.276  38.931  1.00  0.00    -0.346 OA
HETATM   22  C9  UNL     1       8.132  61.285  39.683  1.00  0.00     0.068 C
HETATM   23  C10 UNL     1       6.928  60.566  39.146  1.00  0.00     0.166 C
HETATM   24  O2  UNL     1       6.560  59.601  40.147  1.00  0.00    -0.290 OA
HETATM   25  C12 UNL     1       7.216  59.678  37.987  1.00  0.00     0.170 C
HETATM   26  C11 UNL     1       7.390  58.508  39.874  1.00  0.00     0.407 C
HETATM   27  O3  UNL     1       7.660  57.535  40.640  1.00  0.00    -0.229 OA
HETATM   28  O4  UNL     1       7.919  58.611  38.591  1.00  0.00    -0.290 OA
HETATM   29  C13 UNL     1       7.901  60.300  36.838  1.00  0.00     0.044 C
HETATM   30  C14 UNL     1       8.271  59.177  35.859  1.00  0.00     0.015 C
BRANCH  19  31
HETATM   31  C2  UNL     1       5.915  64.967  38.005  1.00  0.00     0.030 C
HETATM   32  C1  UNL     1       4.844  64.251  38.224  1.00  0.00     0.012 C
ENDBRANCH  19  31
ENDBRANCH  12  13
ENDBRANCH  10  12
ENDBRANCH   9  10
ENDBRANCH   7   8
ENDBRANCH   4   6
ENDBRANCH   1   4
TORSDOF 7
ENDMDL