MODEL 5
REMARK VINA RESULT: 0.151475854      2.477      3.919
REMARK  10 active torsions:
REMARK  status: ('A' for Active; 'I' for Inactive)
REMARK    1  A    between atoms: N1_1  and  C1_4
REMARK    2  A    between atoms: C4_12  and  C5_13
REMARK    3  A    between atoms: C5_13  and  N4_14
REMARK    4  A    between atoms: C5_13  and  N5_18
REMARK    5  A    between atoms: N6_22  and  C6_23
REMARK    6  A    between atoms: C7_24  and  N7_25
REMARK    7  A    between atoms: C8_29  and  O2_30
REMARK    8  A    between atoms: C9_32  and  O3_33
REMARK    9  A    between atoms: C10_35  and  N8_36
REMARK   10  A    between atoms: C11_39  and  N9_40
ROOT
HETATM    1  C1  UNL     1      20.507  49.282  12.154  1.00  0.00     0.680 A
HETATM    2  N2  UNL     1      19.757  48.656  13.095  1.00  0.00    -0.154 N
ATOM      3  H2  UNL     1      20.208  48.333  13.952  1.00  0.00     0.187 HD
HETATM    4  C2  UNL     1      18.445  48.448  12.938  1.00  0.00     0.290 A
HETATM    5  O1  UNL     1      17.796  47.866  13.836  1.00  0.00    -0.265 OA
HETATM    6  C3  UNL     1      17.868  48.897  11.771  1.00  0.00     0.148 A
HETATM    7  N3  UNL     1      16.651  48.877  11.274  1.00  0.00    -0.335 N
ATOM      8  H3  UNL     1      15.838  48.472  11.737  1.00  0.00     0.167 HD
HETATM    9  C4  UNL     1      16.635  49.480  10.041  1.00  0.00     0.149 A
HETATM   10  N6  UNL     1      17.860  49.890   9.747  1.00  0.00    -0.284 N
HETATM   11  C12 UNL     1      18.643  49.532  10.824  1.00  0.00     0.161 A
HETATM   12  N10 UNL     1      19.968  49.721  11.023  1.00  0.00    -0.174 N
ATOM     13  H10 UNL     1      20.539  50.190  10.320  1.00  0.00     0.186 HD
ENDROOT
BRANCH  10  14
HETATM   14  C6  UNL     1      18.284  50.563   8.557  1.00  0.00     0.063 C
HETATM   15  C7  UNL     1      18.430  49.671   7.352  1.00  0.00     0.262 C
HETATM   16  C8  UNL     1      19.320  50.439   6.363  1.00  0.00     0.185 C
HETATM   17  C9  UNL     1      18.730  51.742   5.968  1.00  0.00     0.180 C
HETATM   18  C10 UNL     1      17.681  52.300   6.861  1.00  0.00     0.223 C
HETATM   19  C11 UNL     1      17.763  51.923   8.305  1.00  0.00     0.263 C
BRANCH  15  20
HETATM   20  N7  UNL     1      17.286  49.266   6.662  1.00  0.00    -0.067 N
ATOM     21  H73 UNL     1      16.711  50.087   6.470  1.00  0.00     0.275 HD
ATOM     22  H72 UNL     1      17.554  48.985   5.719  1.00  0.00     0.275 HD
ATOM     23  H71 UNL     1      16.694  48.539   7.065  1.00  0.00     0.275 HD
ENDBRANCH  15  20
BRANCH  16  24
HETATM   24  O2  UNL     1      20.546  50.619   6.998  1.00  0.00    -0.390 OA
ATOM     25  H2  UNL     1      20.696  51.556   7.029  1.00  0.00     0.210 HD
ENDBRANCH  16  24
BRANCH  17  26
HETATM   26  O3  UNL     1      19.784  52.637   5.767  1.00  0.00    -0.391 OA
ATOM     27  H3  UNL     1      19.404  53.490   5.586  1.00  0.00     0.210 HD
ENDBRANCH  17  26
BRANCH  18  28
HETATM   28  N8  UNL     1      17.706  53.736   6.752  1.00  0.00    -0.145 N
HETATM   29  O4  UNL     1      18.471  54.295   5.957  1.00  0.00    -0.536 OA
HETATM   30  O5  UNL     1      16.889  54.519   7.519  1.00  0.00    -0.536 OA
ENDBRANCH  18  28
BRANCH  19  31
HETATM   31  N9  UNL     1      18.644  52.899   8.983  1.00  0.00    -0.068 N
ATOM     32  H93 UNL     1      19.542  52.495   9.249  1.00  0.00     0.275 HD
ATOM     33  H92 UNL     1      18.994  53.617   8.349  1.00  0.00     0.275 HD
ATOM     34  H91 UNL     1      18.141  53.292   9.778  1.00  0.00     0.275 HD
ENDBRANCH  19  31
ENDBRANCH  10  14
BRANCH   9  35
HETATM   35  C5  UNL     1      15.384  49.563   9.305  1.00  0.00     0.445 C
BRANCH  35  36
HETATM   36  N4  UNL     1      15.420  50.595   8.255  1.00  0.00    -0.043 N
ATOM     37  H43 UNL     1      15.766  50.213   7.375  1.00  0.00     0.277 HD
ATOM     38  H42 UNL     1      14.478  50.853   7.961  1.00  0.00     0.277 HD
ATOM     39  H41 UNL     1      15.956  51.415   8.537  1.00  0.00     0.277 HD
ENDBRANCH  35  36
BRANCH  35  40
HETATM   40  N5  UNL     1      15.301  48.320   8.496  1.00  0.00    -0.043 N
ATOM     41  H53 UNL     1      15.262  47.470   9.059  1.00  0.00     0.277 HD
ATOM     42  H52 UNL     1      14.404  48.199   8.026  1.00  0.00     0.277 HD
ATOM     43  H51 UNL     1      16.095  48.348   7.856  1.00  0.00     0.277 HD
ENDBRANCH  35  40
ENDBRANCH   9  35
BRANCH   1  44
HETATM   44  N1  UNL     1      21.786  49.464  12.346  1.00  0.00    -0.234 N
ATOM     45  H12 UNL     1      22.352  49.798  11.566  1.00  0.00     0.174 HD
ATOM     46  H11 UNL     1      22.201  49.273  13.258  1.00  0.00     0.174 HD
ENDBRANCH   1  44
TORSDOF 10
ENDMDL