MODEL 1
REMARK VINA RESULT: -5.755259069      0.000      0.000
REMARK  8 active torsions:
REMARK  status: ('A' for Active; 'I' for Inactive)
REMARK    1  A    between atoms: N1_1  and  C1_4
REMARK    2  A    between atoms: C5_15  and  N5_16
REMARK    3  A    between atoms: N6_19  and  C6_20
REMARK    4  A    between atoms: N7_22  and  N8_23
REMARK    5  A    between atoms: C9_25  and  N9_26
REMARK    6  A    between atoms: C10_30  and  O2_31
REMARK    7  A    between atoms: C11_33  and  O3_34
REMARK    8  A    between atoms: C12_36  and  N10_37
ROOT
HETATM    1  C6  UNL     1      17.082  49.484  10.885  1.00  0.00     0.262 C
HETATM    2  C7  UNL     1      17.956  50.298   9.958  1.00  0.00     0.165 C
HETATM    3  N7  UNL     1      16.839  50.968   9.256  1.00  0.00    -0.220 NA
HETATM    4  C13 UNL     1      16.018  49.863   8.948  1.00  0.00     0.279 C
HETATM    5  O4  UNL     1      16.155  48.949  10.000  1.00  0.00    -0.349 OA
ENDROOT
BRANCH   1   6
HETATM    6  N6  UNL     1      17.762  48.549  11.705  1.00  0.00    -0.146 N
HETATM    7  C3  UNL     1      18.649  48.962  12.656  1.00  0.00     0.167 A
HETATM    8  C2  UNL     1      19.115  50.183  13.081  1.00  0.00     0.291 A
HETATM    9  C4  UNL     1      19.150  47.847  13.289  1.00  0.00     0.169 A
HETATM   10  N2  UNL     1      20.021  50.340  14.069  1.00  0.00    -0.154 N
HETATM   11  O1  UNL     1      18.668  51.225  12.511  1.00  0.00    -0.265 OA
HETATM   12  C1  UNL     1      20.485  49.233  14.662  1.00  0.00     0.680 A
ATOM     13  H2  UNL     1      20.340  51.266  14.353  1.00  0.00     0.187 HD
HETATM   14  N3  UNL     1      20.064  48.013  14.286  1.00  0.00    -0.174 N
ATOM     15  H3  UNL     1      20.438  47.191  14.760  1.00  0.00     0.186 HD
HETATM   16  N4  UNL     1      18.581  46.764  12.739  1.00  0.00    -0.174 N
HETATM   17  C5  UNL     1      17.750  47.224  11.787  1.00  0.00     0.682 A
ATOM     18  H4  UNL     1      18.745  45.790  12.991  1.00  0.00     0.186 HD
BRANCH  12  19
HETATM   19  N1  UNL     1      21.358  49.392  15.614  1.00  0.00    -0.234 N
ATOM     20  H12 UNL     1      21.212  50.061  16.370  1.00  0.00     0.174 HD
ATOM     21  H11 UNL     1      22.200  48.815  15.574  1.00  0.00     0.174 HD
ENDBRANCH  12  19
BRANCH  17  22
HETATM   22  N5  UNL     1      17.044  46.453  11.058  1.00  0.00    -0.234 N
ATOM     23  H52 UNL     1      16.537  45.634  11.393  1.00  0.00     0.174 HD
ATOM     24  H51 UNL     1      16.924  46.599  10.056  1.00  0.00     0.174 HD
ENDBRANCH  17  22
ENDBRANCH   1   6
BRANCH   3  25
HETATM   25  N8  UNL     1      17.224  51.805   8.277  1.00  0.00    -0.213 NA
HETATM   26  C8  UNL     1      18.069  52.902   8.618  1.00  0.00     0.146 C
HETATM   27  C9  UNL     1      18.091  53.833   7.397  1.00  0.00     0.229 C
HETATM   28  C10 UNL     1      18.622  53.170   6.181  1.00  0.00     0.181 C
HETATM   29  C11 UNL     1      18.156  51.753   5.998  1.00  0.00     0.195 C
HETATM   30  C12 UNL     1      17.955  51.012   7.274  1.00  0.00     0.303 C
BRANCH  27  31
HETATM   31  N9  UNL     1      16.730  54.277   7.178  1.00  0.00    -0.071 N
ATOM     32  H93 UNL     1      16.391  54.082   6.236  1.00  0.00     0.274 HD
ATOM     33  H92 UNL     1      16.041  53.720   7.683  1.00  0.00     0.274 HD
ATOM     34  H91 UNL     1      16.698  55.268   7.419  1.00  0.00     0.274 HD
ENDBRANCH  27  31
BRANCH  28  35
HETATM   35  O2  UNL     1      18.154  53.894   5.061  1.00  0.00    -0.391 OA
ATOM     36  H2  UNL     1      18.875  53.969   4.446  1.00  0.00     0.210 HD
ENDBRANCH  28  35
BRANCH  29  37
HETATM   37  O3  UNL     1      19.132  51.085   5.258  1.00  0.00    -0.390 OA
ATOM     38  H3  UNL     1      19.180  51.506   4.407  1.00  0.00     0.210 HD
ENDBRANCH  29  37
BRANCH  30  39
HETATM   39  N10 UNL     1      17.238  49.782   6.982  1.00  0.00    -0.059 N
ATOM     40 3H10 UNL     1      16.231  49.934   6.920  1.00  0.00     0.276 HD
ATOM     41 2H10 UNL     1      17.402  49.464   6.027  1.00  0.00     0.276 HD
ATOM     42 1H10 UNL     1      17.473  49.064   7.667  1.00  0.00     0.276 HD
ENDBRANCH  30  39
ENDBRANCH   3  25
TORSDOF 8
ENDMDL