MODEL 4
REMARK VINA RESULT: -4.557618603      2.118      5.972
REMARK  6 active torsions:
REMARK  status: ('A' for Active; 'I' for Inactive)
REMARK    1  A    between atoms: C2_3  and  C4_11
REMARK    2  A    between atoms: N2_4  and  N3_6
REMARK    3  A    between atoms: C5_15  and  N7_16
REMARK    4  A    between atoms: C9_25  and  N10_26
REMARK    5  A    between atoms: C11_32  and  O2_33
REMARK    6  A    between atoms: C12_35  and  O3_36
ROOT
HETATM    1  N1  UNL     1      19.544  52.509   5.988  1.00  0.00    -0.190 NA
HETATM    2  C1  UNL     1      19.539  51.606   6.713  1.00  0.00     0.119 C
HETATM    3  C2  UNL     1      19.508  50.477   7.627  1.00  0.00     0.162 C
HETATM    4  N2  UNL     1      20.626  49.971   7.937  1.00  0.00    -0.289 N
ATOM      5  H2  UNL     1      21.425  50.429   7.497  1.00  0.00     0.187 HD
ENDROOT
BRANCH   3   6
HETATM    6  C4  UNL     1      18.248  49.918   8.187  1.00  0.00     0.389 C
HETATM    7  N6  UNL     1      17.690  50.724   9.213  1.00  0.00    -0.018 N
HETATM    8  C5  UNL     1      16.560  50.080   9.843  1.00  0.00     0.330 C
ATOM      9  H62 UNL     1      18.395  50.994   9.900  1.00  0.00     0.283 HD
ATOM     10  H61 UNL     1      17.445  51.651   8.866  1.00  0.00     0.283 HD
HETATM   11  C11 UNL     1      15.608  49.662   8.793  1.00  0.00     0.223 C
HETATM   12  C12 UNL     1      16.069  50.123   7.388  1.00  0.00     0.292 C
HETATM   13  O4  UNL     1      17.358  49.777   7.149  1.00  0.00    -0.321 OA
BRANCH   8  14
HETATM   14  N7  UNL     1      17.060  49.064  10.734  1.00  0.00    -0.295 N
HETATM   15  C6  UNL     1      16.979  47.709  10.531  1.00  0.00     0.187 A
HETATM   16  N8  UNL     1      17.539  47.039  11.538  1.00  0.00    -0.345 N
HETATM   17  C7  UNL     1      17.982  47.982  12.388  1.00  0.00     0.147 A
ATOM     18  H8  UNL     1      17.616  46.027  11.641  1.00  0.00     0.167 HD
HETATM   19  C8  UNL     1      18.648  47.834  13.597  1.00  0.00     0.290 A
HETATM   20  C10 UNL     1      17.695  49.256  11.907  1.00  0.00     0.158 A
HETATM   21  O1  UNL     1      18.915  46.684  14.047  1.00  0.00    -0.265 OA
HETATM   22  N9  UNL     1      18.993  48.942  14.264  1.00  0.00    -0.154 N
HETATM   23  C9  UNL     1      18.711  50.167  13.788  1.00  0.00     0.680 A
ATOM     24  H9  UNL     1      19.483  48.855  15.153  1.00  0.00     0.187 HD
HETATM   25  N11 UNL     1      18.066  50.335  12.619  1.00  0.00    -0.174 N
ATOM     26  H11 UNL     1      17.861  51.272  12.275  1.00  0.00     0.186 HD
BRANCH  23  27
HETATM   27  N10 UNL     1      19.051  51.230  14.442  1.00  0.00    -0.234 N
ATOM     28 2H10 UNL     1      19.151  52.097  13.915  1.00  0.00     0.174 HD
ATOM     29 1H10 UNL     1      19.213  51.197  15.449  1.00  0.00     0.174 HD
ENDBRANCH  23  27
ENDBRANCH   8  14
BRANCH  11  30
HETATM   30  O2  UNL     1      14.360  50.341   8.888  1.00  0.00    -0.387 OA
ATOM     31  H2  UNL     1      14.436  51.181   9.326  1.00  0.00     0.210 HD
ENDBRANCH  11  30
BRANCH  12  32
HETATM   32  O3  UNL     1      15.774  51.471   7.222  1.00  0.00    -0.368 OA
ATOM     33  H3  UNL     1      15.374  51.808   8.016  1.00  0.00     0.212 HD
ENDBRANCH  12  32
ENDBRANCH   3   6
BRANCH   4  34
HETATM   34  N3  UNL     1      20.962  48.933   8.745  1.00  0.00    -0.275 N
HETATM   35  C3  UNL     1      20.790  48.995  10.016  1.00  0.00     0.215 C
HETATM   36  N4  UNL     1      20.243  50.163  10.581  1.00  0.00    -0.065 NA
HETATM   37  N5  UNL     1      21.153  47.896  10.820  1.00  0.00    -0.065 NA
ATOM     38  H3  UNL     1      21.359  48.087   8.335  1.00  0.00     0.189 HD
ENDBRANCH   4  34
TORSDOF 6
ENDMDL