MODEL 1
REMARK VINA RESULT: -3.284612780      0.000      0.000
REMARK  8 active torsions:
REMARK  status: ('A' for Active; 'I' for Inactive)
REMARK    1  A    between atoms: N1_1  and  C1_4
REMARK    2  A    between atoms: C3_10  and  N4_11
REMARK    3  A    between atoms: N5_14  and  C4_15
REMARK    4  A    between atoms: C7_19  and  C8_20
REMARK    5  A    between atoms: C8_20  and  N6_21
REMARK    6  A    between atoms: C8_20  and  C9_25
REMARK    7  A    between atoms: C10_31  and  O5_32
REMARK    8  A    between atoms: C11_34  and  O6_35
ROOT
HETATM    1  C4  UNL     1      17.552  50.025   9.807  1.00  0.00     0.162 C
HETATM    2  C5  UNL     1      17.628  51.511   9.424  1.00  0.00     0.076 C
HETATM    3  C6  UNL     1      17.832  51.030   8.006  1.00  0.00     0.144 C
HETATM    4  O2  UNL     1      18.655  51.778   7.215  1.00  0.00    -0.338 OA
HETATM    5  C7  UNL     1      17.866  52.857   6.856  1.00  0.00     0.366 C
HETATM    6  N7  UNL     1      16.507  52.351   6.702  1.00  0.00    -0.017 N
ATOM      7  H71 UNL     1      16.144  52.424   5.752  1.00  0.00     0.283 HD
ATOM      8  H72 UNL     1      15.797  52.935   7.144  1.00  0.00     0.283 HD
HETATM    9  C10 UNL     1      16.550  50.974   7.218  1.00  0.00     0.359 C
HETATM   10  C11 UNL     1      18.342  49.743   8.546  1.00  0.00     0.182 C
ENDROOT
BRANCH   1  11
HETATM   11  N5  UNL     1      18.216  49.732  11.038  1.00  0.00    -0.101 N
HETATM   12  C3  UNL     1      18.202  48.569  11.684  1.00  0.00     0.719 A
HETATM   13  N3  UNL     1      18.938  48.650  12.818  1.00  0.00     0.080 N
HETATM   14  C2  UNL     1      19.272  47.829  13.822  1.00  0.00     0.376 A
HETATM   15  C12 UNL     1      19.401  49.910  12.834  1.00  0.00     0.737 A
HETATM   16  N2  UNL     1      20.040  48.237  14.819  1.00  0.00    -0.140 N
HETATM   17  O1  UNL     1      18.834  46.648  13.800  1.00  0.00    -0.244 OA
HETATM   18  C1  UNL     1      20.508  49.495  14.846  1.00  0.00     0.694 A
ATOM     19  H2  UNL     1      20.278  47.591  15.572  1.00  0.00     0.189 HD
HETATM   20  N9  UNL     1      20.189  50.339  13.848  1.00  0.00    -0.020 N
ATOM     21  H9  UNL     1      20.538  51.298  13.856  1.00  0.00     0.203 HD
HETATM   22  N8  UNL     1      18.954  50.573  11.738  1.00  0.00    -0.113 N
ATOM     23  H8  UNL     1      19.152  51.544  11.499  1.00  0.00     0.206 HD
BRANCH  12  24
HETATM   24  N4  UNL     1      17.600  47.478  11.346  1.00  0.00    -0.232 N
ATOM     25  H42 UNL     1      17.638  46.569  11.809  1.00  0.00     0.174 HD
ATOM     26  H41 UNL     1      16.992  47.435  10.528  1.00  0.00     0.174 HD
ENDBRANCH  12  24
BRANCH  18  27
HETATM   27  N1  UNL     1      21.253  49.838  15.842  1.00  0.00    -0.234 N
ATOM     28  H12 UNL     1      21.199  49.387  16.755  1.00  0.00     0.174 HD
ATOM     29  H11 UNL     1      21.921  50.596  15.698  1.00  0.00     0.174 HD
ENDBRANCH  18  27
ENDBRANCH   1  11
BRANCH  10  30
HETATM   30  O6  UNL     1      19.722  49.710   8.711  1.00  0.00    -0.390 OA
ATOM     31  H6  UNL     1      20.152  48.941   8.355  1.00  0.00     0.210 HD
ENDBRANCH  10  30
BRANCH   9  32
HETATM   32  O5  UNL     1      16.621  50.132   6.134  1.00  0.00    -0.367 OA
ATOM     33  H5  UNL     1      15.937  49.473   6.129  1.00  0.00     0.212 HD
ENDBRANCH   9  32
BRANCH   5  34
HETATM   34  C8  UNL     1      18.344  53.491   5.556  1.00  0.00     0.339 C
BRANCH  34  35
HETATM   35  N6  UNL     1      18.315  54.921   5.716  1.00  0.00    -0.061 N
ATOM     36  H63 UNL     1      17.624  55.226   6.401  1.00  0.00     0.275 HD
ATOM     37  H62 UNL     1      19.145  55.281   6.186  1.00  0.00     0.275 HD
ATOM     38  H61 UNL     1      18.170  55.342   4.798  1.00  0.00     0.275 HD
ENDBRANCH  34  35
BRANCH  34  39
HETATM   39  C9  UNL     1      19.710  53.014   5.236  1.00  0.00     0.209 C
HETATM   40  O3  UNL     1      20.321  52.182   5.946  1.00  0.00    -0.646 OA
HETATM   41  O4  UNL     1      20.339  53.506   4.104  1.00  0.00    -0.646 OA
ENDBRANCH  34  39
ENDBRANCH   5  34
TORSDOF 8
ENDMDL