MODEL 5
REMARK VINA RESULT: -1.958633547      1.783      2.692
REMARK  8 active torsions:
REMARK  status: ('A' for Active; 'I' for Inactive)
REMARK    1  A    between atoms: C2_3  and  C3_4
REMARK    2  A    between atoms: C3_4  and  C4_5
REMARK    3  A    between atoms: C4_5  and  N2_6
REMARK    4  A    between atoms: C4_5  and  N3_10
REMARK    5  A    between atoms: C6_20  and  C7_21
REMARK    6  A    between atoms: C7_21  and  O1_22
REMARK    7  A    between atoms: C8_24  and  O2_25
REMARK    8  A    between atoms: C12_33  and  N8_34
ROOT
HETATM    1  C3  UNL     1      18.814  49.332  11.937  1.00  0.00     0.157 C
HETATM    2  N4  UNL     1      19.995  50.118  12.324  1.00  0.00    -0.344 N
ATOM      3  H4  UNL     1      20.015  51.099  12.043  1.00  0.00     0.163 HD
HETATM    4  C5  UNL     1      20.981  49.689  12.970  1.00  0.00     0.185 C
HETATM    5  N5  UNL     1      22.046  50.604  13.265  1.00  0.00    -0.064 NA
HETATM    6  N6  UNL     1      21.042  48.347  13.377  1.00  0.00    -0.355 N
ATOM      7  H6  UNL     1      21.686  48.069  14.118  1.00  0.00     0.162 HD
HETATM    8  C6  UNL     1      20.197  47.359  12.749  1.00  0.00     0.139 C
HETATM    9  C8  UNL     1      18.861  47.898  12.294  1.00  0.00     0.181 C
ENDROOT
BRANCH   1  10
HETATM   10  C2  UNL     1      18.296  49.737  10.641  1.00  0.00     0.050 A
HETATM   11  N1  UNL     1      17.019  49.504  10.298  1.00  0.00    -0.318 N
HETATM   12  C1  UNL     1      16.087  48.882  11.143  1.00  0.00     0.159 C
HETATM   13  C14 UNL     1      16.590  49.888   9.052  1.00  0.00     0.276 A
HETATM   14  C13 UNL     1      17.369  50.491   8.124  1.00  0.00     0.133 A
HETATM   15  O4  UNL     1      15.379  49.665   8.735  1.00  0.00    -0.265 OA
HETATM   16  C10 UNL     1      18.669  50.743   8.437  1.00  0.00     0.067 A
HETATM   17  N9  UNL     1      16.868  50.821   6.912  1.00  0.00    -0.185 N
HETATM   18  C9  UNL     1      19.125  50.366   9.691  1.00  0.00     0.047 A
HETATM   19  C11 UNL     1      19.485  51.340   7.511  1.00  0.00     0.272 A
HETATM   20  O3  UNL     1      20.690  51.594   7.742  1.00  0.00    -0.267 OA
HETATM   21  N7  UNL     1      18.939  51.649   6.317  1.00  0.00    -0.156 N
HETATM   22  C12 UNL     1      17.658  51.399   6.012  1.00  0.00     0.679 A
ATOM     23  H7  UNL     1      19.529  52.094   5.613  1.00  0.00     0.187 HD
ATOM     24  H9  UNL     1      15.891  50.627   6.689  1.00  0.00     0.184 HD
BRANCH  22  25
HETATM   25  N8  UNL     1      17.181  51.710   4.861  1.00  0.00    -0.234 N
ATOM     26  H82 UNL     1      17.763  51.600   4.032  1.00  0.00     0.174 HD
ATOM     27  H81 UNL     1      16.230  52.067   4.767  1.00  0.00     0.174 HD
ENDBRANCH  22  25
ENDBRANCH   1  10
BRANCH   1  28
HETATM   28  C4  UNL     1      17.820  49.915  13.012  1.00  0.00     0.414 C
BRANCH  28  29
HETATM   29  N2  UNL     1      17.709  48.894  14.082  1.00  0.00    -0.048 N
ATOM     30  H23 UNL     1      17.157  49.206  14.881  1.00  0.00     0.276 HD
ATOM     31  H22 UNL     1      17.121  48.101  13.823  1.00  0.00     0.276 HD
ATOM     32  H21 UNL     1      18.662  48.626  14.328  1.00  0.00     0.276 HD
ENDBRANCH  28  29
BRANCH  28  33
HETATM   33  N3  UNL     1      18.354  51.073  13.648  1.00  0.00    -0.048 N
ATOM     34  H33 UNL     1      19.088  51.503  13.085  1.00  0.00     0.276 HD
ATOM     35  H32 UNL     1      17.684  51.841  13.647  1.00  0.00     0.276 HD
ATOM     36  H31 UNL     1      18.683  50.867  14.592  1.00  0.00     0.276 HD
ENDBRANCH  28  33
ENDBRANCH   1  28
BRANCH   9  37
HETATM   37  O2  UNL     1      18.351  47.020  11.340  1.00  0.00    -0.390 OA
ATOM     38  H2  UNL     1      18.928  46.820  10.612  1.00  0.00     0.210 HD
ENDBRANCH   9  37
BRANCH   8  39
HETATM   39  C7  UNL     1      20.019  46.251  13.784  1.00  0.00     0.191 C
BRANCH  39  40
HETATM   40  O1  UNL     1      18.670  45.923  13.928  1.00  0.00    -0.399 OA
ATOM     41  H1  UNL     1      18.520  45.011  13.710  1.00  0.00     0.209 HD
ENDBRANCH  39  40
ENDBRANCH   8  39
TORSDOF 8
ENDMDL