MODEL 2
REMARK VINA RESULT: -1.850073215      2.416      2.969
REMARK  10 active torsions:
REMARK  status: ('A' for Active; 'I' for Inactive)
REMARK    1  A    between atoms: C4_6  and  N2_7
REMARK    2  A    between atoms: C5_12  and  N4_13
REMARK    3  A    between atoms: N6_19  and  C7_20
REMARK    4  A    between atoms: C8_22  and  C9_23
REMARK    5  A    between atoms: C9_23  and  O2_24
REMARK    6  A    between atoms: C10_26  and  C11_27
REMARK       I    between atoms: C11_27  and  N7_29
REMARK    7  A    between atoms: N7_29  and  N8_31
REMARK       I    between atoms: N8_31  and  C12_33
REMARK    8  A    between atoms: C12_33  and  C13_35
REMARK    9  A    between atoms: C13_35  and  N9_36
REMARK   10  A    between atoms: C13_35  and  N10_40
ROOT
HETATM    1  C7  UNL     1      16.857  51.018   9.341  1.00  0.00     0.381 C
HETATM    2  O1  UNL     1      17.835  52.017   9.533  1.00  0.00    -0.333 OA
HETATM    3  C8  UNL     1      17.245  52.999   8.695  1.00  0.00     0.188 C
HETATM    4  C10 UNL     1      17.137  52.154   7.440  1.00  0.00     0.251 C
HETATM    5  O5  UNL     1      16.800  50.892   7.985  1.00  0.00    -0.326 OA
ENDROOT
BRANCH   1   6
HETATM    6  N6  UNL     1      17.181  49.827  10.070  1.00  0.00    -0.270 N
HETATM    7  C2  UNL     1      16.827  48.569   9.669  1.00  0.00     0.085 A
HETATM    8  C1  UNL     1      16.058  48.217   8.440  1.00  0.00     0.089 C
HETATM    9  N1  UNL     1      17.310  47.742  10.601  1.00  0.00    -0.340 N
HETATM   10  C3  UNL     1      17.949  48.425  11.564  1.00  0.00     0.123 A
ATOM     11  H1  UNL     1      17.208  46.727  10.583  1.00  0.00     0.167 HD
HETATM   12  C4  UNL     1      18.610  48.069  12.721  1.00  0.00     0.145 A
HETATM   13  C6  UNL     1      17.864  49.777  11.219  1.00  0.00     0.159 A
HETATM   14  N3  UNL     1      19.167  49.006  13.510  1.00  0.00    -0.175 N
HETATM   15  C5  UNL     1      19.095  50.309  13.193  1.00  0.00     0.679 A
ATOM     16  H3  UNL     1      19.652  48.721  14.362  1.00  0.00     0.186 HD
HETATM   17  N5  UNL     1      18.444  50.636  12.058  1.00  0.00    -0.174 N
ATOM     18  H5  UNL     1      18.391  51.626  11.820  1.00  0.00     0.186 HD
BRANCH  12  19
HETATM   19  N2  UNL     1      18.713  46.844  13.074  1.00  0.00    -0.383 N
ATOM     20  H22 UNL     1      18.592  46.126  12.360  1.00  0.00     0.157 HD
ATOM     21  H21 UNL     1      18.909  46.588  14.042  1.00  0.00     0.157 HD
ENDBRANCH  12  19
BRANCH  15  22
HETATM   22  N4  UNL     1      19.628  51.233  13.954  1.00  0.00    -0.234 N
ATOM     23  H42 UNL     1      20.615  51.198  14.208  1.00  0.00     0.174 HD
ATOM     24  H41 UNL     1      19.079  52.015  14.313  1.00  0.00     0.174 HD
ENDBRANCH  15  22
ENDBRANCH   1   6
BRANCH   3  25
HETATM   25  C9  UNL     1      18.029  54.237   8.595  1.00  0.00     0.199 C
BRANCH  25  26
HETATM   26  O2  UNL     1      18.073  54.685   7.291  1.00  0.00    -0.398 OA
ATOM     27  H2  UNL     1      17.419  55.358   7.144  1.00  0.00     0.209 HD
ENDBRANCH  25  26
ENDBRANCH   3  25
BRANCH   4  28
HETATM   28  C11 UNL     1      18.388  51.990   6.699  1.00  0.00     0.268 C
HETATM   29  O3  UNL     1      19.137  50.978   6.949  1.00  0.00    -0.269 OA
HETATM   30  N7  UNL     1      18.890  52.849   5.694  1.00  0.00    -0.265 N
ATOM     31  H7  UNL     1      18.344  53.671   5.438  1.00  0.00     0.190 HD
BRANCH  30  32
HETATM   32  N8  UNL     1      20.116  52.616   5.029  1.00  0.00    -0.264 N
HETATM   33  C12 UNL     1      20.638  53.574   4.153  1.00  0.00     0.294 C
HETATM   34  O4  UNL     1      20.009  54.667   3.944  1.00  0.00    -0.267 OA
ATOM     35  H8  UNL     1      20.623  51.746   5.190  1.00  0.00     0.190 HD
BRANCH  33  36
HETATM   36  C13 UNL     1      21.908  53.391   3.435  1.00  0.00     0.469 C
BRANCH  36  37
HETATM   37  N9  UNL     1      22.786  54.521   3.496  1.00  0.00    -0.041 N
ATOM     38  H93 UNL     1      23.758  54.216   3.545  1.00  0.00     0.277 HD
ATOM     39  H92 UNL     1      22.802  55.009   2.601  1.00  0.00     0.277 HD
ATOM     40  H91 UNL     1      22.578  55.172   4.254  1.00  0.00     0.277 HD
ENDBRANCH  36  37
BRANCH  36  41
HETATM   41  N10 UNL     1      21.694  53.000   2.043  1.00  0.00    -0.041 N
ATOM     42 3H10 UNL     1      21.239  53.745   1.515  1.00  0.00     0.277 HD
ATOM     43 2H10 UNL     1      22.574  52.954   1.530  1.00  0.00     0.277 HD
ATOM     44 1H10 UNL     1      21.176  52.124   1.971  1.00  0.00     0.277 HD
ENDBRANCH  36  41
ENDBRANCH  33  36
ENDBRANCH  30  32
ENDBRANCH   4  28
TORSDOF 10
ENDMDL