MODEL 3
REMARK VINA RESULT: 1.372802636      2.530      6.180
REMARK  8 active torsions:
REMARK  status: ('A' for Active; 'I' for Inactive)
REMARK    1  A    between atoms: C4_6  and  N2_7
REMARK    2  A    between atoms: N3_13  and  N4_14
REMARK    3  A    between atoms: N4_14  and  O2_16
REMARK    4  A    between atoms: N5_18  and  C7_19
REMARK    5  A    between atoms: C8_20  and  O3_21
REMARK    6  A    between atoms: C9_23  and  O4_24
REMARK    7  A    between atoms: C11_27  and  N6_28
REMARK       I    between atoms: N7_32  and  C12_33
REMARK       I    between atoms: C12_33  and  N8_35
REMARK    8  A    between atoms: N8_35  and  N9_37
ROOT
HETATM    1  C1  UNL     1      19.995  52.229   6.114  1.00  0.00     0.021 C
HETATM    2  C2  UNL     1      19.325  51.614   6.908  1.00  0.00    -0.041 C
HETATM    3  C3  UNL     1      18.503  50.882   7.852  1.00  0.00     0.163 A
HETATM    4  N1  UNL     1      17.213  50.676   7.660  1.00  0.00    -0.321 N
ATOM      5  H1  UNL     1      16.766  51.041   6.820  1.00  0.00     0.169 HD
HETATM    6  C4  UNL     1      16.475  49.987   8.564  1.00  0.00     0.120 A
HETATM    7  C5  UNL     1      17.094  49.498   9.699  1.00  0.00     0.124 A
HETATM    8  C6  UNL     1      16.632  48.785  10.771  1.00  0.00     0.301 A
HETATM    9  O1  UNL     1      15.457  48.383  10.978  1.00  0.00    -0.263 OA
HETATM   10  N3  UNL     1      17.675  48.586  11.580  1.00  0.00    -0.130 N
HETATM   11  N5  UNL     1      18.774  49.142  11.063  1.00  0.00    -0.223 N
HETATM   12  C13 UNL     1      18.421  49.703   9.912  1.00  0.00     0.148 A
HETATM   13  N10 UNL     1      19.092  50.395   8.974  1.00  0.00    -0.319 N
ATOM     14  H10 UNL     1      20.089  50.561   9.112  1.00  0.00     0.169 HD
ENDROOT
BRANCH   6  15
HETATM   15  N2  UNL     1      15.225  49.818   8.321  1.00  0.00    -0.384 N
ATOM     16  H22 UNL     1      14.862  49.613   7.390  1.00  0.00     0.157 HD
ATOM     17  H21 UNL     1      14.570  49.896   9.099  1.00  0.00     0.157 HD
ENDBRANCH   6  15
BRANCH  11  18
HETATM   18  C7  UNL     1      20.030  49.081  11.739  1.00  0.00     0.250 C
HETATM   19  C8  UNL     1      20.762  47.853  11.241  1.00  0.00     0.191 C
HETATM   20  C9  UNL     1      22.040  47.545  11.926  1.00  0.00     0.154 C
HETATM   21  C10 UNL     1      22.259  48.172  13.256  1.00  0.00     0.088 C
HETATM   22  C11 UNL     1      20.901  48.329  13.949  1.00  0.00     0.292 C
HETATM   23  N7  UNL     1      20.089  49.247  13.147  1.00  0.00    -0.278 N
HETATM   24  C12 UNL     1      19.445  50.318  13.781  1.00  0.00     0.340 C
HETATM   25  O5  UNL     1      19.535  50.316  15.076  1.00  0.00    -0.245 OA
HETATM   26  N8  UNL     1      18.732  51.375  13.242  1.00  0.00    -0.258 N
ATOM     27  H8  UNL     1      18.626  51.443  12.230  1.00  0.00     0.191 HD
BRANCH  19  28
HETATM   28  O3  UNL     1      19.928  46.721  11.213  1.00  0.00    -0.389 OA
ATOM     29  H3  UNL     1      20.231  46.042  11.806  1.00  0.00     0.210 HD
ENDBRANCH  19  28
BRANCH  20  30
HETATM   30  O4  UNL     1      23.154  47.892  11.124  1.00  0.00    -0.393 OA
ATOM     31  H4  UNL     1      23.962  47.539  11.479  1.00  0.00     0.210 HD
ENDBRANCH  20  30
BRANCH  22  32
HETATM   32  N6  UNL     1      20.338  47.046  14.176  1.00  0.00    -0.058 N
ATOM     33  H63 UNL     1      20.061  46.588  13.308  1.00  0.00     0.276 HD
ATOM     34  H62 UNL     1      21.034  46.367  14.483  1.00  0.00     0.276 HD
ATOM     35  H61 UNL     1      19.563  47.129  14.834  1.00  0.00     0.276 HD
ENDBRANCH  22  32
BRANCH  26  36
HETATM   36  N9  UNL     1      18.157  52.349  14.056  1.00  0.00    -0.341 N
ATOM     37  H92 UNL     1      17.208  52.657  13.846  1.00  0.00     0.177 HD
ATOM     38  H91 UNL     1      18.668  52.749  14.844  1.00  0.00     0.177 HD
ENDBRANCH  26  36
ENDBRANCH  11  18
BRANCH  10  39
HETATM   39  N4  UNL     1      17.580  47.877  12.810  1.00  0.00    -0.185 N
ATOM     40  H4  UNL     1      17.350  48.375  13.671  1.00  0.00     0.218 HD
BRANCH  39  41
HETATM   41  O2  UNL     1      17.794  46.550  12.833  1.00  0.00    -0.273 OA
ATOM     42  H2  UNL     1      17.519  46.016  12.097  1.00  0.00     0.246 HD
ENDBRANCH  39  41
ENDBRANCH  10  39
TORSDOF 8
ENDMDL