MODEL 2
REMARK VINA RESULT: -4.069724812      1.139      1.739
REMARK  9 active torsions:
REMARK  status: ('A' for Active; 'I' for Inactive)
REMARK    1  A    between atoms: N1_1  and  C1_4
REMARK    2  A    between atoms: N2_5  and  N3_6
REMARK    3  A    between atoms: C2_9  and  C3_10
REMARK       I    between atoms: C3_10  and  N4_12
REMARK    4  A    between atoms: N4_12  and  N5_14
REMARK    5  A    between atoms: N5_14  and  C4_16
REMARK    6  A    between atoms: C5_19  and  N7_20
REMARK    7  A    between atoms: N10_30  and  C9_31
REMARK    8  A    between atoms: C11_36  and  O3_37
REMARK    9  A    between atoms: C12_39  and  O4_40
ROOT
HETATM    1  C1  UNL     1      16.298  49.544   7.636  1.00  0.00     0.703 A
HETATM    2  N2  UNL     1      16.395  48.994   8.886  1.00  0.00    -0.084 N
HETATM    3  C2  UNL     1      17.410  49.517   9.571  1.00  0.00     0.185 A
HETATM    4  C8  UNL     1      17.968  50.445   8.686  1.00  0.00     0.171 A
HETATM    5  N9  UNL     1      19.100  51.264   8.991  1.00  0.00    -0.079 NA
HETATM    6  N10 UNL     1      17.278  50.437   7.537  1.00  0.00    -0.142 N
ENDROOT
BRANCH   3   7
HETATM    7  C3  UNL     1      17.900  49.261  10.904  1.00  0.00     0.292 C
HETATM    8  O1  UNL     1      19.078  48.805  11.036  1.00  0.00    -0.264 OA
HETATM    9  N4  UNL     1      17.143  49.488  12.057  1.00  0.00    -0.263 N
ATOM     10  H4  UNL     1      16.192  49.853  12.005  1.00  0.00     0.190 HD
BRANCH   9  11
HETATM   11  N5  UNL     1      17.753  49.191  13.307  1.00  0.00    -0.286 N
ATOM     12  H5  UNL     1      17.159  48.892  14.081  1.00  0.00     0.188 HD
BRANCH  11  13
HETATM   13  C4  UNL     1      19.141  49.290  13.523  1.00  0.00     0.099 C
HETATM   14  N6  UNL     1      19.934  48.267  13.520  1.00  0.00    -0.335 N
HETATM   15  C5  UNL     1      21.363  48.395  13.745  1.00  0.00     0.387 C
ATOM     16  H6  UNL     1      19.542  47.340  13.353  1.00  0.00     0.164 HD
HETATM   17  N8  UNL     1      21.707  49.483  14.578  1.00  0.00    -0.360 N
HETATM   18  C6  UNL     1      20.984  50.521  14.610  1.00  0.00     0.066 C
ATOM     19  H8  UNL     1      22.544  49.432  15.158  1.00  0.00     0.162 HD
HETATM   20  C7  UNL     1      19.773  50.600  13.773  1.00  0.00     0.121 C
BRANCH  15  21
HETATM   21  N7  UNL     1      22.002  48.513  12.455  1.00  0.00    -0.041 N
ATOM     22  H73 UNL     1      22.514  47.672  12.187  1.00  0.00     0.279 HD
ATOM     23  H72 UNL     1      21.337  48.516  11.681  1.00  0.00     0.279 HD
ATOM     24  H71 UNL     1      22.590  49.346  12.476  1.00  0.00     0.279 HD
ENDBRANCH  15  21
ENDBRANCH  11  13
ENDBRANCH   9  11
ENDBRANCH   3   7
BRANCH   2  25
HETATM   25  N3  UNL     1      15.508  48.001   9.337  1.00  0.00    -0.324 N
ATOM     26  H32 UNL     1      15.646  46.993   9.274  1.00  0.00     0.178 HD
ATOM     27  H31 UNL     1      14.618  48.229   9.780  1.00  0.00     0.178 HD
ENDBRANCH   2  25
BRANCH   1  28
HETATM   28  N1  UNL     1      15.395  49.208   6.770  1.00  0.00    -0.233 N
ATOM     29  H12 UNL     1      15.117  48.282   6.443  1.00  0.00     0.174 HD
ATOM     30  H11 UNL     1      14.810  49.879   6.272  1.00  0.00     0.174 HD
ENDBRANCH   1  28
BRANCH   6  31
HETATM   31  C9  UNL     1      17.577  51.265   6.406  1.00  0.00     0.243 C
HETATM   32  N11 UNL     1      18.986  51.162   6.118  1.00  0.00    -0.334 N
HETATM   33  C10 UNL     1      19.510  52.425   5.841  1.00  0.00     0.250 C
ATOM     34  H11 UNL     1      19.521  50.293   6.116  1.00  0.00     0.164 HD
HETATM   35  O2  UNL     1      20.561  52.692   5.178  1.00  0.00    -0.271 OA
HETATM   36  C11 UNL     1      18.591  53.430   6.479  1.00  0.00     0.242 C
HETATM   37  C12 UNL     1      17.278  52.720   6.638  1.00  0.00     0.199 C
BRANCH  36  38
HETATM   38  O3  UNL     1      18.485  54.531   5.605  1.00  0.00    -0.383 OA
ATOM     39  H3  UNL     1      17.766  54.359   5.008  1.00  0.00     0.210 HD
ENDBRANCH  36  38
BRANCH  37  40
HETATM   40  O4  UNL     1      16.664  52.959   7.855  1.00  0.00    -0.389 OA
ATOM     41  H4  UNL     1      15.834  52.506   7.947  1.00  0.00     0.210 HD
ENDBRANCH  37  40
ENDBRANCH   6  31
TORSDOF 9
ENDMDL