MODEL 1
REMARK VINA RESULT: -3.532997026      0.000      0.000
REMARK  7 active torsions:
REMARK  status: ('A' for Active; 'I' for Inactive)
REMARK    1  A    between atoms: C3_9  and  O2_10
REMARK    2  A    between atoms: C3_9  and  C4_12
REMARK    3  A    between atoms: C4_12  and  O3_13
REMARK    4  A    between atoms: C5_15  and  O4_16
REMARK    5  A    between atoms: C5_15  and  C6_18
REMARK    6  A    between atoms: C7_22  and  C8_23
REMARK    7  A    between atoms: C8_23  and  O8_24
ROOT
HETATM    1  C4  UNL     1      18.988  48.859  11.275  1.00  0.00     0.214 C
HETATM    2  C5  UNL     1      18.237  47.870  12.095  1.00  0.00     0.294 C
HETATM    3  O7  UNL     1      17.229  47.488  11.191  1.00  0.00    -0.333 OA
HETATM    4  C7  UNL     1      16.784  48.645  10.599  1.00  0.00     0.195 C
HETATM    5  C9  UNL     1      18.058  49.511  10.415  1.00  0.00     0.198 C
HETATM    6  O9  UNL     1      18.477  49.334   9.029  1.00  0.00    -0.278 OA
HETATM    7  C10 UNL     1      19.122  50.465   8.591  1.00  0.00     0.367 C
HETATM    8  O10 UNL     1      19.937  50.532   7.646  1.00  0.00    -0.238 OA
HETATM    9  N3  UNL     1      18.652  51.504   9.446  1.00  0.00    -0.289 N
ATOM     10  H3  UNL     1      18.926  52.486   9.407  1.00  0.00     0.172 HD
HETATM   11  C11 UNL     1      17.722  50.916  10.374  1.00  0.00     0.121 C
HETATM   12  N4  UNL     1      16.835  51.658  10.924  1.00  0.00    -0.386 N
ATOM     13  H41 UNL     1      16.598  52.649  10.895  1.00  0.00     0.157 HD
ATOM     14  H42 UNL     1      16.175  51.241  11.581  1.00  0.00     0.157 HD
ENDROOT
BRANCH   1  15
HETATM   15  C3  UNL     1      20.160  49.500  11.894  1.00  0.00     0.247 C
HETATM   16  C2  UNL     1      21.238  48.461  12.184  1.00  0.00     0.269 C
HETATM   17  N2  UNL     1      21.454  48.377  13.568  1.00  0.00    -0.307 N
HETATM   18  O1  UNL     1      21.838  47.788  11.339  1.00  0.00    -0.269 OA
HETATM   19  C1  UNL     1      20.733  49.430  14.191  1.00  0.00     0.152 C
ATOM     20  H2  UNL     1      22.028  47.681  14.045  1.00  0.00     0.170 HD
HETATM   21  N1  UNL     1      20.719  49.636  15.461  1.00  0.00    -0.382 N
HETATM   22  C12 UNL     1      20.023  50.225  13.156  1.00  0.00     0.239 C
ATOM     23  H12 UNL     1      21.206  49.091  16.172  1.00  0.00     0.157 HD
ATOM     24  H11 UNL     1      20.201  50.393  15.909  1.00  0.00     0.157 HD
HETATM   25  O11 UNL     1      19.468  51.294  13.480  1.00  0.00    -0.285 OA
BRANCH  15  26
HETATM   26  O2  UNL     1      20.818  50.354  11.012  1.00  0.00    -0.370 OA
ATOM     27  H2  UNL     1      20.336  51.164  11.131  1.00  0.00     0.212 HD
ENDBRANCH  15  26
ENDBRANCH   1  15
BRANCH   1  28
HETATM   28  O3  UNL     1      19.654  47.901  10.383  1.00  0.00    -0.377 OA
ATOM     29  H3  UNL     1      20.517  47.873  10.779  1.00  0.00     0.211 HD
ENDBRANCH   1  28
BRANCH   2  30
HETATM   30  O4  UNL     1      18.942  46.647  12.282  1.00  0.00    -0.354 OA
ATOM     31  H4  UNL     1      19.008  46.128  11.490  1.00  0.00     0.213 HD
ENDBRANCH   2  30
BRANCH   2  32
HETATM   32  C6  UNL     1      17.643  48.212  13.344  1.00  0.00     0.242 C
HETATM   33  O5  UNL     1      17.834  47.552  14.428  1.00  0.00    -0.644 OA
HETATM   34  O6  UNL     1      16.795  49.292  13.524  1.00  0.00    -0.644 OA
ENDBRANCH   2  32
BRANCH   4  35
HETATM   35  C8  UNL     1      16.234  48.271   9.231  1.00  0.00     0.199 C
BRANCH  35  36
HETATM   36  O8  UNL     1      15.544  49.344   8.658  1.00  0.00    -0.398 OA
ATOM     37  H8  UNL     1      15.286  49.145   7.765  1.00  0.00     0.209 HD
ENDBRANCH  35  36
ENDBRANCH   4  35
TORSDOF 7
ENDMDL