MODEL 3
REMARK VINA RESULT: 0.664824530      0.992      1.115
REMARK  8 active torsions:
REMARK  status: ('A' for Active; 'I' for Inactive)
REMARK    1  A    between atoms: N1_1  and  N2_4
REMARK       I    between atoms: N2_4  and  C1_6
REMARK    2  A    between atoms: C1_6  and  C2_8
REMARK    3  A    between atoms: C4_12  and  N4_13
REMARK       I    between atoms: N4_13  and  C5_15
REMARK       I    between atoms: C5_15  and  N5_16
REMARK       I    between atoms: C5_15  and  N6_20
REMARK    4  A    between atoms: N9_30  and  C8_31
REMARK    5  A    between atoms: C9_32  and  N10_33
REMARK    6  A    between atoms: C11_38  and  N11_39
REMARK    7  A    between atoms: C12_43  and  O2_44
REMARK    8  A    between atoms: C13_46  and  O3_47
ROOT
HETATM    1  C2  UNL     1      17.678  48.995  10.183  1.00  0.00     0.185 A
HETATM    2  N3  UNL     1      17.162  49.273   8.924  1.00  0.00    -0.331 N
ATOM      3  H3  UNL     1      16.413  48.780   8.439  1.00  0.00     0.168 HD
HETATM    4  C3  UNL     1      17.858  50.324   8.488  1.00  0.00     0.123 A
HETATM    5  C4  UNL     1      17.771  51.011   7.279  1.00  0.00     0.136 A
HETATM    6  N7  UNL     1      18.585  52.034   7.042  1.00  0.00    -0.337 N
ATOM      7  H7  UNL     1      18.526  52.541   6.159  1.00  0.00     0.168 HD
HETATM    8  C6  UNL     1      19.484  52.397   7.967  1.00  0.00     0.183 A
HETATM    9  N8  UNL     1      19.553  51.733   9.110  1.00  0.00    -0.336 N
ATOM     10  H8  UNL     1      20.249  52.034   9.791  1.00  0.00     0.168 HD
HETATM   11  C7  UNL     1      18.775  50.694   9.433  1.00  0.00     0.145 A
HETATM   12  N9  UNL     1      18.635  49.833  10.501  1.00  0.00    -0.280 N
ENDROOT
BRANCH  12  13
HETATM   13  C8  UNL     1      19.468  50.054  11.654  1.00  0.00     0.059 C
HETATM   14  C9  UNL     1      20.710  49.338  11.848  1.00  0.00     0.234 C
HETATM   15  C10 UNL     1      21.350  50.011  13.123  1.00  0.00     0.074 C
HETATM   16  C11 UNL     1      20.618  49.504  14.334  1.00  0.00     0.217 C
HETATM   17  C12 UNL     1      19.144  49.433  14.129  1.00  0.00     0.183 C
HETATM   18  C13 UNL     1      18.645  50.168  12.927  1.00  0.00     0.197 C
BRANCH  14  19
HETATM   19  N10 UNL     1      20.747  47.971  12.177  1.00  0.00    -0.070 N
ATOM     20 3H10 UNL     1      19.831  47.717  12.547  1.00  0.00     0.275 HD
ATOM     21 2H10 UNL     1      20.780  47.443  11.304  1.00  0.00     0.275 HD
ATOM     22 1H10 UNL     1      21.452  47.578  12.801  1.00  0.00     0.275 HD
ENDBRANCH  14  19
BRANCH  16  23
HETATM   23  N11 UNL     1      21.156  48.211  14.682  1.00  0.00    -0.072 N
ATOM     24 3H11 UNL     1      22.058  48.029  14.241  1.00  0.00     0.274 HD
ATOM     25 2H11 UNL     1      21.463  48.162  15.653  1.00  0.00     0.274 HD
ATOM     26 1H11 UNL     1      20.458  47.502  14.456  1.00  0.00     0.274 HD
ENDBRANCH  16  23
BRANCH  17  27
HETATM   27  O2  UNL     1      18.625  48.160  14.279  1.00  0.00    -0.391 OA
ATOM     28  H2  UNL     1      17.734  48.073  13.961  1.00  0.00     0.210 HD
ENDBRANCH  17  27
BRANCH  18  29
HETATM   29  O3  UNL     1      18.534  51.519  13.341  1.00  0.00    -0.387 OA
ATOM     30  H3  UNL     1      17.635  51.733  13.562  1.00  0.00     0.210 HD
ENDBRANCH  18  29
ENDBRANCH  12  13
BRANCH   1  31
HETATM   31  C1  UNL     1      17.090  47.894  10.880  1.00  0.00     0.304 C
HETATM   32  N2  UNL     1      17.777  47.082  11.781  1.00  0.00    -0.270 N
ATOM     33  H2  UNL     1      18.759  47.292  11.962  1.00  0.00     0.189 HD
HETATM   34  O1  UNL     1      15.882  47.626  10.663  1.00  0.00    -0.263 OA
BRANCH  32  35
HETATM   35  N1  UNL     1      17.205  46.005  12.449  1.00  0.00    -0.342 N
ATOM     36  H12 UNL     1      16.504  46.220  13.158  1.00  0.00     0.176 HD
ATOM     37  H11 UNL     1      17.445  45.030  12.268  1.00  0.00     0.176 HD
ENDBRANCH  32  35
ENDBRANCH   1  31
BRANCH   5  38
HETATM   38  N4  UNL     1      16.876  50.597   6.441  1.00  0.00    -0.325 N
HETATM   39  C5  UNL     1      15.956  49.548   6.723  1.00  0.00     0.481 C
HETATM   40  N5  UNL     1      14.751  50.009   7.391  1.00  0.00    -0.033 N
HETATM   41  N6  UNL     1      15.519  48.982   5.445  1.00  0.00    -0.033 N
ATOM     42  H53 UNL     1      14.982  50.528   8.238  1.00  0.00     0.278 HD
ATOM     43  H52 UNL     1      14.301  50.752   6.857  1.00  0.00     0.278 HD
ATOM     44  H51 UNL     1      14.093  49.257   7.594  1.00  0.00     0.278 HD
ATOM     45  H63 UNL     1      15.137  49.684   4.811  1.00  0.00     0.278 HD
ATOM     46  H62 UNL     1      16.297  48.681   4.859  1.00  0.00     0.278 HD
ATOM     47  H61 UNL     1      14.861  48.231   5.647  1.00  0.00     0.278 HD
ATOM     48  H4  UNL     1      16.826  51.048   5.528  1.00  0.00     0.165 HD
ENDBRANCH   5  38
TORSDOF 8
ENDMDL