MODEL 2
REMARK VINA RESULT: -9.156479016      2.112      5.337
REMARK  13 active torsions:
REMARK  status: ('A' for Active; 'I' for Inactive)
REMARK    1  A    between atoms: O1_2  and  C2_3
REMARK    2  A    between atoms: C2_3  and  O2_4
REMARK    3  A    between atoms: C2_3  and  C3_6
REMARK    4  A    between atoms: C4_7  and  O3_8
REMARK    5  A    between atoms: C5_10  and  O4_11
REMARK    6  A    between atoms: O4_11  and  C6_12
REMARK    7  A    between atoms: C8_14  and  C9_15
REMARK    8  A    between atoms: C10_19  and  C11_20
REMARK    9  A    between atoms: C12_23  and  O10_24
REMARK   10  A    between atoms: C12_23  and  C13_26
REMARK   11  A    between atoms: C14_29  and  C15_30
REMARK   12  A    between atoms: C17_36  and  O17_37
REMARK   13  A    between atoms: C18_39  and  C19_40
ROOT
HETATM    1  C6  UNL     1     -16.730   8.671  14.712  1.00  0.00     0.191 C
HETATM    2  C7  UNL     1     -16.514   8.183  15.940  1.00  0.00     0.117 C
HETATM    3  C8  UNL     1     -17.674   8.264  16.872  1.00  0.00     0.284 C
HETATM    4  O7  UNL     1     -17.757   9.538  17.338  1.00  0.00    -0.323 OA
HETATM    5  C10 UNL     1     -18.940  10.183  17.249  1.00  0.00     0.278 C
HETATM    6  C12 UNL     1     -19.766   9.870  16.034  1.00  0.00     0.250 C
HETATM    7  C14 UNL     1     -19.130   8.729  15.228  1.00  0.00     0.311 C
HETATM    8  O15 UNL     1     -18.015   9.180  14.502  1.00  0.00    -0.278 OA
HETATM    9  O16 UNL     1     -18.785   7.788  16.212  1.00  0.00    -0.292 OA
ENDROOT
BRANCH   1  10
HETATM   10  O4  UNL     1     -15.744   8.657  13.760  1.00  0.00    -0.285 OA
BRANCH  10  11
HETATM   11  C5  UNL     1     -14.548   9.370  13.889  1.00  0.00     0.115 A
HETATM   12  C4  UNL     1     -14.525  10.601  14.488  1.00  0.00     0.116 A
HETATM   13  C3  UNL     1     -13.320  11.334  14.624  1.00  0.00     0.077 A
HETATM   14  C18 UNL     1     -12.187  10.758  14.131  1.00  0.00     0.091 A
HETATM   15  C17 UNL     1     -12.233   9.477  13.510  1.00  0.00     0.086 A
HETATM   16  C16 UNL     1     -13.407   8.792  13.392  1.00  0.00     0.077 A
BRANCH  12  17
HETATM   17  O3  UNL     1     -15.722  11.141  14.976  1.00  0.00    -0.357 OA
ATOM     18  H3  UNL     1     -16.473  11.217  14.399  1.00  0.00     0.217 HD
ENDBRANCH  12  17
BRANCH  13  19
HETATM   19  C2  UNL     1     -13.413  12.611  15.269  1.00  0.00     0.192 C
BRANCH  19  20
HETATM   20  O1  UNL     1     -13.068  13.870  14.901  1.00  0.00    -0.335 OA
HETATM   21  C1  UNL     1     -13.992  14.940  14.758  1.00  0.00     0.212 C
ENDBRANCH  19  20
BRANCH  19  22
HETATM   22  O2  UNL     1     -13.936  12.605  16.467  1.00  0.00    -0.340 OA
ATOM     23  H2  UNL     1     -14.833  12.916  16.446  1.00  0.00     0.220 HD
ENDBRANCH  19  22
ENDBRANCH  13  19
BRANCH  14  24
HETATM   24  C19 UNL     1     -10.902  11.367  14.191  1.00  0.00     0.213 C
HETATM   25  O18 UNL     1      -9.917  10.661  14.677  1.00  0.00    -0.644 OA
HETATM   26  O19 UNL     1     -10.493  12.598  13.820  1.00  0.00    -0.644 OA
ENDBRANCH  14  24
BRANCH  15  27
HETATM   27  O17 UNL     1     -11.074   8.888  13.006  1.00  0.00    -0.359 OA
ATOM     28  H17 UNL     1     -10.474   9.433  12.509  1.00  0.00     0.217 HD
ENDBRANCH  15  27
ENDBRANCH  10  11
ENDBRANCH   1  10
BRANCH   3  29
HETATM   29  C9  UNL     1     -17.381   7.340  18.001  1.00  0.00     0.243 C
HETATM   30  O5  UNL     1     -16.709   6.309  17.721  1.00  0.00    -0.644 OA
HETATM   31  O6  UNL     1     -17.815   7.585  19.290  1.00  0.00    -0.644 OA
ENDBRANCH   3  29
BRANCH   7  32
HETATM   32  C15 UNL     1     -20.120   8.190  14.283  1.00  0.00     0.243 C
HETATM   33  O13 UNL     1     -20.364   8.753  13.185  1.00  0.00    -0.644 OA
HETATM   34  O14 UNL     1     -20.843   7.024  14.556  1.00  0.00    -0.644 OA
ENDBRANCH   7  32
BRANCH   6  35
HETATM   35  O10 UNL     1     -21.040   9.419  16.379  1.00  0.00    -0.371 OA
ATOM     36  H10 UNL     1     -21.004   8.601  16.861  1.00  0.00     0.211 HD
ENDBRANCH   6  35
BRANCH   6  37
HETATM   37  C13 UNL     1     -19.960  11.065  15.161  1.00  0.00     0.218 C
HETATM   38  O11 UNL     1     -21.084  11.633  15.088  1.00  0.00    -0.645 OA
HETATM   39  O12 UNL     1     -18.940  11.610  14.394  1.00  0.00    -0.645 OA
ENDBRANCH   6  37
BRANCH   5  40
HETATM   40  C11 UNL     1     -18.710  11.643  17.402  1.00  0.00     0.207 C
HETATM   41  O8  UNL     1     -17.605  12.148  17.077  1.00  0.00    -0.646 OA
HETATM   42  O9  UNL     1     -19.662  12.526  17.895  1.00  0.00    -0.646 OA
ENDBRANCH   5  40
TORSDOF 13
ENDMDL