MODEL 4
REMARK VINA RESULT: -8.772200595      1.116      1.770
REMARK  10 active torsions:
REMARK  status: ('A' for Active; 'I' for Inactive)
REMARK    1  A    between atoms: C2_2  and  C3_4
REMARK    2  A    between atoms: C3_4  and  N13_47
REMARK    3  A    between atoms: N1_5  and  N2_7
REMARK       I    between atoms: N2_7  and  C4_9
REMARK       I    between atoms: C4_9  and  N3_11
REMARK    4  A    between atoms: N3_11  and  N4_12
REMARK    5  A    between atoms: N3_11  and  C5_16
REMARK    6  A    between atoms: N4_12  and  O3_14
REMARK    7  A    between atoms: C5_16  and  N5_17
REMARK    8  A    between atoms: N5_17  and  C6_19
REMARK    9  A    between atoms: C6_19  and  C7_20
REMARK   10  A    between atoms: N9_33  and  C14_35
ROOT
HETATM    1  C5  UNL     1     -16.140  10.185  15.352  1.00  0.00     0.164 C
HETATM    2  C9  UNL     1     -15.723  11.150  16.071  1.00  0.00     0.123 C
HETATM    3  N7  UNL     1     -16.172  11.745  17.246  1.00  0.00    -0.339 N
ATOM      4  H7  UNL     1     -16.612  11.121  17.923  1.00  0.00     0.167 HD
HETATM    5  C10 UNL     1     -16.092  13.111  17.620  1.00  0.00     0.117 C
HETATM    6  C11 UNL     1     -16.635  13.554  18.905  1.00  0.00     0.117 C
HETATM    7  N8  UNL     1     -17.070  13.884  19.925  1.00  0.00    -0.190 NA
HETATM    8  C12 UNL     1     -15.551  14.019  16.874  1.00  0.00     0.079 C
HETATM    9  C13 UNL     1     -14.948  13.786  15.569  1.00  0.00     0.095 C
HETATM   10  N9  UNL     1     -14.870  14.615  14.648  1.00  0.00    -0.184 N
ATOM     11  H9  UNL     1     -14.414  14.290  13.794  1.00  0.00     0.185 HD
HETATM   12  S1  UNL     1     -14.281  12.114  15.367  1.00  0.00    -0.050 SA
ENDROOT
BRANCH   1  13
HETATM   13  N3  UNL     1     -17.233   9.313  15.415  1.00  0.00    -0.166 N
HETATM   14  C4  UNL     1     -18.179   8.946  14.450  1.00  0.00     0.363 C
HETATM   15  N2  UNL     1     -19.277   8.099  14.847  1.00  0.00    -0.248 N
HETATM   16  O2  UNL     1     -18.192   9.267  13.252  1.00  0.00    -0.243 OA
ATOM     17  H2  UNL     1     -19.349   7.782  15.813  1.00  0.00     0.192 HD
BRANCH  15  18
HETATM   18  N1  UNL     1     -20.225   7.720  13.928  1.00  0.00    -0.278 N
HETATM   19  C3  UNL     1     -21.331   8.354  13.711  1.00  0.00     0.175 C
ATOM     20  H1  UNL     1     -20.044   6.880  13.379  1.00  0.00     0.189 HD
BRANCH  19  21
HETATM   21  C2  UNL     1     -22.221   7.811  12.700  1.00  0.00     0.191 C
HETATM   22  C1  UNL     1     -23.554   8.439  12.524  1.00  0.00     0.100 C
HETATM   23  O1  UNL     1     -21.873   6.817  11.975  1.00  0.00    -0.290 OA
ENDBRANCH  19  21
BRANCH  19  24
HETATM   24  N13 UNL     1     -21.693   9.528  14.410  1.00  0.00    -0.275 N
HETATM   25  C17 UNL     1     -21.421   9.671  15.776  1.00  0.00     0.183 C
HETATM   26  N14 UNL     1     -21.201   9.799  16.904  1.00  0.00    -0.172 NA
ATOM     27  H13 UNL     1     -22.161  10.284  13.910  1.00  0.00     0.180 HD
ENDBRANCH  19  24
ENDBRANCH  15  18
BRANCH  13  28
HETATM   28  N4  UNL     1     -17.436   8.734  16.729  1.00  0.00    -0.198 N
ATOM     29  H4  UNL     1     -16.879   7.928  17.012  1.00  0.00     0.216 HD
BRANCH  28  30
HETATM   30  O3  UNL     1     -18.275   9.200  17.515  1.00  0.00    -0.274 OA
ATOM     31  H3  UNL     1     -18.095   9.266  18.446  1.00  0.00     0.246 HD
ENDBRANCH  28  30
ENDBRANCH  13  28
ENDBRANCH   1  13
BRANCH   1  32
HETATM   32  N5  UNL     1     -15.288   9.899  14.164  1.00  0.00    -0.367 N
ATOM     33  H5  UNL     1     -15.017  10.656  13.536  1.00  0.00     0.161 HD
BRANCH  32  34
HETATM   34  C6  UNL     1     -14.849   8.561  13.905  1.00  0.00     0.182 C
BRANCH  34  35
HETATM   35  C7  UNL     1     -13.438   8.551  13.483  1.00  0.00     0.074 A
HETATM   36  C8  UNL     1     -12.400   9.439  13.518  1.00  0.00     0.196 A
HETATM   37  O4  UNL     1     -11.593   8.578  12.946  1.00  0.00    -0.248 OA
HETATM   38  N6  UNL     1     -12.574   7.729  12.908  1.00  0.00    -0.262 N
ATOM     39  H6  UNL     1     -12.651   6.773  12.560  1.00  0.00     0.194 HD
ENDBRANCH  34  35
ENDBRANCH  32  34
ENDBRANCH   1  32
BRANCH  10  40
HETATM   40  C14 UNL     1     -15.327  15.940  14.628  1.00  0.00     0.700 A
HETATM   41  N10 UNL     1     -16.572  16.197  14.174  1.00  0.00    -0.129 N
HETATM   42  N11 UNL     1     -17.082  17.406  14.120  1.00  0.00    -0.247 N
ATOM     43  H10 UNL     1     -17.144  15.414  13.858  1.00  0.00     0.205 HD
HETATM   44  C15 UNL     1     -16.357  18.465  14.530  1.00  0.00     0.329 A
ATOM     45  H11 UNL     1     -18.029  17.543  13.768  1.00  0.00     0.191 HD
HETATM   46  O5  UNL     1     -16.862  19.615  14.472  1.00  0.00    -0.261 OA
HETATM   47  C16 UNL     1     -15.077  18.266  15.007  1.00  0.00     0.329 A
HETATM   48  O6  UNL     1     -14.400  19.255  15.388  1.00  0.00    -0.261 OA
HETATM   49  N12 UNL     1     -14.608  16.996  15.036  1.00  0.00    -0.150 N
ATOM     50  H12 UNL     1     -13.664  16.835  15.385  1.00  0.00     0.188 HD
ENDBRANCH  10  40
TORSDOF 10
ENDMDL