MODEL 2
REMARK VINA RESULT: -9.146707530      2.550      3.295
REMARK  12 active torsions:
REMARK  status: ('A' for Active; 'I' for Inactive)
REMARK    1  A    between atoms: N1_1  and  C1_4
REMARK    2  A    between atoms: C2_7  and  C3_8
REMARK    3  A    between atoms: C3_8  and  N3_9
REMARK    4  A    between atoms: C3_8  and  C15_29
REMARK       I    between atoms: N3_9  and  C4_11
REMARK    5  A    between atoms: C4_11  and  C5_13
REMARK    6  A    between atoms: C5_13  and  C6_14
REMARK    7  A    between atoms: C5_13  and  N4_21
REMARK    8  A    between atoms: C8_17  and  O2_18
REMARK       I    between atoms: C15_29  and  N6_31
REMARK    9  A    between atoms: N6_31  and  C16_33
REMARK   10  A    between atoms: C18_38  and  C19_39
REMARK   11  A    between atoms: C19_39  and  O8_40
REMARK   12  A    between atoms: C19_39  and  O9_42
ROOT
HETATM    1  C3  UNL     1     -17.959  11.885  12.917  1.00  0.00     0.227 C
ENDROOT
BRANCH   1   2
HETATM    2  C2  UNL     1     -17.510  13.304  13.231  1.00  0.00     0.050 A
HETATM    3  N2  UNL     1     -17.561  14.266  12.360  1.00  0.00    -0.338 N
HETATM    4  C1  UNL     1     -17.143  15.481  12.723  1.00  0.00     0.142 A
ATOM      5  H2  UNL     1     -17.913  14.098  11.417  1.00  0.00     0.168 HD
HETATM    6  S2  UNL     1     -16.662  15.259  14.344  1.00  0.00    -0.064 SA
HETATM    7  C20 UNL     1     -17.025  13.597  14.482  1.00  0.00     0.081 A
BRANCH   4   8
HETATM    8  N1  UNL     1     -17.103  16.593  12.041  1.00  0.00    -0.380 N
ATOM      9  H12 UNL     1     -17.542  17.479  12.291  1.00  0.00     0.158 HD
ATOM     10  H11 UNL     1     -16.650  16.800  11.151  1.00  0.00     0.158 HD
ENDBRANCH   4   8
ENDBRANCH   1   2
BRANCH   1  11
HETATM   11  N3  UNL     1     -17.209  10.944  13.736  1.00  0.00    -0.341 N
HETATM   12  C4  UNL     1     -16.889   9.648  13.308  1.00  0.00     0.246 C
HETATM   13  O1  UNL     1     -17.277   9.313  12.150  1.00  0.00    -0.271 OA
ATOM     14  H3  UNL     1     -16.902  11.241  14.663  1.00  0.00     0.163 HD
BRANCH  12  15
HETATM   15  C5  UNL     1     -16.125   8.666  14.138  1.00  0.00     0.218 C
BRANCH  15  16
HETATM   16  C6  UNL     1     -16.600   8.758  15.544  1.00  0.00    -0.016 A
HETATM   17  C7  UNL     1     -16.912   9.959  16.117  1.00  0.00     0.062 A
HETATM   18  S1  UNL     1     -17.412   9.537  17.687  1.00  0.00    -0.077 SA
HETATM   19  C8  UNL     1     -17.218   7.851  17.594  1.00  0.00     0.107 A
HETATM   20  C9  UNL     1     -16.762   7.653  16.325  1.00  0.00     0.054 A
BRANCH  19  21
HETATM   21  O2  UNL     1     -17.462   6.867  18.579  1.00  0.00    -0.354 OA
ATOM     22  H2  UNL     1     -18.180   6.248  18.645  1.00  0.00     0.218 HD
ENDBRANCH  19  21
ENDBRANCH  15  16
BRANCH  15  23
HETATM   23  N4  UNL     1     -14.739   8.893  13.915  1.00  0.00    -0.305 N
HETATM   24  C10 UNL     1     -14.099   7.852  13.274  1.00  0.00     0.096 A
HETATM   25  C11 UNL     1     -12.777   7.907  12.986  1.00  0.00     0.019 A
HETATM   26  C12 UNL     1     -12.037   9.009  13.328  1.00  0.00     0.034 A
HETATM   27  C13 UNL     1     -12.647  10.055  13.964  1.00  0.00     0.114 A
HETATM   28  N5  UNL     1     -11.986  11.238  14.363  1.00  0.00    -0.097 NA
HETATM   29  C14 UNL     1     -14.006   9.948  14.236  1.00  0.00     0.272 A
HETATM   30  O3  UNL     1     -14.566  10.912  14.821  1.00  0.00    -0.266 OA
ENDBRANCH  15  23
ENDBRANCH  12  15
ENDBRANCH   1  11
BRANCH   1  31
HETATM   31  C15 UNL     1     -19.376  11.796  13.262  1.00  0.00     0.248 C
HETATM   32  O4  UNL     1     -20.129  12.827  13.185  1.00  0.00    -0.271 OA
HETATM   33  N6  UNL     1     -20.013  10.588  13.700  1.00  0.00    -0.329 N
ATOM     34  H6  UNL     1     -19.454   9.738  13.777  1.00  0.00     0.165 HD
BRANCH  33  35
HETATM   35  C16 UNL     1     -21.395  10.529  14.031  1.00  0.00     0.280 C
HETATM   36  O5  UNL     1     -21.662   9.630  15.083  1.00  0.00    -0.205 OA
HETATM   37  O6  UNL     1     -22.996   9.464  15.050  1.00  0.00    -0.156 OA
HETATM   38  C17 UNL     1     -23.349   9.329  13.715  1.00  0.00     0.302 C
HETATM   39  O7  UNL     1     -24.401   8.794  13.315  1.00  0.00    -0.262 OA
HETATM   40  C18 UNL     1     -22.236   9.939  12.949  1.00  0.00     0.194 C
BRANCH  40  41
HETATM   41  C19 UNL     1     -22.664  10.952  11.942  1.00  0.00     0.271 C
BRANCH  41  42
HETATM   42  O8  UNL     1     -21.636  11.061  11.000  1.00  0.00    -0.370 OA
ATOM     43  H8  UNL     1     -22.043  11.154  10.147  1.00  0.00     0.212 HD
ENDBRANCH  41  42
BRANCH  41  44
HETATM   44  O9  UNL     1     -23.872  10.721  11.336  1.00  0.00    -0.370 OA
ATOM     45  H9  UNL     1     -23.850  10.621  10.392  1.00  0.00     0.212 HD
ENDBRANCH  41  44
ENDBRANCH  40  41
ENDBRANCH  33  35
ENDBRANCH   1  31
TORSDOF 12
ENDMDL