MODEL 3
REMARK VINA RESULT: -10.876021213      1.001      1.001
REMARK  9 active torsions:
REMARK  status: ('A' for Active; 'I' for Inactive)
REMARK    1  A    between atoms: C2_7  and  C3_8
REMARK       I    between atoms: C3_8  and  N3_10
REMARK    2  A    between atoms: N3_10  and  N4_12
REMARK    3  A    between atoms: C4_13  and  C5_14
REMARK    4  A    between atoms: N5_15  and  N6_17
REMARK    5  A    between atoms: C7_19  and  C8_20
REMARK    6  A    between atoms: C14_26  and  N7_27
REMARK    7  A    between atoms: C16_36  and  O4_37
REMARK    8  A    between atoms: N10_39  and  C17_40
REMARK    9  A    between atoms: C17_40  and  C18_41
ROOT
HETATM    1  N4  UNL     1     -19.303  10.758  16.675  1.00  0.00    -0.197 N
HETATM    2  C4  UNL     1     -18.363  11.640  16.979  1.00  0.00     0.129 A
HETATM    3  C16 UNL     1     -18.960  12.568  17.856  1.00  0.00     0.177 A
HETATM    4  N10 UNL     1     -20.232  12.250  18.069  1.00  0.00    -0.268 N
HETATM    5  C19 UNL     1     -20.456  11.149  17.353  1.00  0.00     0.350 A
HETATM    6  O6  UNL     1     -21.575  10.565  17.319  1.00  0.00    -0.244 OA
ENDROOT
BRANCH   2   7
HETATM    7  C5  UNL     1     -16.996  11.784  16.518  1.00  0.00     0.144 C
HETATM    8  N5  UNL     1     -16.474  12.960  16.336  1.00  0.00    -0.289 N
ATOM      9  H5  UNL     1     -17.029  13.797  16.519  1.00  0.00     0.187 HD
BRANCH   8  10
HETATM   10  N6  UNL     1     -15.144  13.081  15.888  1.00  0.00    -0.097 N
HETATM   11  C6  UNL     1     -14.534  12.017  15.398  1.00  0.00     0.151 A
HETATM   12  C7  UNL     1     -13.205  12.093  14.937  1.00  0.00     0.043 A
HETATM   13  C14 UNL     1     -12.514  13.276  14.989  1.00  0.00     0.201 A
HETATM   14  N8  UNL     1     -13.210  14.344  15.511  1.00  0.00    -0.168 N
HETATM   15  C15 UNL     1     -14.471  14.236  15.937  1.00  0.00     0.698 A
ATOM     16  H8  UNL     1     -12.746  15.250  15.573  1.00  0.00     0.186 HD
HETATM   17  N9  UNL     1     -15.076  15.289  16.421  1.00  0.00    -0.233 N
ATOM     18  H92 UNL     1     -16.039  15.206  16.747  1.00  0.00     0.174 HD
ATOM     19  H91 UNL     1     -14.562  16.170  16.458  1.00  0.00     0.174 HD
BRANCH  12  20
HETATM   20  C8  UNL     1     -12.596  10.899  14.352  1.00  0.00    -0.021 A
HETATM   21  C9  UNL     1     -11.237  10.768  14.188  1.00  0.00     0.012 A
HETATM   22  C10 UNL     1     -10.687   9.631  13.633  1.00  0.00     0.001 A
HETATM   23  C11 UNL     1     -11.523   8.611  13.236  1.00  0.00     0.000 A
HETATM   24  C12 UNL     1     -12.890   8.710  13.386  1.00  0.00     0.001 A
HETATM   25  C13 UNL     1     -13.405   9.861  13.945  1.00  0.00     0.012 A
ENDBRANCH  12  20
BRANCH  13  26
HETATM   26  N7  UNL     1     -11.183  13.455  14.572  1.00  0.00    -0.096 N
HETATM   27  O2  UNL     1     -11.022  14.109  13.496  1.00  0.00    -0.530 OA
HETATM   28  O3  UNL     1     -10.044  13.021  15.165  1.00  0.00    -0.530 OA
ENDBRANCH  13  26
ENDBRANCH   8  10
ENDBRANCH   2   7
BRANCH   1  29
HETATM   29  N3  UNL     1     -19.301   9.555  16.002  1.00  0.00    -0.253 N
HETATM   30  C3  UNL     1     -19.110   9.220  14.674  1.00  0.00     0.287 C
HETATM   31  O1  UNL     1     -18.848  10.045  13.751  1.00  0.00    -0.264 OA
ATOM     32  H3  UNL     1     -19.475   8.751  16.604  1.00  0.00     0.191 HD
BRANCH  30  33
HETATM   33  C2  UNL     1     -19.194   7.833  14.187  1.00  0.00     0.123 A
HETATM   34  N2  UNL     1     -20.334   7.255  13.829  1.00  0.00    -0.186 N
HETATM   35  C1  UNL     1     -20.400   5.959  13.375  1.00  0.00     0.679 A
ATOM     36  H2  UNL     1     -21.197   7.795  13.893  1.00  0.00     0.184 HD
HETATM   37  N1  UNL     1     -21.535   5.448  13.041  1.00  0.00    -0.234 N
HETATM   38  N12 UNL     1     -19.286   5.223  13.280  1.00  0.00    -0.156 N
ATOM     39  H12 UNL     1     -22.383   6.008  13.113  1.00  0.00     0.174 HD
ATOM     40  H11 UNL     1     -21.584   4.486  12.704  1.00  0.00     0.174 HD
HETATM   41  C21 UNL     1     -18.101   5.746  13.625  1.00  0.00     0.261 A
ATOM     42  H12 UNL     1     -19.339   4.262  12.944  1.00  0.00     0.187 HD
HETATM   43  C20 UNL     1     -18.050   7.039  14.076  1.00  0.00     0.110 A
HETATM   44  O7  UNL     1     -17.037   5.063  13.541  1.00  0.00    -0.268 OA
ENDBRANCH  30  33
ENDBRANCH   1  29
BRANCH   3  45
HETATM   45  O4  UNL     1     -18.324  13.675  18.436  1.00  0.00    -0.344 OA
ATOM     46  H4  UNL     1     -17.644  13.641  19.098  1.00  0.00     0.219 HD
ENDBRANCH   3  45
BRANCH   4  47
HETATM   47  C17 UNL     1     -21.203  12.959  18.919  1.00  0.00     0.235 C
BRANCH  47  48
HETATM   48  C18 UNL     1     -21.543  14.244  18.297  1.00  0.00     0.249 C
HETATM   49  N11 UNL     1     -20.961  15.467  18.734  1.00  0.00    -0.061 NA
HETATM   50  O5  UNL     1     -22.375  14.256  17.351  1.00  0.00    -0.275 OA
ENDBRANCH  47  48
ENDBRANCH   4  47
TORSDOF 9
ENDMDL