MODEL 2
REMARK VINA RESULT: -9.219928289      2.677      9.552
REMARK  13 active torsions:
REMARK  status: ('A' for Active; 'I' for Inactive)
REMARK       I    between atoms: C2_2  and  N1_4
REMARK    1  A    between atoms: N1_4  and  O2_5
REMARK    2  A    between atoms: N1_4  and  C3_7
REMARK    3  A    between atoms: C3_7  and  C5_9
REMARK    4  A    between atoms: C5_9  and  C7_11
REMARK       I    between atoms: C7_11  and  N2_13
REMARK    5  A    between atoms: N2_13  and  N3_15
REMARK       I    between atoms: N3_15  and  C8_17
REMARK    6  A    between atoms: C8_17  and  C9_19
REMARK    7  A    between atoms: N4_21  and  C11_22
REMARK    8  A    between atoms: C11_22  and  C12_23
REMARK    9  A    between atoms: C12_23  and  O5_24
REMARK   10  A    between atoms: C12_23  and  C13_26
REMARK   11  A    between atoms: C16_29  and  O6_30
REMARK   12  A    between atoms: C18_34  and  C19_35
REMARK   13  A    between atoms: C21_37  and  C22_38
ROOT
HETATM    1  C9  UNL     1     -11.789  10.434  13.894  1.00  0.00     0.136 A
HETATM    2  C10 UNL     1     -13.056   9.927  13.883  1.00  0.00     0.148 A
HETATM    3  N4  UNL     1     -13.044   8.645  13.416  1.00  0.00    -0.284 N
HETATM    4  N8  UNL     1     -11.759   8.401  13.151  1.00  0.00    -0.240 N
ATOM      5  H8  UNL     1     -11.407   7.518  12.782  1.00  0.00     0.208 HD
HETATM    6  N9  UNL     1     -11.004   9.446  13.428  1.00  0.00    -0.280 N
ATOM      7  H9  UNL     1      -9.992   9.497  13.308  1.00  0.00     0.189 HD
ENDROOT
BRANCH   3   8
HETATM    8  C11 UNL     1     -14.170   7.757  13.252  1.00  0.00     0.184 C
BRANCH   8   9
HETATM    9  C12 UNL     1     -15.443   8.564  13.184  1.00  0.00     0.177 C
BRANCH   9  10
HETATM   10  O5  UNL     1     -16.009   8.261  11.929  1.00  0.00    -0.390 OA
ATOM     11  H5  UNL     1     -16.844   7.853  12.124  1.00  0.00     0.210 HD
ENDBRANCH   9  10
BRANCH   9  12
HETATM   12  C13 UNL     1     -16.389   8.170  14.216  1.00  0.00     0.121 C
HETATM   13  C14 UNL     1     -17.842   7.969  13.827  1.00  0.00     0.051 C
HETATM   14  C15 UNL     1     -18.338   7.488  15.208  1.00  0.00     0.077 C
HETATM   15  C16 UNL     1     -16.984   7.656  15.931  1.00  0.00     0.191 C
HETATM   16  O7  UNL     1     -16.070   7.071  15.025  1.00  0.00    -0.333 OA
HETATM   17  C17 UNL     1     -16.528   8.949  15.466  1.00  0.00     0.021 C
HETATM   18  C18 UNL     1     -16.304  10.203  15.739  1.00  0.00     0.043 C
BRANCH  15  19
HETATM   19  O6  UNL     1     -16.933   7.252  17.199  1.00  0.00    -0.362 OA
ATOM     20  H6  UNL     1     -16.150   7.481  17.686  1.00  0.00     0.213 HD
ENDBRANCH  15  19
BRANCH  18  21
HETATM   21  C19 UNL     1     -16.531  10.714  17.088  1.00  0.00     0.058 A
HETATM   22  C20 UNL     1     -15.846  11.709  17.738  1.00  0.00     0.074 A
HETATM   23  C21 UNL     1     -16.406  11.803  19.012  1.00  0.00     0.141 A
HETATM   24  O8  UNL     1     -17.346  10.914  19.071  1.00  0.00    -0.234 OA
HETATM   25  N7  UNL     1     -17.455  10.255  17.969  1.00  0.00    -0.261 N
ATOM     26  H7  UNL     1     -18.127   9.510  17.789  1.00  0.00     0.195 HD
BRANCH  23  27
HETATM   27  C22 UNL     1     -15.987  12.736  20.058  1.00  0.00     0.146 C
HETATM   28  N5  UNL     1     -14.843  12.588  20.594  1.00  0.00    -0.385 N
ATOM     29  H52 UNL     1     -14.222  11.833  20.304  1.00  0.00     0.157 HD
ATOM     30  H51 UNL     1     -14.551  13.238  21.324  1.00  0.00     0.157 HD
HETATM   31  N6  UNL     1     -16.852  13.785  20.462  1.00  0.00    -0.080 NA
ENDBRANCH  23  27
ENDBRANCH  18  21
ENDBRANCH   9  12
ENDBRANCH   8   9
ENDBRANCH   3   8
BRANCH   1  32
HETATM   32  C8  UNL     1     -11.350  11.750  14.332  1.00  0.00     0.289 C
HETATM   33  N3  UNL     1     -10.105  12.267  13.918  1.00  0.00    -0.262 N
ATOM     34  H3  UNL     1      -9.503  11.711  13.311  1.00  0.00     0.190 HD
HETATM   35  O4  UNL     1     -12.090  12.420  15.080  1.00  0.00    -0.264 OA
BRANCH  33  36
HETATM   36  N2  UNL     1      -9.691  13.530  14.332  1.00  0.00    -0.267 N
HETATM   37  C7  UNL     1      -9.482  14.545  13.369  1.00  0.00     0.241 C
HETATM   38  O3  UNL     1      -9.664  14.317  12.157  1.00  0.00    -0.271 OA
ATOM     39  H2  UNL     1      -9.539  13.723  15.323  1.00  0.00     0.190 HD
BRANCH  37  40
HETATM   40  C5  UNL     1      -9.046  15.883  13.811  1.00  0.00     0.100 C
HETATM   41  C6  UNL     1      -7.533  15.934  13.566  1.00  0.00     0.022 C
BRANCH  40  42
HETATM   42  C3  UNL     1      -9.739  17.025  13.134  1.00  0.00     0.126 C
HETATM   43  C4  UNL     1      -8.936  18.309  13.443  1.00  0.00     0.036 C
BRANCH  42  44
HETATM   44  N1  UNL     1     -11.052  17.275  13.665  1.00  0.00    -0.224 N
HETATM   45  C2  UNL     1     -12.202  16.924  12.943  1.00  0.00     0.239 C
HETATM   46  C1  UNL     1     -13.557  17.173  13.548  1.00  0.00     0.119 C
HETATM   47  O1  UNL     1     -12.135  16.413  11.819  1.00  0.00    -0.272 OA
BRANCH  44  48
HETATM   48  O2  UNL     1     -11.167  17.843  14.878  1.00  0.00    -0.284 OA
ATOM     49  H2  UNL     1     -10.636  17.531  15.602  1.00  0.00     0.245 HD
ENDBRANCH  44  48
ENDBRANCH  42  44
ENDBRANCH  40  42
ENDBRANCH  37  40
ENDBRANCH  33  36
ENDBRANCH   1  32
TORSDOF 13
ENDMDL