MODEL 1
REMARK VINA RESULT: -7.646925527      0.000      0.000
REMARK  16 active torsions:
REMARK  status: ('A' for Active; 'I' for Inactive)
REMARK    1  A    between atoms: O1_2  and  C2_3
REMARK    2  A    between atoms: C2_3  and  C3_5
REMARK    3  A    between atoms: C3_5  and  N1_6
REMARK    4  A    between atoms: C3_5  and  C4_10
REMARK    5  A    between atoms: C4_10  and  S1_11
REMARK    6  A    between atoms: S1_11  and  S2_12
REMARK    7  A    between atoms: S2_12  and  C5_13
REMARK    8  A    between atoms: C5_13  and  C6_14
REMARK    9  A    between atoms: C6_14  and  C8_17
REMARK   10  A    between atoms: C8_17  and  O4_19
REMARK   11  A    between atoms: O4_19  and  C9_20
REMARK   12  A    between atoms: C9_20  and  C10_21
REMARK   13  A    between atoms: C9_20  and  C11_24
REMARK   14  A    between atoms: C12_28  and  N4_29
REMARK   15  A    between atoms: C12_28  and  C13_33
REMARK   16  A    between atoms: C19_42  and  O10_43
ROOT
HETATM    1  C9  UNL     1     -18.639   8.108  14.828  1.00  0.00     0.269 C
ENDROOT
BRANCH   1   2
HETATM    2  O4  UNL     1     -18.122   8.570  13.595  1.00  0.00    -0.298 OA
BRANCH   2   3
HETATM    3  C8  UNL     1     -16.932   8.216  13.063  1.00  0.00     0.303 C
HETATM    4  O3  UNL     1     -16.873   7.362  12.152  1.00  0.00    -0.258 OA
BRANCH   3   5
HETATM    5  C6  UNL     1     -15.641   8.808  13.514  1.00  0.00     0.105 C
HETATM    6  C7  UNL     1     -14.503   8.236  13.175  1.00  0.00     0.126 C
HETATM    7  N2  UNL     1     -13.280   8.787  13.592  1.00  0.00    -0.113 NA
BRANCH   5   8
HETATM    8  C5  UNL     1     -15.618   9.976  14.299  1.00  0.00    -0.054 C
BRANCH   8   9
HETATM    9  S2  UNL     1     -15.632  11.165  15.070  1.00  0.00    -0.013 SA
BRANCH   9  10
HETATM   10  S1  UNL     1     -15.628  12.935  16.118  1.00  0.00    -0.082 SA
BRANCH  10  11
HETATM   11  C4  UNL     1     -16.888  12.779  17.454  1.00  0.00     0.130 C
BRANCH  11  12
HETATM   12  C3  UNL     1     -16.333  11.795  18.449  1.00  0.00     0.292 C
BRANCH  12  13
HETATM   13  C2  UNL     1     -17.372  11.041  19.178  1.00  0.00     0.290 C
HETATM   14  O2  UNL     1     -17.961  11.534  20.195  1.00  0.00    -0.263 OA
BRANCH  13  15
HETATM   15  O1  UNL     1     -17.720   9.771  18.754  1.00  0.00    -0.325 OA
HETATM   16  C1  UNL     1     -16.892   8.968  17.961  1.00  0.00     0.213 C
ENDBRANCH  13  15
ENDBRANCH  12  13
BRANCH  12  17
HETATM   17  N1  UNL     1     -15.388  12.386  19.351  1.00  0.00    -0.065 N
ATOM     18  H13 UNL     1     -15.133  13.330  19.060  1.00  0.00     0.275 HD
ATOM     19  H12 UNL     1     -15.816  12.607  20.249  1.00  0.00     0.275 HD
ATOM     20  H11 UNL     1     -14.564  11.794  19.465  1.00  0.00     0.275 HD
ENDBRANCH  12  17
ENDBRANCH  11  12
ENDBRANCH  10  11
ENDBRANCH   9  10
ENDBRANCH   8   9
ENDBRANCH   5   8
ENDBRANCH   3   5
ENDBRANCH   2   3
ENDBRANCH   1   2
BRANCH   1  21
HETATM   21  C10 UNL     1     -18.278   6.687  14.988  1.00  0.00     0.206 C
HETATM   22  O5  UNL     1     -19.011   5.748  14.534  1.00  0.00    -0.646 OA
HETATM   23  O6  UNL     1     -17.129   6.338  15.638  1.00  0.00    -0.646 OA
ENDBRANCH   1  21
BRANCH   1  24
HETATM   24  C11 UNL     1     -20.102   8.319  15.001  1.00  0.00     0.291 C
HETATM   25  N3  UNL     1     -20.686   8.300  13.651  1.00  0.00    -0.018 N
HETATM   26  C12 UNL     1     -22.072   7.891  13.827  1.00  0.00     0.371 C
ATOM     27  H32 UNL     1     -20.580   9.181  13.148  1.00  0.00     0.281 HD
ATOM     28  H31 UNL     1     -20.169   7.720  12.991  1.00  0.00     0.281 HD
HETATM   29  C14 UNL     1     -22.687   8.479  15.052  1.00  0.00     0.091 C
HETATM   30  C15 UNL     1     -22.014   9.687  15.591  1.00  0.00     0.057 C
HETATM   31  C16 UNL     1     -22.259  10.936  14.781  1.00  0.00     0.042 C
HETATM   32  C19 UNL     1     -20.509   9.601  15.637  1.00  0.00     0.198 C
HETATM   33  C17 UNL     1     -20.970  11.709  15.044  1.00  0.00     0.121 C
HETATM   34  C18 UNL     1     -21.079  12.395  16.377  1.00  0.00     0.040 C
HETATM   35  O9  UNL     1     -19.999  10.726  15.025  1.00  0.00    -0.348 OA
BRANCH  26  36
HETATM   36  N4  UNL     1     -22.048   6.430  14.003  1.00  0.00    -0.034 N
ATOM     37  H43 UNL     1     -22.667   5.934  13.362  1.00  0.00     0.278 HD
ATOM     38  H42 UNL     1     -21.177   5.998  13.694  1.00  0.00     0.278 HD
ATOM     39  H41 UNL     1     -22.261   6.260  14.986  1.00  0.00     0.278 HD
ENDBRANCH  26  36
BRANCH  26  40
HETATM   40  C13 UNL     1     -22.800   8.193  12.588  1.00  0.00     0.240 C
HETATM   41  O7  UNL     1     -22.312   7.996  11.434  1.00  0.00    -0.645 OA
HETATM   42  O8  UNL     1     -24.081   8.718  12.628  1.00  0.00    -0.645 OA
ENDBRANCH  26  40
BRANCH  32  43
HETATM   43  O10 UNL     1     -20.092   9.645  16.979  1.00  0.00    -0.363 OA
ATOM     44  H10 UNL     1     -19.159   9.811  17.036  1.00  0.00     0.213 HD
ENDBRANCH  32  43
ENDBRANCH   1  24
TORSDOF 16
ENDMDL