MODEL 2
REMARK VINA RESULT: -7.019165125      2.842      7.187
REMARK  18 active torsions:
REMARK  status: ('A' for Active; 'I' for Inactive)
REMARK    1  A    between atoms: O1_2  and  C2_3
REMARK    2  A    between atoms: C2_3  and  C3_5
REMARK    3  A    between atoms: C4_6  and  O3_7
REMARK    4  A    between atoms: O3_7  and  C5_8
REMARK    5  A    between atoms: C6_9  and  N1_10
REMARK    6  A    between atoms: C8_15  and  N2_16
REMARK    7  A    between atoms: C9_20  and  O4_21
REMARK    8  A    between atoms: O4_21  and  C10_22
REMARK    9  A    between atoms: C11_24  and  C12_25
REMARK   10  A    between atoms: C12_25  and  N3_26
REMARK   11  A    between atoms: N3_26  and  N4_28
REMARK   12  A    between atoms: N4_28  and  N5_29
REMARK   13  A    between atoms: C15_34  and  N6_35
REMARK   14  A    between atoms: C16_39  and  O6_40
REMARK   15  A    between atoms: C17_43  and  C18_44
REMARK   16  A    between atoms: C18_44  and  O8_45
REMARK   17  A    between atoms: C19_47  and  O9_49
REMARK   18  A    between atoms: C21_51  and  C22_52
ROOT
HETATM    1  C5  UNL     1     -18.659  10.807  15.990  1.00  0.00     0.186 C
HETATM    2  C6  UNL     1     -18.357  10.331  17.370  1.00  0.00     0.217 C
HETATM    3  C7  UNL     1     -16.954   9.829  17.441  1.00  0.00     0.071 C
HETATM    4  C8  UNL     1     -15.982  10.948  17.174  1.00  0.00     0.217 C
HETATM    5  C9  UNL     1     -16.545  12.116  16.439  1.00  0.00     0.186 C
HETATM    6  C16 UNL     1     -17.616  11.741  15.438  1.00  0.00     0.180 C
ENDROOT
BRANCH   1   7
HETATM    7  O3  UNL     1     -18.698   9.713  15.122  1.00  0.00    -0.350 OA
BRANCH   7   8
HETATM    8  C4  UNL     1     -19.952   9.563  14.541  1.00  0.00     0.275 C
HETATM    9  C3  UNL     1     -20.390   8.159  14.575  1.00  0.00     0.152 C
HETATM   10  C21 UNL     1     -21.164   7.870  13.303  1.00  0.00     0.078 C
HETATM   11  C19 UNL     1     -21.922   9.089  12.822  1.00  0.00     0.091 C
HETATM   12  C17 UNL     1     -21.026  10.266  12.619  1.00  0.00     0.182 C
HETATM   13  C20 UNL     1     -23.141   9.347  13.647  1.00  0.00     0.049 C
HETATM   14  O7  UNL     1     -19.814  10.076  13.247  1.00  0.00    -0.350 OA
BRANCH   9  15
HETATM   15  C2  UNL     1     -19.305   7.143  14.643  1.00  0.00     0.268 C
HETATM   16  O2  UNL     1     -18.992   6.583  15.747  1.00  0.00    -0.265 OA
BRANCH  15  17
HETATM   17  O1  UNL     1     -18.564   6.729  13.548  1.00  0.00    -0.326 OA
HETATM   18  C1  UNL     1     -17.947   5.470  13.435  1.00  0.00     0.213 C
ENDBRANCH  15  17
ENDBRANCH   9  15
BRANCH  10  19
HETATM   19  C22 UNL     1     -21.990   6.666  13.428  1.00  0.00     0.061 C
HETATM   20  N7  UNL     1     -21.645   5.472  13.111  1.00  0.00    -0.411 N
ATOM     21  H72 UNL     1     -20.702   5.369  12.738  1.00  0.00     0.155 HD
ATOM     22  H71 UNL     1     -22.220   4.635  13.197  1.00  0.00     0.155 HD
ENDBRANCH  10  19
BRANCH  11  23
HETATM   23  O9  UNL     1     -22.391   8.706  11.534  1.00  0.00    -0.387 OA
ATOM     24  H9  UNL     1     -22.426   7.757  11.528  1.00  0.00     0.210 HD
ENDBRANCH  11  23
BRANCH  12  25
HETATM   25  C18 UNL     1     -21.618  11.587  13.018  1.00  0.00     0.199 C
BRANCH  25  26
HETATM   26  O8  UNL     1     -22.173  12.251  11.902  1.00  0.00    -0.398 OA
ATOM     27  H8  UNL     1     -22.817  12.895  12.174  1.00  0.00     0.209 HD
ENDBRANCH  25  26
ENDBRANCH  12  25
ENDBRANCH   7   8
ENDBRANCH   1   7
BRANCH   2  28
HETATM   28  N1  UNL     1     -18.657  11.380  18.327  1.00  0.00    -0.072 N
ATOM     29  H13 UNL     1     -18.198  12.259  18.090  1.00  0.00     0.274 HD
ATOM     30  H12 UNL     1     -19.624  11.696  18.259  1.00  0.00     0.274 HD
ATOM     31  H11 UNL     1     -18.421  11.065  19.268  1.00  0.00     0.274 HD
ENDBRANCH   2  28
BRANCH   6  32
HETATM   32  O6  UNL     1     -17.008  11.239  14.280  1.00  0.00    -0.390 OA
ATOM     33  H6  UNL     1     -16.260  10.686  14.474  1.00  0.00     0.210 HD
ENDBRANCH   6  32
BRANCH   5  34
HETATM   34  O4  UNL     1     -15.561  12.782  15.679  1.00  0.00    -0.349 OA
BRANCH  34  35
HETATM   35  C10 UNL     1     -14.368  12.105  15.638  1.00  0.00     0.291 C
HETATM   36  O5  UNL     1     -14.349  11.374  14.447  1.00  0.00    -0.352 OA
HETATM   37  C11 UNL     1     -13.310  10.448  14.553  1.00  0.00     0.145 C
HETATM   38  C13 UNL     1     -12.015  11.200  14.368  1.00  0.00     0.036 C
HETATM   39  C14 UNL     1     -11.918  12.238  15.471  1.00  0.00     0.040 C
HETATM   40  C15 UNL     1     -13.191  13.056  15.569  1.00  0.00     0.238 C
BRANCH  37  41
HETATM   41  C12 UNL     1     -13.456   9.334  13.533  1.00  0.00     0.187 C
BRANCH  41  42
HETATM   42  N3  UNL     1     -14.592   8.505  13.878  1.00  0.00    -0.250 N
ATOM     43  H3  UNL     1     -14.493   7.811  14.620  1.00  0.00     0.197 HD
BRANCH  42  44
HETATM   44  N4  UNL     1     -15.684   8.614  13.298  1.00  0.00    -0.248 NA
BRANCH  44  45
HETATM   45  N5  UNL     1     -16.771   8.882  12.781  1.00  0.00    -0.261 N
ATOM     46  H52 UNL     1     -16.298   8.739  11.888  1.00  0.00     0.193 HD
ATOM     47  H51 UNL     1     -17.718   9.119  12.485  1.00  0.00     0.193 HD
ENDBRANCH  44  45
ENDBRANCH  42  44
ENDBRANCH  41  42
ENDBRANCH  37  41
BRANCH  40  48
HETATM   48  N6  UNL     1     -13.291  13.963  14.466  1.00  0.00    -0.070 N
ATOM     49  H63 UNL     1     -12.434  14.506  14.357  1.00  0.00     0.274 HD
ATOM     50  H62 UNL     1     -13.281  13.464  13.577  1.00  0.00     0.274 HD
ATOM     51  H61 UNL     1     -14.107  14.572  14.539  1.00  0.00     0.274 HD
ENDBRANCH  40  48
ENDBRANCH  34  35
ENDBRANCH   5  34
BRANCH   4  52
HETATM   52  N2  UNL     1     -15.336  11.301  18.408  1.00  0.00    -0.072 N
ATOM     53  H23 UNL     1     -16.002  11.549  19.141  1.00  0.00     0.274 HD
ATOM     54  H22 UNL     1     -14.911  10.497  18.871  1.00  0.00     0.274 HD
ATOM     55  H21 UNL     1     -14.663  12.045  18.225  1.00  0.00     0.274 HD
ENDBRANCH   4  52
TORSDOF 18
ENDMDL