MODEL 4
REMARK VINA RESULT: -7.914116069      1.712      2.776
REMARK  15 active torsions:
REMARK  status: ('A' for Active; 'I' for Inactive)
REMARK    1  A    between atoms: O1_2  and  C2_3
REMARK    2  A    between atoms: C2_3  and  O3_5
REMARK    3  A    between atoms: O3_5  and  C3_6
REMARK    4  A    between atoms: C5_8  and  N1_9
REMARK    5  A    between atoms: C5_8  and  C6_13
REMARK    6  A    between atoms: C6_13  and  N2_14
REMARK    7  A    between atoms: N2_14  and  N3_15
REMARK    8  A    between atoms: C7_18  and  O4_19
REMARK    9  A    between atoms: C8_23  and  O5_24
REMARK   10  A    between atoms: O5_24  and  C9_25
REMARK   11  A    between atoms: C10_26  and  N5_27
REMARK   12  A    between atoms: N5_27  and  C11_30
REMARK   13  A    between atoms: C15_34  and  N6_35
REMARK   14  A    between atoms: C19_42  and  O6_43
REMARK   15  A    between atoms: O6_43  and  C20_44
ROOT
HETATM    1  C9  UNL     1     -18.388   8.339  15.303  1.00  0.00     0.184 C
HETATM    2  C10 UNL     1     -18.572   6.866  15.046  1.00  0.00     0.240 C
HETATM    3  C16 UNL     1     -17.720   6.615  13.862  1.00  0.00     0.013 C
HETATM    4  C17 UNL     1     -16.767   7.522  13.835  1.00  0.00    -0.053 C
HETATM    5  C18 UNL     1     -15.632   7.796  12.926  1.00  0.00     0.098 C
HETATM    6  C19 UNL     1     -14.677   8.675  13.735  1.00  0.00     0.291 C
HETATM    7  O8  UNL     1     -15.275   9.833  14.151  1.00  0.00    -0.253 OA
HETATM    8  N7  UNL     1     -16.566   9.773  14.450  1.00  0.00    -0.086 NA
HETATM    9  C23 UNL     1     -16.905   8.471  14.991  1.00  0.00     0.167 C
ENDROOT
BRANCH   1  10
HETATM   10  O5  UNL     1     -18.696   8.754  16.574  1.00  0.00    -0.355 OA
BRANCH  10  11
HETATM   11  C8  UNL     1     -18.094   9.922  16.965  1.00  0.00     0.249 C
HETATM   12  C3  UNL     1     -18.878  11.172  16.643  1.00  0.00     0.185 C
HETATM   13  C4  UNL     1     -18.120  12.416  17.043  1.00  0.00     0.081 C
HETATM   14  C5  UNL     1     -17.047  12.153  18.043  1.00  0.00     0.183 C
HETATM   15  C7  UNL     1     -17.359  11.032  18.989  1.00  0.00     0.253 C
HETATM   16  N4  UNL     1     -17.863   9.841  18.395  1.00  0.00    -0.367 N
ATOM     17  H4  UNL     1     -18.048   8.995  18.934  1.00  0.00     0.158 HD
BRANCH  12  18
HETATM   18  O3  UNL     1     -20.177  11.145  17.188  1.00  0.00    -0.288 OA
BRANCH  18  19
HETATM   19  C2  UNL     1     -20.874  12.289  17.483  1.00  0.00     0.406 C
HETATM   20  O2  UNL     1     -21.572  12.780  16.553  1.00  0.00    -0.229 OA
BRANCH  19  21
HETATM   21  O1  UNL     1     -20.877  12.937  18.687  1.00  0.00    -0.303 OA
HETATM   22  C1  UNL     1     -21.135  14.326  18.770  1.00  0.00     0.215 C
ENDBRANCH  19  21
ENDBRANCH  18  19
ENDBRANCH  12  18
BRANCH  14  23
HETATM   23  N1  UNL     1     -15.735  11.969  17.426  1.00  0.00    -0.065 N
ATOM     24  H13 UNL     1     -15.802  11.397  16.584  1.00  0.00     0.275 HD
ATOM     25  H12 UNL     1     -15.402  12.838  17.008  1.00  0.00     0.275 HD
ATOM     26  H11 UNL     1     -15.047  11.587  18.074  1.00  0.00     0.275 HD
ENDBRANCH  14  23
BRANCH  14  27
HETATM   27  C6  UNL     1     -16.900  13.420  18.895  1.00  0.00     0.177 C
BRANCH  27  28
HETATM   28  N2  UNL     1     -15.740  13.253  19.751  1.00  0.00    -0.146 NA
BRANCH  28  29
HETATM   29  N3  UNL     1     -16.148  13.003  21.067  1.00  0.00    -0.348 N
ATOM     30  H32 UNL     1     -16.352  12.076  21.437  1.00  0.00     0.172 HD
ATOM     31  H31 UNL     1     -16.207  13.879  21.586  1.00  0.00     0.172 HD
ENDBRANCH  28  29
ENDBRANCH  27  28
ENDBRANCH  14  27
BRANCH  15  32
HETATM   32  O4  UNL     1     -18.314  11.483  19.924  1.00  0.00    -0.374 OA
ATOM     33  H4  UNL     1     -17.993  11.300  20.799  1.00  0.00     0.212 HD
ENDBRANCH  15  32
ENDBRANCH  10  11
ENDBRANCH   1  10
BRANCH   2  34
HETATM   34  N5  UNL     1     -19.954   6.508  14.849  1.00  0.00    -0.059 N
ATOM     35  H52 UNL     1     -20.050   5.515  14.635  1.00  0.00     0.278 HD
ATOM     36  H51 UNL     1     -20.470   6.538  15.728  1.00  0.00     0.278 HD
BRANCH  34  37
HETATM   37  C11 UNL     1     -20.597   7.321  13.841  1.00  0.00     0.217 C
HETATM   38  C12 UNL     1     -21.534   6.538  12.946  1.00  0.00     0.035 C
HETATM   39  C13 UNL     1     -22.415   7.634  12.340  1.00  0.00     0.004 C
HETATM   40  C14 UNL     1     -22.283   8.831  13.227  1.00  0.00     0.035 C
HETATM   41  C15 UNL     1     -21.571   8.311  14.472  1.00  0.00     0.214 C
BRANCH  41  42
HETATM   42  N6  UNL     1     -22.546   7.654  15.286  1.00  0.00    -0.073 N
ATOM     43  H63 UNL     1     -23.426   7.533  14.785  1.00  0.00     0.274 HD
ATOM     44  H62 UNL     1     -22.307   6.673  15.431  1.00  0.00     0.274 HD
ATOM     45  H61 UNL     1     -22.687   8.137  16.174  1.00  0.00     0.274 HD
ENDBRANCH  41  42
ENDBRANCH  34  37
ENDBRANCH   2  34
BRANCH   6  46
HETATM   46  O6  UNL     1     -13.523   8.955  13.041  1.00  0.00    -0.326 OA
BRANCH  46  47
HETATM   47  C20 UNL     1     -12.430   9.205  13.876  1.00  0.00     0.294 A
HETATM   48  C21 UNL     1     -11.129   9.247  13.207  1.00  0.00     0.057 A
HETATM   49  C22 UNL     1     -10.960  10.497  13.533  1.00  0.00     0.139 A
HETATM   50  O7  UNL     1     -12.166  10.519  14.173  1.00  0.00    -0.329 OA
ENDBRANCH  46  47
ENDBRANCH   6  46
TORSDOF 15
ENDMDL