MODEL 1
REMARK VINA RESULT: -10.687820441      0.000      0.000
REMARK  11 active torsions:
REMARK  status: ('A' for Active; 'I' for Inactive)
REMARK       I    between atoms: N3_8  and  C4_10
REMARK       I    between atoms: C4_10  and  N4_12
REMARK    1  A    between atoms: N4_12  and  C5_14
REMARK    2  A    between atoms: C5_14  and  C6_19
REMARK    3  A    between atoms: N5_15  and  O2_17
REMARK    4  A    between atoms: C7_24  and  C8_25
REMARK    5  A    between atoms: C8_25  and  N8_27
REMARK       I    between atoms: N8_27  and  C10_29
REMARK    6  A    between atoms: C10_29  and  C11_31
REMARK    7  A    between atoms: C11_31  and  C12_32
REMARK    8  A    between atoms: C12_32  and  N9_33
REMARK    9  A    between atoms: C12_32  and  C16_46
REMARK       I    between atoms: N9_33  and  C13_34
REMARK   10  A    between atoms: C13_34  and  C14_36
REMARK   11  A    between atoms: C15_42  and  N12_43
ROOT
HETATM    1  C6  UNL     1     -19.763   6.540  13.565  1.00  0.00     0.211 A
HETATM    2  N6  UNL     1     -20.792   5.672  13.523  1.00  0.00    -0.275 N
ATOM      3  H6  UNL     1     -20.734   4.685  13.273  1.00  0.00     0.189 HD
HETATM    4  N7  UNL     1     -21.884   6.320  13.859  1.00  0.00    -0.279 N
ATOM      5  H7  UNL     1     -22.816   5.911  13.914  1.00  0.00     0.189 HD
HETATM    6  C7  UNL     1     -21.582   7.623  14.123  1.00  0.00     0.163 A
HETATM    7  O8  UNL     1     -20.291   7.682  13.928  1.00  0.00    -0.272 OA
ENDROOT
BRANCH   6   8
HETATM    8  C8  UNL     1     -22.428   8.742  14.533  1.00  0.00     0.157 C
HETATM    9  C9  UNL     1     -23.656   8.838  13.599  1.00  0.00     0.041 C
BRANCH   8  10
HETATM   10  N8  UNL     1     -21.804   9.970  14.789  1.00  0.00    -0.349 N
HETATM   11  C10 UNL     1     -21.145  10.387  15.964  1.00  0.00     0.221 C
HETATM   12  O3  UNL     1     -21.147   9.589  16.972  1.00  0.00    -0.273 OA
ATOM     13  H8  UNL     1     -21.829  10.648  14.028  1.00  0.00     0.163 HD
BRANCH  11  14
HETATM   14  C11 UNL     1     -20.441  11.659  16.102  1.00  0.00     0.153 C
BRANCH  14  15
HETATM   15  C12 UNL     1     -18.933  11.560  16.096  1.00  0.00     0.276 C
BRANCH  15  16
HETATM   16  N9  UNL     1     -18.346  11.350  17.291  1.00  0.00    -0.393 NA
HETATM   17  C13 UNL     1     -17.796  10.989  18.491  1.00  0.00     0.344 C
HETATM   18  O4  UNL     1     -17.862   9.795  18.979  1.00  0.00    -0.249 OA
BRANCH  17  19
HETATM   19  C14 UNL     1     -17.060  11.990  19.299  1.00  0.00     0.183 A
HETATM   20  N10 UNL     1     -17.701  12.724  20.291  1.00  0.00    -0.231 N
HETATM   21  O5  UNL     1     -16.836  13.644  20.692  1.00  0.00    -0.155 OA
ATOM     22  H10 UNL     1     -18.649  12.583  20.641  1.00  0.00     0.197 HD
HETATM   23  N11 UNL     1     -15.750  13.531  20.041  1.00  0.00    -0.224 N
HETATM   24  C15 UNL     1     -15.853  12.484  19.149  1.00  0.00     0.157 A
ATOM     25  H11 UNL     1     -14.929  14.123  20.160  1.00  0.00     0.198 HD
BRANCH  24  26
HETATM   26  N12 UNL     1     -14.803  12.095  18.389  1.00  0.00    -0.382 N
ATOM     27 2H12 UNL     1     -14.257  11.264  18.617  1.00  0.00     0.157 HD
ATOM     28 1H12 UNL     1     -14.426  12.452  17.511  1.00  0.00     0.157 HD
ENDBRANCH  24  26
ENDBRANCH  17  19
ENDBRANCH  15  16
BRANCH  15  29
HETATM   29  C16 UNL     1     -18.583  10.456  15.052  1.00  0.00     0.210 C
HETATM   30  O6  UNL     1     -18.027   9.425  15.549  1.00  0.00    -0.646 OA
HETATM   31  O7  UNL     1     -18.860  10.637  13.775  1.00  0.00    -0.646 OA
ENDBRANCH  15  29
ENDBRANCH  14  15
ENDBRANCH  11  14
ENDBRANCH   8  10
ENDBRANCH   6   8
BRANCH   1  32
HETATM   32  C5  UNL     1     -18.351   6.413  13.308  1.00  0.00     0.183 C
HETATM   33  N5  UNL     1     -18.026   5.423  12.513  1.00  0.00    -0.249 N
ATOM     34  H5  UNL     1     -17.031   5.274  12.340  1.00  0.00     0.196 HD
BRANCH  32  35
HETATM   35  N4  UNL     1     -17.322   7.158  13.836  1.00  0.00    -0.289 N
HETATM   36  C4  UNL     1     -16.416   7.965  13.138  1.00  0.00     0.328 C
HETATM   37  N3  UNL     1     -15.450   8.759  13.727  1.00  0.00    -0.287 N
HETATM   38  O1  UNL     1     -16.440   8.027  11.860  1.00  0.00    -0.247 OA
HETATM   39  C3  UNL     1     -14.160   8.630  13.463  1.00  0.00     0.169 A
ATOM     40  H3  UNL     1     -15.744   9.474  14.393  1.00  0.00     0.172 HD
HETATM   41  N2  UNL     1     -13.136   8.202  12.975  1.00  0.00    -0.279 N
HETATM   42  S1  UNL     1     -13.329  10.152  14.247  1.00  0.00    -0.038 SA
HETATM   43  N1  UNL     1     -11.974   8.704  13.041  1.00  0.00    -0.296 N
ATOM     44  H2  UNL     1     -13.220   7.333  12.447  1.00  0.00     0.189 HD
HETATM   45  C2  UNL     1     -11.767   9.800  13.685  1.00  0.00     0.066 A
ATOM     46  H1  UNL     1     -11.194   8.235  12.581  1.00  0.00     0.187 HD
HETATM   47  C1  UNL     1     -10.480  10.586  13.844  1.00  0.00     0.078 C
ATOM     48  H4  UNL     1     -17.206   7.118  14.848  1.00  0.00     0.172 HD
ENDBRANCH  32  35
BRANCH  33  49
HETATM   49  O2  UNL     1     -18.888   4.583  11.904  1.00  0.00    -0.288 OA
ATOM     50  H2  UNL     1     -19.295   4.721  11.057  1.00  0.00     0.244 HD
ENDBRANCH  33  49
ENDBRANCH   1  32
TORSDOF 11
ENDMDL