MODEL 4
REMARK VINA RESULT: -9.037958958      2.758      3.436
REMARK  11 active torsions:
REMARK  status: ('A' for Active; 'I' for Inactive)
REMARK    1  A    between atoms: N1_1  and  C1_5
REMARK    2  A    between atoms: C1_5  and  O1_6
REMARK    3  A    between atoms: C1_5  and  C2_8
REMARK    4  A    between atoms: C2_8  and  C3_9
REMARK    5  A    between atoms: C2_8  and  N2_11
REMARK    6  A    between atoms: N6_24  and  C9_25
REMARK    7  A    between atoms: C9_25  and  C10_26
REMARK       I    between atoms: C10_26  and  N7_28
REMARK    8  A    between atoms: N7_28  and  C11_30
REMARK    9  A    between atoms: C15_34  and  N8_35
REMARK   10  A    between atoms: N8_35  and  N9_37
REMARK   11  A    between atoms: C21_51  and  O6_52
ROOT
HETATM    1  C10 UNL     1     -17.025   8.460  15.432  1.00  0.00     0.240 C
HETATM    2  O3  UNL     1     -16.380   7.867  16.319  1.00  0.00    -0.271 OA
HETATM    3  N7  UNL     1     -16.437   9.293  14.480  1.00  0.00    -0.323 N
ATOM      4  H7  UNL     1     -17.075   9.718  13.808  1.00  0.00     0.169 HD
ENDROOT
BRANCH   1   5
HETATM    5  C9  UNL     1     -18.535   8.257  15.394  1.00  0.00     0.234 C
BRANCH   5   6
HETATM    6  N6  UNL     1     -19.248   9.444  15.776  1.00  0.00    -0.318 N
HETATM    7  C6  UNL     1     -18.967  10.257  16.825  1.00  0.00     0.141 A
HETATM    8  N4  UNL     1     -18.036  10.262  17.794  1.00  0.00    -0.336 N
HETATM    9  C7  UNL     1     -19.893  11.289  16.829  1.00  0.00     0.122 A
HETATM   10  C5  UNL     1     -17.984  11.222  18.741  1.00  0.00     0.183 A
ATOM     11  H4  UNL     1     -17.343   9.515  17.814  1.00  0.00     0.168 HD
HETATM   12  N3  UNL     1     -18.906  12.213  18.711  1.00  0.00    -0.337 N
HETATM   13  C4  UNL     1     -19.871  12.290  17.784  1.00  0.00     0.134 A
ATOM     14  H3  UNL     1     -18.865  12.936  19.428  1.00  0.00     0.168 HD
HETATM   15  N2  UNL     1     -20.759  13.195  17.709  1.00  0.00    -0.359 N
ATOM     16  H2  UNL     1     -21.423  13.109  16.940  1.00  0.00     0.162 HD
HETATM   17  N5  UNL     1     -20.695  11.049  15.775  1.00  0.00    -0.346 N
HETATM   18  C8  UNL     1     -20.318   9.930  15.121  1.00  0.00     0.185 A
ATOM     19  H5  UNL     1     -21.484  11.637  15.506  1.00  0.00     0.167 HD
BRANCH  15  20
HETATM   20  C2  UNL     1     -20.937  14.317  18.572  1.00  0.00     0.200 C
BRANCH  20  21
HETATM   21  C1  UNL     1     -20.123  15.484  18.017  1.00  0.00     0.345 C
BRANCH  21  22
HETATM   22  N1  UNL     1     -20.219  15.390  16.566  1.00  0.00    -0.051 N
ATOM     23  H13 UNL     1     -20.871  16.064  16.163  1.00  0.00     0.277 HD
ATOM     24  H12 UNL     1     -19.380  15.718  16.086  1.00  0.00     0.277 HD
ATOM     25  H11 UNL     1     -20.455  14.423  16.345  1.00  0.00     0.277 HD
ENDBRANCH  21  22
BRANCH  21  26
HETATM   26  O1  UNL     1     -18.782  15.312  18.347  1.00  0.00    -0.368 OA
ATOM     27  H1  UNL     1     -18.756  14.772  19.129  1.00  0.00     0.212 HD
ENDBRANCH  21  26
ENDBRANCH  20  21
BRANCH  20  28
HETATM   28  C3  UNL     1     -22.385  14.660  18.615  1.00  0.00     0.260 C
HETATM   29  O2  UNL     1     -23.048  14.813  17.600  1.00  0.00    -0.304 OA
ENDBRANCH  20  28
ENDBRANCH  15  20
ENDBRANCH   5   6
ENDBRANCH   1   5
BRANCH   3  30
HETATM   30  C11 UNL     1     -15.089   9.620  14.328  1.00  0.00     0.071 A
HETATM   31  C12 UNL     1     -14.531  10.763  14.783  1.00  0.00     0.062 A
HETATM   32  C13 UNL     1     -13.175  11.045  14.605  1.00  0.00     0.043 A
HETATM   33  C14 UNL     1     -12.434  12.127  14.985  1.00  0.00     0.062 A
HETATM   34  N12 UNL     1     -12.414  10.158  13.968  1.00  0.00    -0.328 N
HETATM   35  C15 UNL     1     -11.141  11.898  14.560  1.00  0.00     0.066 A
HETATM   36  C19 UNL     1     -11.165  10.674  13.937  1.00  0.00     0.127 A
HETATM   37  C20 UNL     1     -12.931   9.025  13.508  1.00  0.00     0.135 A
HETATM   38  C21 UNL     1     -14.242   8.718  13.663  1.00  0.00     0.108 A
BRANCH  35  39
HETATM   39  N8  UNL     1     -10.042  12.785  14.755  1.00  0.00    -0.298 N
ATOM     40  H8  UNL     1      -9.131  12.428  15.043  1.00  0.00     0.187 HD
BRANCH  39  41
HETATM   41  N9  UNL     1     -10.234  14.135  14.546  1.00  0.00    -0.280 N
HETATM   42  C16 UNL     1      -9.932  14.696  13.424  1.00  0.00     0.193 A
HETATM   43  N10 UNL     1      -9.383  14.072  12.272  1.00  0.00    -0.289 N
HETATM   44  C18 UNL     1     -10.082  16.101  13.072  1.00  0.00     0.295 A
HETATM   45  C17 UNL     1      -9.189  15.023  11.231  1.00  0.00     0.328 A
ATOM     46  H10 UNL     1      -9.158  13.080  12.202  1.00  0.00     0.172 HD
HETATM   47  O4  UNL     1      -8.718  14.820  10.065  1.00  0.00    -0.247 OA
HETATM   48  N11 UNL     1      -9.622  16.282  11.726  1.00  0.00    -0.272 N
ATOM     49  H11 UNL     1      -9.609  17.163  11.212  1.00  0.00     0.174 HD
HETATM   50  O5  UNL     1     -10.546  16.994  13.843  1.00  0.00    -0.264 OA
ATOM     51  H9  UNL     1     -10.625  14.705  15.298  1.00  0.00     0.188 HD
ENDBRANCH  39  41
ENDBRANCH  35  39
BRANCH  38  52
HETATM   52  O6  UNL     1     -14.750   7.506  13.160  1.00  0.00    -0.357 OA
ATOM     53  H6  UNL     1     -14.437   7.162  12.332  1.00  0.00     0.217 HD
ENDBRANCH  38  52
ENDBRANCH   3  30
TORSDOF 11
ENDMDL