MODEL 5
REMARK VINA RESULT: -5.902377907      2.510      7.441
REMARK  6 active torsions:
REMARK  status: ('A' for Active; 'I' for Inactive)
REMARK    1  A    between atoms: C1_4  and  C2_5
REMARK    2  A    between atoms: C2_5  and  N2_6
REMARK    3  A    between atoms: N2_6  and  C3_8
REMARK    4  A    between atoms: C8_13  and  C9_14
REMARK    5  A    between atoms: C9_14  and  N3_15
REMARK    6  A    between atoms: N3_15  and  C10_17
ROOT
HETATM    1  C3  UNL     1      41.759   8.407  50.653  1.00  0.00     0.036 A
HETATM    2  C4  UNL     1      43.022   8.139  51.140  1.00  0.00     0.030 A
HETATM    3  C5  UNL     1      43.858   9.120  51.625  1.00  0.00     0.002 A
HETATM    4  C6  UNL     1      43.427  10.419  51.629  1.00  0.00     0.001 A
HETATM    5  C7  UNL     1      42.165  10.693  51.143  1.00  0.00     0.011 A
HETATM    6  C8  UNL     1      41.330   9.717  50.659  1.00  0.00    -0.014 A
ENDROOT
BRANCH   6   7
HETATM    7  C9  UNL     1      39.961  10.085  50.142  1.00  0.00     0.178 C
BRANCH   7   8
HETATM    8  N3  UNL     1      39.494  11.262  50.850  1.00  0.00    -0.222 N
ATOM      9  H3  UNL     1      40.087  12.090  50.905  1.00  0.00     0.178 HD
BRANCH   8  10
HETATM   10  C10 UNL     1      38.331  11.269  51.412  1.00  0.00     0.677 A
HETATM   11  N4  UNL     1      38.185  12.000  52.512  1.00  0.00    -0.202 N
HETATM   12  C11 UNL     1      37.011  12.064  53.160  1.00  0.00     0.107 A
ATOM     13  H4  UNL     1      38.983  12.523  52.872  1.00  0.00     0.183 HD
HETATM   14  C12 UNL     1      35.945  11.358  52.668  1.00  0.00     0.035 A
HETATM   15  C13 UNL     1      36.102  10.612  51.542  1.00  0.00     0.107 A
HETATM   16  N5  UNL     1      37.294  10.577  50.926  1.00  0.00    -0.202 N
ATOM     17  H5  UNL     1      37.410  10.018  50.081  1.00  0.00     0.183 HD
ENDBRANCH   8  10
ENDBRANCH   7   8
ENDBRANCH   6   7
BRANCH   1  18
HETATM   18  N2  UNL     1      40.888   7.406  50.157  1.00  0.00    -0.385 N
ATOM     19  H2  UNL     1      40.173   7.683  49.485  1.00  0.00     0.160 HD
BRANCH  18  20
HETATM   20  C2  UNL     1      40.950   6.018  50.546  1.00  0.00     0.163 C
BRANCH  20  21
HETATM   21  C1  UNL     1      42.133   5.300  49.976  1.00  0.00     0.072 C
HETATM   22  N1  UNL     1      42.311   5.179  48.721  1.00  0.00    -0.410 N
ATOM     23  H12 UNL     1      41.615   5.590  48.098  1.00  0.00     0.155 HD
ATOM     24  H11 UNL     1      43.117   4.689  48.333  1.00  0.00     0.155 HD
ENDBRANCH  20  21
ENDBRANCH  18  20
ENDBRANCH   1  18
TORSDOF 6
ENDMDL