MODEL 2
REMARK VINA RESULT: -8.840528314      0.822      1.244
REMARK  6 active torsions:
REMARK  status: ('A' for Active; 'I' for Inactive)
REMARK    1  A    between atoms: C2_2  and  C3_3
REMARK    2  A    between atoms: C2_2  and  N2_8
REMARK    3  A    between atoms: C3_3  and  N1_4
REMARK    4  A    between atoms: N2_8  and  C4_11
REMARK    5  A    between atoms: C4_11  and  C5_12
REMARK    6  A    between atoms: C8_15  and  C9_16
ROOT
HETATM    1  C5  UNL     1      39.436  11.114  50.545  1.00  0.00    -0.033 A
HETATM    2  C6  UNL     1      39.266  12.196  51.370  1.00  0.00     0.010 A
HETATM    3  C7  UNL     1      38.114  12.404  52.088  1.00  0.00     0.014 A
HETATM    4  C8  UNL     1      37.050  11.508  52.010  1.00  0.00    -0.009 A
HETATM    5  C14 UNL     1      37.208  10.421  51.189  1.00  0.00     0.014 A
HETATM    6  C15 UNL     1      38.383  10.234  50.472  1.00  0.00     0.010 A
ENDROOT
BRANCH   1   7
HETATM    7  C4  UNL     1      40.648  10.830  49.741  1.00  0.00     0.271 C
BRANCH   7   8
HETATM    8  N2  UNL     1      40.955   9.444  49.644  1.00  0.00    -0.066 N
ATOM      9  H22 UNL     1      41.206   9.182  48.691  1.00  0.00     0.278 HD
ATOM     10  H21 UNL     1      40.119   8.868  49.750  1.00  0.00     0.278 HD
BRANCH   8  11
HETATM   11  C2  UNL     1      41.968   9.070  50.573  1.00  0.00     0.207 C
HETATM   12  C1  UNL     1      42.664  10.175  51.287  1.00  0.00     0.041 C
BRANCH  11  13
HETATM   13  C3  UNL     1      41.394   8.119  51.636  1.00  0.00     0.262 C
BRANCH  13  14
HETATM   14  N1  UNL     1      41.127   8.932  52.807  1.00  0.00    -0.077 N
ATOM     15  H13 UNL     1      41.964   9.361  53.201  1.00  0.00     0.274 HD
ATOM     16  H12 UNL     1      40.631   9.798  52.594  1.00  0.00     0.274 HD
ATOM     17  H11 UNL     1      40.631   8.331  53.465  1.00  0.00     0.274 HD
ENDBRANCH  13  14
ENDBRANCH  11  13
ENDBRANCH   8  11
ENDBRANCH   7   8
ENDBRANCH   1   7
BRANCH   4  18
HETATM   18  C9  UNL     1      35.837  11.729  52.769  1.00  0.00     0.042 A
HETATM   19  C10 UNL     1      34.624  11.271  52.358  1.00  0.00     0.030 A
HETATM   20  C11 UNL     1      33.457  11.499  53.107  1.00  0.00     0.004 A
HETATM   21  C12 UNL     1      33.591  12.202  54.278  1.00  0.00     0.017 A
HETATM   22  C13 UNL     1      34.817  12.659  54.684  1.00  0.00     0.088 A
HETATM   23  N3  UNL     1      35.901  12.410  53.922  1.00  0.00    -0.365 N
ATOM     24  H3  UNL     1      36.808  12.755  54.236  1.00  0.00     0.165 HD
ENDBRANCH   4  18
TORSDOF 6
ENDMDL