MODEL 3
REMARK VINA RESULT: -6.747779787      4.017      7.198
REMARK  5 active torsions:
REMARK  status: ('A' for Active; 'I' for Inactive)
REMARK    1  A    between atoms: C6_6  and  O1_7
REMARK    2  A    between atoms: C8_9  and  C9_10
REMARK    3  A    between atoms: C10_11  and  C11_12
REMARK    4  A    between atoms: C11_12  and  N1_13
REMARK    5  A    between atoms: N1_13  and  C12_15
ROOT
HETATM    1  C1  UNL     1      45.693  11.667  51.994  1.00  0.00     0.018 C
HETATM    2  C2  UNL     1      44.848  10.857  51.679  1.00  0.00    -0.078 C
HETATM    3  C3  UNL     1      43.834   9.910  51.302  1.00  0.00     0.017 A
HETATM    4  C4  UNL     1      44.110   8.563  51.233  1.00  0.00     0.023 A
HETATM    5  C5  UNL     1      43.139   7.662  50.872  1.00  0.00     0.039 A
HETATM    6  C6  UNL     1      41.896   8.138  50.585  1.00  0.00     0.078 A
HETATM    7  C8  UNL     1      41.557   9.497  50.639  1.00  0.00    -0.002 A
HETATM    8  C14 UNL     1      42.557  10.374  51.005  1.00  0.00     0.034 A
ENDROOT
BRANCH   7   9
HETATM    9  C9  UNL     1      40.205   9.929  50.327  1.00  0.00     0.012 C
HETATM   10  C10 UNL     1      39.312  10.265  51.224  1.00  0.00    -0.007 C
BRANCH  10  11
HETATM   11  C11 UNL     1      37.922  10.708  50.888  1.00  0.00     0.148 C
BRANCH  11  12
HETATM   12  N1  UNL     1      37.056  10.649  52.010  1.00  0.00    -0.374 N
ATOM     13  H1  UNL     1      37.464  10.422  52.917  1.00  0.00     0.161 HD
BRANCH  12  14
HETATM   14  C12 UNL     1      35.675  10.882  51.950  1.00  0.00     0.125 C
HETATM   15  N2  UNL     1      34.812   9.781  51.545  1.00  0.00    -0.082 NA
HETATM   16  C13 UNL     1      35.047  12.000  52.225  1.00  0.00     0.144 C
HETATM   17  N3  UNL     1      35.692  13.189  52.639  1.00  0.00    -0.112 NA
ENDBRANCH  12  14
ENDBRANCH  11  12
ENDBRANCH  10  11
ENDBRANCH   7   9
BRANCH   6  18
HETATM   18  O1  UNL     1      40.882   7.266  50.215  1.00  0.00    -0.355 OA
HETATM   19  C7  UNL     1      41.018   5.866  50.236  1.00  0.00     0.210 C
ENDBRANCH   6  18
TORSDOF 5
ENDMDL