MODEL 4
REMARK VINA RESULT: -6.347168162      2.996      6.921
REMARK  6 active torsions:
REMARK  status: ('A' for Active; 'I' for Inactive)
REMARK    1  A    between atoms: C2_2  and  C3_3
REMARK    2  A    between atoms: C3_3  and  C4_4
REMARK    3  A    between atoms: C3_3  and  N2_9
REMARK    4  A    between atoms: C4_4  and  N1_5
REMARK       I    between atoms: N2_9  and  C5_11
REMARK       I    between atoms: C5_11  and  N4_21
REMARK    5  A    between atoms: N3_12  and  C6_14
REMARK    6  A    between atoms: C6_14  and  C7_15
ROOT
HETATM    1  N2  UNL     1      40.277   9.446  50.644  1.00  0.00    -0.220 N
ATOM      2  H2  UNL     1      39.584   9.216  49.931  1.00  0.00     0.178 HD
HETATM    3  C5  UNL     1      39.888   9.640  51.986  1.00  0.00     0.683 C
HETATM    4  N3  UNL     1      38.782  10.199  52.282  1.00  0.00    -0.222 N
ATOM      5  H3  UNL     1      38.507  10.336  53.255  1.00  0.00     0.178 HD
HETATM    6  N4  UNL     1      40.735   9.209  53.034  1.00  0.00    -0.126 N
ATOM      7  H4  UNL     1      41.080   9.905  53.695  1.00  0.00     0.197 HD
HETATM    8  C13 UNL     1      41.124   7.873  53.210  1.00  0.00     0.196 C
HETATM    9  N5  UNL     1      41.458   6.775  53.365  1.00  0.00    -0.171 NA
ENDROOT
BRANCH   1  10
HETATM   10  C3  UNL     1      41.672   9.581  50.296  1.00  0.00     0.124 C
BRANCH  10  11
HETATM   11  C2  UNL     1      42.367  10.543  51.233  1.00  0.00     0.023 C
HETATM   12  C1  UNL     1      43.836  10.185  51.247  1.00  0.00     0.007 C
ENDBRANCH  10  11
BRANCH  10  13
HETATM   13  C4  UNL     1      42.360   8.231  50.304  1.00  0.00     0.255 C
BRANCH  13  14
HETATM   14  N1  UNL     1      41.476   7.140  50.043  1.00  0.00    -0.077 N
ATOM     15  H13 UNL     1      41.869   6.266  50.392  1.00  0.00     0.274 HD
ATOM     16  H12 UNL     1      40.646   7.200  50.632  1.00  0.00     0.274 HD
ATOM     17  H11 UNL     1      41.217   7.053  49.060  1.00  0.00     0.274 HD
ENDBRANCH  13  14
ENDBRANCH  10  13
ENDBRANCH   1  10
BRANCH   4  18
HETATM   18  C6  UNL     1      37.925  10.635  51.200  1.00  0.00     0.176 C
BRANCH  18  19
HETATM   19  C7  UNL     1      36.569  10.965  51.698  1.00  0.00    -0.040 A
HETATM   20  C8  UNL     1      35.574  10.007  51.612  1.00  0.00     0.009 A
HETATM   21  C9  UNL     1      34.295  10.264  52.061  1.00  0.00     0.001 A
HETATM   22  C10 UNL     1      34.018  11.505  52.604  1.00  0.00     0.000 A
HETATM   23  C11 UNL     1      35.016  12.451  52.686  1.00  0.00     0.001 A
HETATM   24  C12 UNL     1      36.279  12.192  52.240  1.00  0.00     0.009 A
ENDBRANCH  18  19
ENDBRANCH   4  18
TORSDOF 6
ENDMDL