MODEL 5
REMARK VINA RESULT: -7.265282558      1.049      1.083
REMARK  5 active torsions:
REMARK  status: ('A' for Active; 'I' for Inactive)
REMARK    1  A    between atoms: C5_5  and  N1_6
REMARK    2  A    between atoms: N1_6  and  C6_8
REMARK    3  A    between atoms: C6_8  and  C7_9
REMARK    4  A    between atoms: C7_9  and  N2_10
REMARK       I    between atoms: N2_10  and  C8_12
REMARK       I    between atoms: C8_12  and  N4_16
REMARK    5  A    between atoms: C9_18  and  N5_19
ROOT
HETATM    1  C7  UNL     1      39.948  10.460  49.912  1.00  0.00     0.157 C
ENDROOT
BRANCH   1   2
HETATM    2  C6  UNL     1      38.992  11.103  50.876  1.00  0.00     0.140 C
BRANCH   2   3
HETATM    3  N1  UNL     1      37.715  10.447  50.755  1.00  0.00    -0.387 N
ATOM      4  H1  UNL     1      37.542   9.788  49.995  1.00  0.00     0.159 HD
BRANCH   3   5
HETATM    5  C5  UNL     1      36.699  10.727  51.707  1.00  0.00     0.043 A
HETATM    6  C4  UNL     1      35.492  10.073  51.728  1.00  0.00     0.032 A
HETATM    7  C3  UNL     1      34.535  10.410  52.684  1.00  0.00     0.027 A
HETATM    8  C2  UNL     1      34.760  11.390  53.626  1.00  0.00     0.005 A
HETATM    9  C1  UNL     1      33.716  11.740  54.648  1.00  0.00     0.068 C
HETATM   10  N6  UNL     1      35.953  12.009  53.577  1.00  0.00    -0.367 N
HETATM   11  C12 UNL     1      36.895  11.713  52.675  1.00  0.00     0.117 A
ATOM     12  H6  UNL     1      36.148  12.740  54.261  1.00  0.00     0.165 HD
ENDBRANCH   3   5
ENDBRANCH   2   3
ENDBRANCH   1   2
BRANCH   1  13
HETATM   13  N2  UNL     1      40.342   9.187  50.493  1.00  0.00    -0.225 N
HETATM   14  C8  UNL     1      41.066   9.201  51.692  1.00  0.00     0.672 C
HETATM   15  N3  UNL     1      40.509   8.885  52.791  1.00  0.00    -0.235 N
HETATM   16  N4  UNL     1      42.427   9.569  51.680  1.00  0.00    -0.189 N
ATOM     17  H32 UNL     1      39.524   8.619  52.799  1.00  0.00     0.174 HD
ATOM     18  H31 UNL     1      41.036   8.895  53.663  1.00  0.00     0.174 HD
HETATM   19  C9  UNL     1      43.215   9.511  50.678  1.00  0.00     0.195 C
ATOM     20  H4  UNL     1      42.819   9.914  52.556  1.00  0.00     0.184 HD
ATOM     21  H2  UNL     1      40.097   8.307  50.040  1.00  0.00     0.177 HD
BRANCH  19  22
HETATM   22  N5  UNL     1      44.560   9.932  50.870  1.00  0.00    -0.385 N
HETATM   23  C10 UNL     1      45.602   9.125  50.269  1.00  0.00     0.149 C
HETATM   24  C11 UNL     1      44.916  11.103  51.621  1.00  0.00     0.149 C
ENDBRANCH  19  22
ENDBRANCH   1  13
TORSDOF 5
ENDMDL