MODEL 5
REMARK VINA RESULT: -7.089772053      1.410      1.836
REMARK  7 active torsions:
REMARK  status: ('A' for Active; 'I' for Inactive)
REMARK    1  A    between atoms: O1_2  and  C2_3
REMARK    2  A    between atoms: C2_3  and  C3_4
REMARK    3  A    between atoms: C3_4  and  C4_5
REMARK    4  A    between atoms: C3_4  and  C14_16
REMARK    5  A    between atoms: C4_5  and  N1_6
REMARK    6  A    between atoms: C14_16  and  N2_17
REMARK    7  A    between atoms: C14_16  and  O2_21
ROOT
HETATM    1  C3  UNL     1      40.804   9.230  51.748  1.00  0.00     0.094 C
ENDROOT
BRANCH   1   2
HETATM    2  C2  UNL     1      41.209   7.820  51.733  1.00  0.00     0.177 C
BRANCH   2   3
HETATM    3  O1  UNL     1      40.751   7.209  50.563  1.00  0.00    -0.395 OA
HETATM    4  C1  UNL     1      41.315   5.995  50.253  1.00  0.00     0.201 C
ENDBRANCH   2   3
ENDBRANCH   1   2
BRANCH   1   5
HETATM    5  C4  UNL     1      39.428   9.666  51.950  1.00  0.00     0.283 C
BRANCH   5   6
HETATM    6  N1  UNL     1      38.829  10.723  51.245  1.00  0.00     0.093 N
HETATM    7  C5  UNL     1      38.930  11.989  51.980  1.00  0.00     0.277 C
HETATM    8  C6  UNL     1      37.905  12.274  52.988  1.00  0.00     0.069 C
HETATM    9  C7  UNL     1      36.605  11.612  52.821  1.00  0.00    -0.049 A
HETATM   10  C8  UNL     1      35.605  11.870  53.762  1.00  0.00     0.007 A
HETATM   11  C12 UNL     1      36.413  10.781  51.769  1.00  0.00    -0.024 A
HETATM   12  C9  UNL     1      34.373  11.252  53.614  1.00  0.00     0.001 A
HETATM   13  C10 UNL     1      34.151  10.402  52.554  1.00  0.00     0.001 A
HETATM   14  C11 UNL     1      35.171  10.185  51.656  1.00  0.00     0.009 A
HETATM   15  C13 UNL     1      37.474  10.529  50.789  1.00  0.00     0.311 C
ENDBRANCH   5   6
ENDBRANCH   1   5
BRANCH   1  16
HETATM   16  C14 UNL     1      41.459   9.886  50.522  1.00  0.00     0.324 C
BRANCH  16  17
HETATM   17  N2  UNL     1      40.547   9.735  49.376  1.00  0.00    -0.053 N
ATOM     18  H23 UNL     1      40.571  10.537  48.747  1.00  0.00     0.277 HD
ATOM     19  H22 UNL     1      40.863   9.028  48.712  1.00  0.00     0.277 HD
ATOM     20  H21 UNL     1      39.611   9.546  49.736  1.00  0.00     0.277 HD
ENDBRANCH  16  17
BRANCH  16  21
HETATM   21  O2  UNL     1      42.711   9.383  50.250  1.00  0.00    -0.369 OA
ATOM     22  H2  UNL     1      42.685   8.586  49.734  1.00  0.00     0.212 HD
ENDBRANCH  16  21
ENDBRANCH   1  16
TORSDOF 7
ENDMDL