MODEL 2
REMARK VINA RESULT: -7.636365731      0.032      1.117
REMARK  6 active torsions:
REMARK  status: ('A' for Active; 'I' for Inactive)
REMARK    1  A    between atoms: C2_4  and  N2_5
REMARK    2  A    between atoms: C2_4  and  C11_19
REMARK    3  A    between atoms: N2_5  and  C3_7
REMARK    4  A    between atoms: C3_7  and  C4_8
REMARK    5  A    between atoms: C4_8  and  N3_9
REMARK    6  A    between atoms: C4_8  and  C5_13
ROOT
HETATM    1  N2  UNL     1      40.235  10.030  51.836  1.00  0.00    -0.371 N
ATOM      2  H2  UNL     1      40.759  10.674  52.429  1.00  0.00     0.161 HD
ENDROOT
BRANCH   1   3
HETATM    3  C2  UNL     1      40.904   9.292  50.839  1.00  0.00     0.141 C
HETATM    4  N1  UNL     1      41.034   9.794  49.669  1.00  0.00    -0.378 N
HETATM    5  C1  UNL     1      40.499  11.097  49.383  1.00  0.00     0.147 C
ATOM      6  H1  UNL     1      41.518   9.270  48.939  1.00  0.00     0.160 HD
BRANCH   3   7
HETATM    7  C11 UNL     1      41.475   7.950  51.029  1.00  0.00     0.149 A
HETATM    8  N4  UNL     1      42.323   7.510  51.972  1.00  0.00    -0.348 N
HETATM    9  C12 UNL     1      42.598   6.210  51.774  1.00  0.00     0.107 A
ATOM     10  H4  UNL     1      42.704   8.080  52.728  1.00  0.00     0.167 HD
HETATM   11  C13 UNL     1      41.895   5.805  50.660  1.00  0.00     0.107 A
HETATM   12  N5  UNL     1      41.227   6.885  50.238  1.00  0.00    -0.348 N
ATOM     13  H5  UNL     1      40.612   6.902  49.424  1.00  0.00     0.167 HD
ENDBRANCH   3   7
ENDBRANCH   1   3
BRANCH   1  14
HETATM   14  C3  UNL     1      38.816   9.877  52.022  1.00  0.00     0.159 C
BRANCH  14  15
HETATM   15  C4  UNL     1      38.125  11.197  51.907  1.00  0.00     0.234 C
BRANCH  15  16
HETATM   16  N3  UNL     1      38.791  12.197  52.703  1.00  0.00    -0.069 N
ATOM     17  H33 UNL     1      39.621  11.823  53.162  1.00  0.00     0.275 HD
ATOM     18  H32 UNL     1      39.242  12.903  52.120  1.00  0.00     0.275 HD
ATOM     19  H31 UNL     1      38.147  12.618  53.373  1.00  0.00     0.275 HD
ENDBRANCH  15  16
BRANCH  15  20
HETATM   20  C5  UNL     1      36.689  11.123  52.277  1.00  0.00    -0.026 A
HETATM   21  C6  UNL     1      36.160  11.937  53.267  1.00  0.00     0.009 A
HETATM   22  C7  UNL     1      34.837  11.910  53.649  1.00  0.00     0.001 A
HETATM   23  C8  UNL     1      33.979  11.016  53.005  1.00  0.00     0.000 A
HETATM   24  C9  UNL     1      34.471  10.198  52.023  1.00  0.00     0.001 A
HETATM   25  C10 UNL     1      35.797  10.254  51.669  1.00  0.00     0.009 A
ENDBRANCH  15  20
ENDBRANCH  14  15
ENDBRANCH   1  14
TORSDOF 6
ENDMDL