MODEL 3
REMARK VINA RESULT: -7.179763182      1.609      2.157
REMARK  7 active torsions:
REMARK  status: ('A' for Active; 'I' for Inactive)
REMARK    1  A    between atoms: N1_2  and  C2_4
REMARK    2  A    between atoms: C2_4  and  C3_5
REMARK    3  A    between atoms: C3_5  and  N2_6
REMARK    4  A    between atoms: N2_6  and  C4_8
REMARK    5  A    between atoms: C4_8  and  N3_10
REMARK    6  A    between atoms: N3_10  and  N4_12
REMARK    7  A    between atoms: C5_14  and  C6_15
ROOT
HETATM    1  N3  UNL     1      39.801  10.614  50.087  1.00  0.00    -0.277 N
ATOM      2  H3  UNL     1      40.055  11.344  49.421  1.00  0.00     0.189 HD
ENDROOT
BRANCH   1   3
HETATM    3  C4  UNL     1      40.758   9.697  50.545  1.00  0.00     0.186 C
HETATM    4  S1  UNL     1      41.952  10.205  51.531  1.00  0.00    -0.040 SA
BRANCH   3   5
HETATM    5  N2  UNL     1      40.712   8.341  50.176  1.00  0.00    -0.364 N
ATOM      6  H2  UNL     1      40.510   8.099  49.206  1.00  0.00     0.162 HD
BRANCH   5   7
HETATM    7  C3  UNL     1      40.939   7.297  51.120  1.00  0.00     0.141 C
BRANCH   7   8
HETATM    8  C2  UNL     1      42.025   6.383  50.661  1.00  0.00     0.133 C
BRANCH   8   9
HETATM    9  N1  UNL     1      41.656   5.562  49.525  1.00  0.00    -0.424 N
HETATM   10  C1  UNL     1      42.752   5.114  48.729  1.00  0.00     0.139 C
ATOM     11  H1  UNL     1      40.689   5.323  49.312  1.00  0.00     0.152 HD
ENDBRANCH   8   9
ENDBRANCH   7   8
ENDBRANCH   5   7
ENDBRANCH   3   5
ENDBRANCH   1   3
BRANCH   1  12
HETATM   12  N4  UNL     1      38.478  10.505  50.568  1.00  0.00    -0.309 N
HETATM   13  C5  UNL     1      38.155  11.176  51.639  1.00  0.00     0.118 C
ATOM     14  H4  UNL     1      37.794   9.917  50.092  1.00  0.00     0.186 HD
BRANCH  13  15
HETATM   15  C6  UNL     1      36.803  11.094  52.170  1.00  0.00    -0.019 A
HETATM   16  C7  UNL     1      35.907  10.203  51.631  1.00  0.00     0.013 A
HETATM   17  C8  UNL     1      34.615  10.139  52.156  1.00  0.00     0.001 A
HETATM   18  C9  UNL     1      34.252  10.959  53.198  1.00  0.00     0.000 A
HETATM   19  C10 UNL     1      35.164  11.846  53.726  1.00  0.00     0.001 A
HETATM   20  C11 UNL     1      36.448  11.916  53.211  1.00  0.00     0.013 A
ENDBRANCH  13  15
ENDBRANCH   1  12
TORSDOF 7
ENDMDL