MODEL 1
REMARK VINA RESULT: -7.350433819      0.000      0.000
REMARK  7 active torsions:
REMARK  status: ('A' for Active; 'I' for Inactive)
REMARK    1  A    between atoms: N1_1  and  C1_5
REMARK    2  A    between atoms: C1_5  and  C2_6
REMARK    3  A    between atoms: C1_5  and  C10_14
REMARK    4  A    between atoms: C3_7  and  C4_8
REMARK    5  A    between atoms: C10_14  and  C11_15
REMARK    6  A    between atoms: C10_14  and  N2_18
REMARK    7  A    between atoms: C11_15  and  O1_16
ROOT
HETATM    1  C1  UNL     1      40.076  10.668  52.098  1.00  0.00     0.241 C
ENDROOT
BRANCH   1   2
HETATM    2  N1  UNL     1      40.381  12.026  51.819  1.00  0.00    -0.070 N
ATOM      3  H13 UNL     1      39.566  12.570  51.536  1.00  0.00     0.275 HD
ATOM      4  H12 UNL     1      40.613  12.564  52.653  1.00  0.00     0.275 HD
ATOM      5  H11 UNL     1      41.126  12.027  51.122  1.00  0.00     0.275 HD
ENDBRANCH   1   2
BRANCH   1   6
HETATM    6  C2  UNL     1      38.564  10.539  52.075  1.00  0.00     0.009 C
HETATM    7  C3  UNL     1      37.801  11.550  52.403  1.00  0.00     0.009 C
BRANCH   7   8
HETATM    8  C4  UNL     1      36.364  11.465  52.394  1.00  0.00    -0.036 A
HETATM    9  C5  UNL     1      35.741  10.309  51.950  1.00  0.00     0.011 A
HETATM   10  C6  UNL     1      34.379  10.132  51.902  1.00  0.00     0.001 A
HETATM   11  C7  UNL     1      33.593  11.182  52.328  1.00  0.00     0.000 A
HETATM   12  C8  UNL     1      34.127  12.368  52.784  1.00  0.00     0.001 A
HETATM   13  C9  UNL     1      35.511  12.471  52.802  1.00  0.00     0.011 A
ENDBRANCH   7   8
ENDBRANCH   1   6
BRANCH   1  14
HETATM   14  C10 UNL     1      40.570   9.639  51.136  1.00  0.00     0.280 C
BRANCH  14  15
HETATM   15  C11 UNL     1      39.926   9.989  49.779  1.00  0.00     0.202 C
BRANCH  15  16
HETATM   16  O1  UNL     1      40.733  10.869  49.051  1.00  0.00    -0.399 OA
ATOM     17  H1  UNL     1      41.523  11.085  49.532  1.00  0.00     0.209 HD
ENDBRANCH  15  16
ENDBRANCH  14  15
BRANCH  14  18
HETATM   18  N2  UNL     1      40.429   8.288  51.460  1.00  0.00     0.097 N
HETATM   19  C12 UNL     1      40.854   7.812  52.724  1.00  0.00     0.275 C
HETATM   20  C13 UNL     1      42.082   7.220  52.012  1.00  0.00     0.060 C
HETATM   21  C14 UNL     1      41.177   7.282  50.797  1.00  0.00     0.275 C
ENDBRANCH  14  18
ENDBRANCH   1  14
TORSDOF 7
ENDMDL