MODEL 1
REMARK VINA RESULT: -7.711068742      0.000      0.000
REMARK  8 active torsions:
REMARK  status: ('A' for Active; 'I' for Inactive)
REMARK    1  A    between atoms: O1_2  and  C2_3
REMARK    2  A    between atoms: C4_5  and  C5_6
REMARK    3  A    between atoms: N2_14  and  C9_15
REMARK    4  A    between atoms: C9_15  and  C10_16
REMARK    5  A    between atoms: C11_17  and  C12_18
REMARK    6  A    between atoms: C13_19  and  C14_20
REMARK    7  A    between atoms: C14_20  and  C15_21
REMARK    8  A    between atoms: N3_27  and  C19_28
ROOT
HETATM    1  C15 UNL     1      10.958  22.759  47.112  1.00  0.00    -0.082 C
HETATM    2  C16 UNL     1      10.609  23.878  46.834  1.00  0.00    -0.023 C
HETATM    3 BR1  UNL     1      10.093  25.640  46.400  1.00  0.00     0.010 Br
ENDROOT
BRANCH   1   4
HETATM    4  C14 UNL     1      11.403  21.407  47.455  1.00  0.00     0.189 C
BRANCH   4   5
HETATM    5  C13 UNL     1      10.791  20.933  48.709  1.00  0.00    -0.090 C
HETATM    6  C12 UNL     1      10.307  20.530  49.739  1.00  0.00    -0.078 C
BRANCH   6   7
HETATM    7  C11 UNL     1       9.755  20.037  50.961  1.00  0.00     0.062 C
HETATM    8  C10 UNL     1       8.665  20.478  51.509  1.00  0.00     0.002 C
BRANCH   8   9
HETATM    9  C9  UNL     1       7.864  21.554  50.914  1.00  0.00     0.165 C
BRANCH   9  10
HETATM   10  N2  UNL     1       6.476  21.152  50.692  1.00  0.00    -0.262 N
HETATM   11  C8  UNL     1       5.483  21.522  51.620  1.00  0.00     0.332 A
HETATM   12  N1  UNL     1       4.106  21.160  51.432  1.00  0.00    -0.274 N
HETATM   13  O3  UNL     1       5.764  22.179  52.640  1.00  0.00    -0.246 OA
HETATM   14  C7  UNL     1       3.735  20.396  50.263  1.00  0.00     0.265 A
ATOM     15  H1  UNL     1       3.400  21.437  52.114  1.00  0.00     0.173 HD
HETATM   16  C6  UNL     1       4.736  20.002  49.296  1.00  0.00     0.101 A
HETATM   17  O2  UNL     1       2.524  20.094  50.119  1.00  0.00    -0.267 OA
HETATM   18  C5  UNL     1       4.473  19.294  48.245  1.00  0.00     0.035 C
HETATM   19  C17 UNL     1       6.155  20.400  49.529  1.00  0.00     0.267 A
HETATM   20  O4  UNL     1       7.035  20.066  48.698  1.00  0.00    -0.267 OA
BRANCH  18  21
HETATM   21  C4  UNL     1       3.260  18.718  47.734  1.00  0.00    -0.015 A
HETATM   22  C3  UNL     1       2.301  19.150  46.843  1.00  0.00     0.069 A
HETATM   23  C2  UNL     1       1.345  18.156  46.710  1.00  0.00     0.145 A
HETATM   24  N3  UNL     1       1.686  17.118  47.497  1.00  0.00    -0.324 N
HETATM   25  C18 UNL     1       2.829  17.431  48.121  1.00  0.00     0.105 A
BRANCH  23  26
HETATM   26  O1  UNL     1       0.203  18.192  45.900  1.00  0.00    -0.341 OA
HETATM   27  C1  UNL     1       0.351  18.567  44.533  1.00  0.00     0.211 C
ENDBRANCH  23  26
BRANCH  24  28
HETATM   28  C19 UNL     1       0.962  15.857  47.666  1.00  0.00     0.254 C
HETATM   29  C20 UNL     1       0.655  15.628  49.089  1.00  0.00     0.079 C
HETATM   30  N4  UNL     1       0.422  15.443  50.215  1.00  0.00    -0.196 NA
ENDBRANCH  24  28
ENDBRANCH  18  21
ENDBRANCH   9  10
ENDBRANCH   8   9
ENDBRANCH   6   7
ENDBRANCH   4   5
ENDBRANCH   1   4
TORSDOF 8
ENDMDL