MODEL 2
REMARK VINA RESULT: -8.686648640      2.389      3.642
REMARK  7 active torsions:
REMARK  status: ('A' for Active; 'I' for Inactive)
REMARK    1  A    between atoms: N1_2  and  C2_4
REMARK    2  A    between atoms: C9_12  and  C10_13
REMARK       I    between atoms: C10_13  and  N2_15
REMARK    3  A    between atoms: N3_19  and  C14_20
REMARK    4  A    between atoms: C14_20  and  C15_21
REMARK       I    between atoms: C15_21  and  N4_23
REMARK    5  A    between atoms: N4_23  and  C16_25
REMARK    6  A    between atoms: C16_25  and  C17_26
REMARK    7  A    between atoms: C17_26  and  C18_27
ROOT
HETATM    1  C2  UNL     1       4.412  17.997  49.794  1.00  0.00     0.118 A
HETATM    2  C3  UNL     1       3.607  18.918  50.425  1.00  0.00     0.022 A
HETATM    3  C4  UNL     1       2.256  18.869  50.191  1.00  0.00     0.016 A
HETATM    4  C5  UNL     1       1.427  19.779  50.807  1.00  0.00     0.004 A
HETATM    5  C6  UNL     1       1.910  20.734  51.647  1.00  0.00     0.043 A
HETATM    6  C7  UNL     1       3.251  20.801  51.893  1.00  0.00     0.128 A
HETATM    7  F1  UNL     1       3.745  21.770  52.739  1.00  0.00    -0.205 F
HETATM    8  C8  UNL     1       4.116  19.905  51.295  1.00  0.00     0.034 A
HETATM    9  C9  UNL     1       5.465  19.940  51.513  1.00  0.00     0.061 A
HETATM   10  C13 UNL     1       6.268  18.997  50.865  1.00  0.00     0.111 A
HETATM   11  N3  UNL     1       5.766  18.082  50.054  1.00  0.00    -0.333 N
ENDROOT
BRANCH  11  12
HETATM   12  C14 UNL     1       6.684  17.151  49.430  1.00  0.00     0.232 C
BRANCH  12  13
HETATM   13  C15 UNL     1       8.089  17.469  49.675  1.00  0.00     0.235 C
HETATM   14  O2  UNL     1       8.746  16.729  50.447  1.00  0.00    -0.272 OA
HETATM   15  N4  UNL     1       8.746  18.573  49.082  1.00  0.00    -0.359 N
ATOM     16  H4  UNL     1       8.198  19.163  48.457  1.00  0.00     0.162 HD
BRANCH  15  17
HETATM   17  C16 UNL     1      10.118  18.931  49.287  1.00  0.00     0.127 C
BRANCH  17  18
HETATM   18  C17 UNL     1      10.337  20.072  50.238  1.00  0.00     0.058 C
BRANCH  18  19
HETATM   19  C18 UNL     1      10.047  21.333  49.510  1.00  0.00    -0.054 A
HETATM   20  C19 UNL     1       9.067  22.179  49.966  1.00  0.00     0.010 A
HETATM   21  C20 UNL     1       8.853  23.343  49.229  1.00  0.00     0.040 A
HETATM   22  C21 UNL     1       9.581  23.641  48.099  1.00  0.00     0.105 A
HETATM   23  C22 UNL     1      10.556  22.789  47.653  1.00  0.00     0.105 A
HETATM   24  O4  UNL     1       9.535  24.735  47.220  1.00  0.00    -0.323 OA
HETATM   25  C23 UNL     1      10.781  21.619  48.382  1.00  0.00     0.047 A
HETATM   26  O3  UNL     1      11.105  23.346  46.519  1.00  0.00    -0.323 OA
HETATM   27  C24 UNL     1      10.700  24.693  46.448  1.00  0.00     0.352 C
ENDBRANCH  18  19
ENDBRANCH  17  18
ENDBRANCH  15  17
ENDBRANCH  12  13
ENDBRANCH  11  12
BRANCH   1  28
HETATM   28  N1  UNL     1       4.068  17.128  49.043  1.00  0.00    -0.361 N
HETATM   29  C1  UNL     1       3.550  16.639  47.878  1.00  0.00     0.120 C
ATOM     30  H1  UNL     1       4.281  16.280  49.568  1.00  0.00     0.165 HD
ENDBRANCH   1  28
BRANCH   9  31
HETATM   31  C10 UNL     1       6.067  20.911  52.399  1.00  0.00     0.255 C
HETATM   32  O1  UNL     1       6.187  22.098  52.005  1.00  0.00    -0.267 OA
HETATM   33  N2  UNL     1       6.540  20.600  53.704  1.00  0.00    -0.357 N
HETATM   34  C11 UNL     1       7.133  21.607  54.558  1.00  0.00     0.152 C
HETATM   35  C12 UNL     1       6.470  19.249  54.272  1.00  0.00     0.152 C
ENDBRANCH   9  31
TORSDOF 7
ENDMDL