MODEL 5
REMARK VINA RESULT: -8.637624286      3.713     11.818
REMARK  7 active torsions:
REMARK  status: ('A' for Active; 'I' for Inactive)
REMARK    1  A    between atoms: C4_4  and  O1_5
REMARK    2  A    between atoms: O1_5  and  C5_6
REMARK    3  A    between atoms: C5_6  and  C6_7
REMARK       I    between atoms: C6_7  and  N1_9
REMARK    4  A    between atoms: C8_11  and  O3_12
REMARK    5  A    between atoms: O3_12  and  C9_13
REMARK    6  A    between atoms: C12_16  and  C13_17
REMARK       I    between atoms: C13_17  and  N2_19
REMARK    7  A    between atoms: N2_19  and  C14_21
ROOT
HETATM    1  O3  UNL     1       3.506  20.186  49.123  1.00  0.00    -0.343 OA
ENDROOT
BRANCH   1   2
HETATM    2  C8  UNL     1       2.986  18.935  48.815  1.00  0.00     0.163 C
HETATM    3  C7  UNL     1       2.623  18.893  47.345  1.00  0.00     0.180 C
HETATM    4  N1  UNL     1       1.615  17.850  47.323  1.00  0.00    -0.276 N
HETATM    5  C6  UNL     1       1.219  17.115  46.201  1.00  0.00     0.258 C
HETATM    6  N5  UNL     1       1.071  17.664  48.605  1.00  0.00    -0.228 NA
HETATM    7  O2  UNL     1       1.769  17.345  45.091  1.00  0.00    -0.270 OA
HETATM    8  C20 UNL     1       1.597  18.723  49.431  1.00  0.00     0.147 C
HETATM    9  C21 UNL     1       1.501  16.411  49.205  1.00  0.00     0.136 C
BRANCH   5  10
HETATM   10  C5  UNL     1       0.163  16.063  46.279  1.00  0.00     0.280 C
BRANCH  10  11
HETATM   11  O1  UNL     1      -1.130  16.614  46.307  1.00  0.00    -0.342 OA
BRANCH  11  12
HETATM   12  C4  UNL     1      -2.030  16.065  47.228  1.00  0.00     0.070 A
HETATM   13  C3  UNL     1      -1.699  14.957  48.006  1.00  0.00     0.046 A
HETATM   14  C2  UNL     1      -2.556  14.392  48.921  1.00  0.00    -0.021 A
HETATM   15  C1  UNL     1      -2.150  13.207  49.725  1.00  0.00     0.051 C
HETATM   16  C24 UNL     1      -3.812  14.934  49.092  1.00  0.00     0.122 A
HETATM   17  C23 UNL     1      -4.168  16.035  48.335  1.00  0.00     0.045 A
HETATM   18  F1  UNL     1      -4.691  14.414  49.979  1.00  0.00    -0.206 F
HETATM   19  C22 UNL     1      -3.289  16.595  47.414  1.00  0.00     0.040 A
ENDBRANCH  11  12
ENDBRANCH  10  11
ENDBRANCH   5  10
ENDBRANCH   1   2
BRANCH   1  20
HETATM   20  C9  UNL     1       4.757  20.506  49.560  1.00  0.00     0.069 A
HETATM   21  C10 UNL     1       5.832  19.780  49.091  1.00  0.00     0.038 A
HETATM   22  C11 UNL     1       7.131  20.062  49.502  1.00  0.00     0.020 A
HETATM   23  C12 UNL     1       7.382  21.079  50.393  1.00  0.00     0.032 A
HETATM   24  C18 UNL     1       6.318  21.812  50.869  1.00  0.00     0.020 A
HETATM   25  C19 UNL     1       5.021  21.521  50.451  1.00  0.00     0.038 A
BRANCH  23  26
HETATM   26  C13 UNL     1       8.753  21.392  50.833  1.00  0.00     0.257 C
HETATM   27  O4  UNL     1       9.334  20.709  51.707  1.00  0.00    -0.267 OA
HETATM   28  N2  UNL     1       9.468  22.484  50.282  1.00  0.00    -0.308 N
ATOM     29  H2  UNL     1       9.502  23.352  50.817  1.00  0.00     0.170 HD
BRANCH  28  30
HETATM   30  C14 UNL     1      10.078  22.451  49.146  1.00  0.00     0.123 A
HETATM   31  C15 UNL     1      10.871  21.411  48.750  1.00  0.00     0.136 A
HETATM   32  N3  UNL     1      11.509  21.362  47.581  1.00  0.00    -0.371 N
HETATM   33  C16 UNL     1      11.360  22.416  46.727  1.00  0.00     0.104 A
ATOM     34  H3  UNL     1      12.090  20.561  47.333  1.00  0.00     0.164 HD
HETATM   35  C17 UNL     1      10.568  23.476  47.097  1.00  0.00     0.106 A
HETATM   36  N4  UNL     1       9.947  23.479  48.286  1.00  0.00    -0.350 N
ATOM     37  H4  UNL     1       9.364  24.275  48.543  1.00  0.00     0.166 HD
ENDBRANCH  28  30
ENDBRANCH  23  26
ENDBRANCH   1  20
TORSDOF 7
ENDMDL