MODEL 3
REMARK VINA RESULT: -7.844751037      1.748      2.258
REMARK  7 active torsions:
REMARK  status: ('A' for Active; 'I' for Inactive)
REMARK    1  A    between atoms: C2_2  and  O1_3
REMARK    2  A    between atoms: O1_3  and  C3_4
REMARK    3  A    between atoms: C6_7  and  C7_8
REMARK    4  A    between atoms: C7_8  and  C8_9
REMARK    5  A    between atoms: C16_22  and  C17_23
REMARK    6  A    between atoms: C18_27  and  O4_28
REMARK    7  A    between atoms: O4_28  and  C19_29
ROOT
HETATM    1  C8  UNL     1       6.075  18.316  49.545  1.00  0.00     0.105 A
HETATM    2  N1  UNL     1       6.367  17.360  48.632  1.00  0.00    -0.316 N
ATOM      3  H1  UNL     1       7.325  17.016  48.576  1.00  0.00     0.169 HD
HETATM    4  C9  UNL     1       5.452  16.844  47.795  1.00  0.00     0.290 A
HETATM    5  O2  UNL     1       5.721  15.957  46.947  1.00  0.00    -0.264 OA
HETATM    6  C10 UNL     1       4.126  17.301  47.853  1.00  0.00     0.181 A
HETATM    7  N2  UNL     1       3.841  18.257  48.770  1.00  0.00    -0.262 N
HETATM    8  C11 UNL     1       4.773  18.755  49.593  1.00  0.00     0.280 A
HETATM    9  O3  UNL     1       4.457  19.658  50.442  1.00  0.00    -0.265 OA
HETATM   10  C12 UNL     1       2.474  18.734  48.857  1.00  0.00     0.024 A
HETATM   11  C13 UNL     1       1.481  19.244  49.484  1.00  0.00     0.000 A
HETATM   12  C14 UNL     1       0.617  19.173  48.301  1.00  0.00     0.042 A
HETATM   13  C15 UNL     1       1.757  18.687  47.545  1.00  0.00     0.063 A
HETATM   14  C16 UNL     1       1.821  17.246  47.065  1.00  0.00     0.103 C
HETATM   15  N3  UNL     1       3.229  16.826  47.073  1.00  0.00    -0.365 N
ATOM     16  H3  UNL     1       3.512  16.105  46.410  1.00  0.00     0.161 HD
ENDROOT
BRANCH   1  17
HETATM   17  C7  UNL     1       6.972  18.818  50.361  1.00  0.00     0.049 C
BRANCH  17  18
HETATM   18  C6  UNL     1       7.966  19.790  49.912  1.00  0.00    -0.000 A
HETATM   19  C5  UNL     1       7.740  21.138  49.965  1.00  0.00     0.017 A
HETATM   20  C4  UNL     1       8.708  22.051  49.528  1.00  0.00     0.038 A
HETATM   21  C3  UNL     1       9.924  21.655  49.026  1.00  0.00     0.071 A
HETATM   22  C21 UNL     1      10.143  20.269  48.976  1.00  0.00     0.074 A
HETATM   23  C18 UNL     1       9.200  19.369  49.403  1.00  0.00     0.081 A
BRANCH  21  24
HETATM   24  O1  UNL     1      10.906  22.518  48.583  1.00  0.00    -0.351 OA
BRANCH  24  25
HETATM   25  C2  UNL     1      11.122  22.826  47.233  1.00  0.00     0.171 C
HETATM   26  C1  UNL     1      10.558  24.129  46.775  1.00  0.00     0.034 C
ENDBRANCH  24  25
ENDBRANCH  21  24
BRANCH  23  27
HETATM   27  O4  UNL     1       9.399  18.019  49.360  1.00  0.00    -0.351 OA
BRANCH  27  28
HETATM   28  C19 UNL     1      10.347  17.300  50.080  1.00  0.00     0.171 C
HETATM   29  C20 UNL     1      10.361  17.543  51.556  1.00  0.00     0.034 C
ENDBRANCH  27  28
ENDBRANCH  23  27
ENDBRANCH  17  18
ENDBRANCH   1  17
BRANCH  14  30
HETATM   30  C17 UNL     1       1.318  17.103  45.665  1.00  0.00     0.111 C
HETATM   31 BR1  UNL     1       1.625  18.668  44.596  1.00  0.00    -0.094 Br
ENDBRANCH  14  30
TORSDOF 7
ENDMDL