MODEL 4
REMARK VINA RESULT: -8.536846449      2.298      4.064
REMARK  9 active torsions:
REMARK  status: ('A' for Active; 'I' for Inactive)
REMARK    1  A    between atoms: C1_2  and  C2_4
REMARK    2  A    between atoms: C2_4  and  O3_5
REMARK    3  A    between atoms: C2_4  and  N1_7
REMARK       I    between atoms: N1_7  and  C3_8
REMARK    4  A    between atoms: N1_7  and  S1_21
REMARK    5  A    between atoms: C3_8  and  C4_10
REMARK    6  A    between atoms: C4_10  and  O5_11
REMARK    7  A    between atoms: O5_11  and  C5_12
REMARK    8  A    between atoms: C5_12  and  C6_14
REMARK    9  A    between atoms: S1_21  and  C12_24
ROOT
HETATM    1  N1  UNL     1       8.356  20.522  50.900  1.00  0.00    -0.175 N
HETATM    2  C3  UNL     1       7.755  20.391  52.172  1.00  0.00     0.264 C
HETATM    3  O4  UNL     1       7.466  19.274  52.640  1.00  0.00    -0.269 OA
ENDROOT
BRANCH   1   4
HETATM    4  C2  UNL     1       8.702  19.434  50.101  1.00  0.00     0.238 C
BRANCH   4   5
HETATM    5  C1  UNL     1       9.751  18.471  50.127  1.00  0.00     0.253 C
HETATM    6  O1  UNL     1      10.026  17.603  49.305  1.00  0.00    -0.641 OA
HETATM    7  O2  UNL     1      10.634  18.477  51.251  1.00  0.00    -0.641 OA
ENDBRANCH   4   5
BRANCH   4   8
HETATM    8  O3  UNL     1       7.848  19.281  49.094  1.00  0.00    -0.340 OA
ATOM      9  H3  UNL     1       8.020  19.844  48.349  1.00  0.00     0.219 HD
ENDBRANCH   4   8
ENDBRANCH   1   4
BRANCH   1  10
HETATM   10  S1  UNL     1       8.646  22.166  50.403  1.00  0.00     0.273 S
HETATM   11  O7  UNL     1       7.283  22.795  50.156  1.00  0.00    -0.200 OA
HETATM   12  O8  UNL     1       9.270  22.882  51.557  1.00  0.00    -0.200 OA
BRANCH  10  13
HETATM   13  C12 UNL     1       9.677  22.350  49.042  1.00  0.00     0.080 A
HETATM   14  C13 UNL     1      10.604  21.409  48.652  1.00  0.00     0.025 A
HETATM   15  C14 UNL     1      11.418  21.640  47.567  1.00  0.00     0.002 A
HETATM   16  C15 UNL     1      11.330  22.808  46.845  1.00  0.00     0.000 A
HETATM   17  C16 UNL     1      10.411  23.764  47.216  1.00  0.00     0.002 A
HETATM   18  C17 UNL     1       9.604  23.521  48.302  1.00  0.00     0.025 A
ENDBRANCH  10  13
ENDBRANCH   1  10
BRANCH   2  19
HETATM   19  C4  UNL     1       7.424  21.575  53.047  1.00  0.00     0.283 C
BRANCH  19  20
HETATM   20  O5  UNL     1       6.073  21.980  52.802  1.00  0.00    -0.308 OA
BRANCH  20  21
HETATM   21  C5  UNL     1       4.969  21.294  53.246  1.00  0.00     0.293 C
HETATM   22  O6  UNL     1       4.833  21.040  54.472  1.00  0.00    -0.259 OA
BRANCH  21  23
HETATM   23  C6  UNL     1       3.945  20.852  52.319  1.00  0.00     0.040 A
HETATM   24  C7  UNL     1       2.604  20.932  52.680  1.00  0.00     0.017 A
HETATM   25  C8  UNL     1       1.578  20.539  51.867  1.00  0.00     0.002 A
HETATM   26  C9  UNL     1       1.892  20.039  50.622  1.00  0.00     0.019 A
HETATM   27  C10 UNL     1       3.217  19.933  50.201  1.00  0.00     0.011 A
HETATM   28 BR1  UNL     1       3.583  19.233  48.472  1.00  0.00    -0.051 Br
HETATM   29  C11 UNL     1       4.222  20.347  51.068  1.00  0.00     0.036 A
ENDBRANCH  21  23
ENDBRANCH  20  21
ENDBRANCH  19  20
ENDBRANCH   2  19
TORSDOF 9
ENDMDL