MODEL 1
REMARK VINA RESULT: -8.362400048      0.000      0.000
REMARK  8 active torsions:
REMARK  status: ('A' for Active; 'I' for Inactive)
REMARK    1  A    between atoms: O1_2  and  C2_3
REMARK    2  A    between atoms: N1_9  and  O2_10
REMARK    3  A    between atoms: C8_14  and  C9_15
REMARK    4  A    between atoms: C9_15  and  O3_17
REMARK    5  A    between atoms: O3_17  and  C10_18
REMARK    6  A    between atoms: C10_18  and  C11_19
REMARK       I    between atoms: C11_19  and  N3_21
REMARK    7  A    between atoms: N3_21  and  C12_23
REMARK    8  A    between atoms: C12_23  and  C13_24
ROOT
HETATM    1  C2  UNL     1      10.541  21.137  48.448  1.00  0.00     0.070 A
HETATM    2  C3  UNL     1      10.391  19.879  49.018  1.00  0.00     0.039 A
HETATM    3  C4  UNL     1       9.369  19.632  49.904  1.00  0.00     0.036 A
HETATM    4  C5  UNL     1       8.457  20.594  50.270  1.00  0.00     0.079 A
HETATM    5  C6  UNL     1       8.609  21.854  49.698  1.00  0.00     0.111 A
HETATM    6  C7  UNL     1       9.632  22.123  48.802  1.00  0.00     0.073 A
HETATM    7  N1  UNL     1       7.707  22.787  50.066  1.00  0.00    -0.160 N
HETATM    8  N2  UNL     1       6.723  22.542  50.921  1.00  0.00    -0.255 N
ATOM      9  H2  UNL     1       6.072  23.290  51.160  1.00  0.00     0.191 HD
HETATM   10  C8  UNL     1       6.565  21.327  51.482  1.00  0.00     0.181 A
HETATM   11  N4  UNL     1       7.455  20.383  51.127  1.00  0.00    -0.256 N
HETATM   12 BR1  UNL     1       7.251  18.674  51.901  1.00  0.00     0.057 Br
ENDROOT
BRANCH  10  13
HETATM   13  C9  UNL     1       5.478  21.087  52.420  1.00  0.00     0.183 C
HETATM   14  S1  UNL     1       5.644  21.453  53.997  1.00  0.00    -0.049 SA
BRANCH  13  15
HETATM   15  O3  UNL     1       4.284  20.543  51.988  1.00  0.00    -0.328 OA
BRANCH  15  16
HETATM   16  C10 UNL     1       3.509  21.192  51.004  1.00  0.00     0.279 C
BRANCH  16  17
HETATM   17  C11 UNL     1       2.610  20.161  50.387  1.00  0.00     0.242 C
HETATM   18  O4  UNL     1       1.418  20.072  50.758  1.00  0.00    -0.271 OA
HETATM   19  N3  UNL     1       3.114  19.297  49.393  1.00  0.00    -0.355 N
ATOM     20  H3  UNL     1       4.087  19.381  49.097  1.00  0.00     0.162 HD
BRANCH  19  21
HETATM   21  C12 UNL     1       2.267  18.295  48.786  1.00  0.00     0.161 C
BRANCH  21  22
HETATM   22  C13 UNL     1       1.785  18.763  47.478  1.00  0.00    -0.041 A
HETATM   23  C14 UNL     1       2.715  19.120  46.524  1.00  0.00     0.009 A
HETATM   24  C15 UNL     1       2.294  19.571  45.286  1.00  0.00     0.001 A
HETATM   25  C16 UNL     1       0.937  19.658  45.019  1.00  0.00     0.000 A
HETATM   26  C17 UNL     1       0.012  19.297  45.984  1.00  0.00     0.001 A
HETATM   27  C18 UNL     1       0.440  18.845  47.228  1.00  0.00     0.009 A
ENDBRANCH  21  22
ENDBRANCH  19  21
ENDBRANCH  16  17
ENDBRANCH  15  16
ENDBRANCH  13  15
ENDBRANCH  10  13
BRANCH   7  28
HETATM   28  O2  UNL     1       7.867  24.037  49.492  1.00  0.00    -0.267 OA
ATOM     29  H2  UNL     1       7.277  24.240  48.775  1.00  0.00     0.247 HD
ENDBRANCH   7  28
BRANCH   1  30
HETATM   30  O1  UNL     1      11.531  21.459  47.560  1.00  0.00    -0.356 OA
HETATM   31  C1  UNL     1      11.384  22.550  46.683  1.00  0.00     0.210 C
ENDBRANCH   1  30
TORSDOF 8
ENDMDL