MODEL 4
REMARK VINA RESULT: -8.394891726      3.175      5.579
REMARK  9 active torsions:
REMARK  status: ('A' for Active; 'I' for Inactive)
REMARK    1  A    between atoms: C4_4  and  C5_5
REMARK    2  A    between atoms: C5_5  and  O1_6
REMARK    3  A    between atoms: C5_5  and  N1_8
REMARK    4  A    between atoms: N1_8  and  C6_9
REMARK    5  A    between atoms: N1_8  and  S1_17
REMARK    6  A    between atoms: C6_9  and  C7_10
REMARK    7  A    between atoms: S1_17  and  C12_20
REMARK    8  A    between atoms: C20_29  and  S2_30
REMARK    9  A    between atoms: S2_30  and  N3_31
ROOT
HETATM    1  N1  UNL     1       7.058  21.167  50.768  1.00  0.00    -0.246 N
ENDROOT
BRANCH   1   2
HETATM    2  C5  UNL     1       6.627  20.370  49.732  1.00  0.00     0.162 C
BRANCH   2   3
HETATM    3  C4  UNL     1       5.381  19.817  49.314  1.00  0.00     0.016 A
HETATM    4  C3  UNL     1       4.280  19.890  50.170  1.00  0.00     0.024 A
HETATM    5  C2  UNL     1       3.023  19.405  49.877  1.00  0.00    -0.038 A
HETATM    6  C1  UNL     1       1.903  19.527  50.857  1.00  0.00     0.050 C
HETATM    7  C20 UNL     1       2.877  18.812  48.644  1.00  0.00     0.085 A
HETATM    8  C19 UNL     1       3.907  18.705  47.757  1.00  0.00     0.027 A
HETATM    9  C18 UNL     1       5.168  19.218  48.109  1.00  0.00     0.017 A
BRANCH   7  10
HETATM   10  S2  UNL     1       1.302  18.168  48.189  1.00  0.00     0.257 S
HETATM   11  O4  UNL     1       0.257  19.227  48.331  1.00  0.00    -0.201 OA
HETATM   12  O5  UNL     1       0.923  17.021  49.109  1.00  0.00    -0.201 OA
BRANCH  10  13
HETATM   13  N3  UNL     1       1.344  17.523  46.584  1.00  0.00    -0.324 N
ATOM     14  H32 UNL     1       1.448  16.530  46.373  1.00  0.00     0.169 HD
ATOM     15  H31 UNL     1       1.252  18.268  45.893  1.00  0.00     0.169 HD
ENDBRANCH  10  13
ENDBRANCH   7  10
ENDBRANCH   2   3
BRANCH   2  16
HETATM   16  O1  UNL     1       7.614  20.025  48.910  1.00  0.00    -0.345 OA
ATOM     17  H1  UNL     1       7.375  20.163  48.001  1.00  0.00     0.219 HD
ENDBRANCH   2  16
ENDBRANCH   1   2
BRANCH   1  18
HETATM   18  C6  UNL     1       6.284  21.802  51.775  1.00  0.00     0.182 C
BRANCH  18  19
HETATM   19  C7  UNL     1       6.204  21.125  53.069  1.00  0.00    -0.037 A
HETATM   20  C8  UNL     1       5.706  21.796  54.158  1.00  0.00     0.026 A
HETATM   21  C9  UNL     1       5.616  21.170  55.403  1.00  0.00     0.088 A
HETATM   22  N2  UNL     1       6.018  19.894  55.564  1.00  0.00    -0.375 N
HETATM   23  C10 UNL     1       6.503  19.245  54.496  1.00  0.00     0.088 A
ATOM     24  H2  UNL     1       5.954  19.435  56.472  1.00  0.00     0.164 HD
HETATM   25  C11 UNL     1       6.613  19.825  53.237  1.00  0.00     0.026 A
ENDBRANCH  18  19
ENDBRANCH   1  18
BRANCH   1  26
HETATM   26  S1  UNL     1       8.791  21.461  50.910  1.00  0.00     0.267 S
HETATM   27  O2  UNL     1       9.019  22.321  52.147  1.00  0.00    -0.200 OA
HETATM   28  O3  UNL     1       9.521  20.174  51.205  1.00  0.00    -0.200 OA
BRANCH  26  29
HETATM   29  C12 UNL     1       9.466  22.279  49.557  1.00  0.00     0.080 A
HETATM   30  C13 UNL     1       8.960  23.478  49.108  1.00  0.00     0.028 A
HETATM   31  C14 UNL     1       9.508  24.089  47.983  1.00  0.00     0.044 A
HETATM   32  C15 UNL     1      10.560  23.508  47.300  1.00  0.00     0.116 A
HETATM   33  F1  UNL     1      11.039  24.157  46.220  1.00  0.00    -0.206 F
HETATM   34  C16 UNL     1      11.070  22.311  47.743  1.00  0.00     0.044 A
HETATM   35  C17 UNL     1      10.511  21.726  48.860  1.00  0.00     0.028 A
ENDBRANCH  26  29
ENDBRANCH   1  26
TORSDOF 9
ENDMDL