MODEL 4
REMARK VINA RESULT: -8.036394539      1.848      2.809
REMARK  8 active torsions:
REMARK  status: ('A' for Active; 'I' for Inactive)
REMARK    1  A    between atoms: O1_2  and  C2_3
REMARK    2  A    between atoms: C5_6  and  N1_7
REMARK    3  A    between atoms: N1_7  and  C6_8
REMARK    4  A    between atoms: N1_7  and  N2_12
REMARK    5  A    between atoms: C6_8  and  C7_9
REMARK       I    between atoms: N2_12  and  C10_14
REMARK    6  A    between atoms: C10_14  and  C11_16
REMARK    7  A    between atoms: N3_18  and  O3_19
REMARK    8  A    between atoms: N5_28  and  O4_29
ROOT
HETATM    1  N2  UNL     1       7.064  21.227  50.166  1.00  0.00    -0.262 N
ATOM      2  H2  UNL     1       6.725  21.710  49.334  1.00  0.00     0.190 HD
HETATM    3  C10 UNL     1       8.441  21.145  50.313  1.00  0.00     0.290 C
HETATM    4  O2  UNL     1       8.987  20.573  51.297  1.00  0.00    -0.264 OA
ENDROOT
BRANCH   3   5
HETATM    5  C11 UNL     1       9.317  21.742  49.296  1.00  0.00     0.151 A
HETATM    6  C12 UNL     1      10.402  21.112  48.750  1.00  0.00     0.161 A
HETATM    7  N3  UNL     1      11.182  21.700  47.797  1.00  0.00    -0.230 N
HETATM    8  C13 UNL     1      10.882  22.938  47.376  1.00  0.00     0.108 A
HETATM    9  C14 UNL     1      11.673  23.545  46.397  1.00  0.00     0.037 A
HETATM   10  C17 UNL     1       9.803  23.602  47.900  1.00  0.00     0.163 A
HETATM   11  C15 UNL     1      11.348  24.809  45.978  1.00  0.00     0.019 A
HETATM   12  C16 UNL     1      10.260  25.465  46.515  1.00  0.00     0.090 A
HETATM   13  N4  UNL     1       9.528  24.843  47.453  1.00  0.00    -0.349 N
ATOM     14  H4  UNL     1       8.724  25.334  47.845  1.00  0.00     0.167 HD
HETATM   15  N5  UNL     1       9.061  22.990  48.835  1.00  0.00    -0.199 N
BRANCH   7  16
HETATM   16  O3  UNL     1      12.267  21.042  47.265  1.00  0.00    -0.283 OA
ATOM     17  H3  UNL     1      13.153  21.320  47.465  1.00  0.00     0.245 HD
ENDBRANCH   7  16
BRANCH  15  18
HETATM   18  O4  UNL     1       7.978  23.686  49.347  1.00  0.00    -0.281 OA
ATOM     19  H4  UNL     1       7.707  24.493  48.924  1.00  0.00     0.245 HD
ENDBRANCH  15  18
ENDBRANCH   3   5
BRANCH   1  20
HETATM   20  N1  UNL     1       6.080  20.718  51.040  1.00  0.00    -0.289 N
BRANCH  20  21
HETATM   21  C5  UNL     1       5.277  19.666  50.586  1.00  0.00     0.052 A
HETATM   22  C4  UNL     1       5.858  18.384  50.545  1.00  0.00     0.034 A
HETATM   23  C3  UNL     1       5.189  17.275  50.098  1.00  0.00     0.040 A
HETATM   24  C2  UNL     1       3.890  17.446  49.675  1.00  0.00     0.085 A
HETATM   25  C19 UNL     1       3.268  18.681  49.694  1.00  0.00     0.046 A
HETATM   26  C18 UNL     1       3.981  19.753  50.150  1.00  0.00     0.053 A
HETATM   27 BR1  UNL     1       1.446  18.866  49.093  1.00  0.00    -0.048 Br
BRANCH  24  28
HETATM   28  O1  UNL     1       3.171  16.373  49.216  1.00  0.00    -0.355 OA
HETATM   29  C1  UNL     1       3.495  15.654  48.052  1.00  0.00     0.210 C
ENDBRANCH  24  28
ENDBRANCH  20  21
BRANCH  20  30
HETATM   30  C6  UNL     1       6.028  21.278  52.339  1.00  0.00     0.153 C
BRANCH  30  31
HETATM   31  C7  UNL     1       5.616  20.456  53.503  1.00  0.00    -0.003 C
HETATM   32  C8  UNL     1       6.650  19.547  54.097  1.00  0.00     0.011 C
HETATM   33  C9  UNL     1       5.207  21.447  54.617  1.00  0.00     0.011 C
ENDBRANCH  30  31
ENDBRANCH  20  30
ENDBRANCH   1  20
TORSDOF 8
ENDMDL