MODEL 1
REMARK VINA RESULT: -8.849918515      0.000      0.000
REMARK  7 active torsions:
REMARK  status: ('A' for Active; 'I' for Inactive)
REMARK    1  A    between atoms: C2_2  and  N1_3
REMARK    2  A    between atoms: N1_3  and  C3_4
REMARK    3  A    between atoms: N1_3  and  S1_6
REMARK    4  A    between atoms: S1_6  and  C5_9
REMARK    5  A    between atoms: C7_11  and  S2_12
REMARK    6  A    between atoms: S2_12  and  N2_15
REMARK    7  A    between atoms: N2_15  and  C8_17
ROOT
HETATM    1  S2  UNL     1       6.174  21.126  51.943  1.00  0.00     0.264 S
HETATM    2  O3  UNL     1       5.843  22.229  52.874  1.00  0.00    -0.200 OA
HETATM    3  O4  UNL     1       6.691  19.976  52.800  1.00  0.00    -0.200 OA
ENDROOT
BRANCH   1   4
HETATM    4  C7  UNL     1       4.689  20.567  51.187  1.00  0.00     0.081 A
HETATM    5  C6  UNL     1       4.736  19.719  50.124  1.00  0.00     0.050 A
HETATM    6  C5  UNL     1       3.590  19.226  49.463  1.00  0.00     0.082 A
HETATM    7  C17 UNL     1       2.415  19.674  49.980  1.00  0.00    -0.039 A
HETATM    8  C16 UNL     1       2.350  20.542  51.068  1.00  0.00     0.010 A
HETATM    9  C18 UNL     1       1.139  19.284  49.386  1.00  0.00     0.050 C
HETATM   10  C15 UNL     1       3.481  21.001  51.686  1.00  0.00     0.026 A
BRANCH   6  11
HETATM   11  S1  UNL     1       3.830  18.129  48.163  1.00  0.00     0.244 S
HETATM   12  O1  UNL     1       5.229  17.488  48.252  1.00  0.00    -0.206 OA
HETATM   13  O2  UNL     1       2.899  16.933  48.373  1.00  0.00    -0.206 OA
BRANCH  11  14
HETATM   14  N1  UNL     1       3.579  18.669  46.595  1.00  0.00    -0.207 NA
BRANCH  14  15
HETATM   15  C2  UNL     1       4.347  18.095  45.534  1.00  0.00     0.103 C
HETATM   16  C1  UNL     1       3.763  16.861  44.906  1.00  0.00     0.021 C
ENDBRANCH  14  15
BRANCH  14  17
HETATM   17  C3  UNL     1       2.209  18.771  46.182  1.00  0.00     0.103 C
HETATM   18  C4  UNL     1       1.908  19.965  45.335  1.00  0.00     0.021 C
ENDBRANCH  14  17
ENDBRANCH  11  14
ENDBRANCH   6  11
ENDBRANCH   1   4
BRANCH   1  19
HETATM   19  N2  UNL     1       7.371  21.481  50.798  1.00  0.00    -0.265 N
ATOM     20  H2  UNL     1       7.383  22.443  50.461  1.00  0.00     0.180 HD
BRANCH  19  21
HETATM   21  C8  UNL     1       8.252  20.719  50.304  1.00  0.00     0.133 A
HETATM   22  N3  UNL     1       8.405  19.421  50.564  1.00  0.00    -0.337 N
HETATM   23  C9  UNL     1       9.381  18.690  49.983  1.00  0.00     0.182 A
ATOM     24  H3  UNL     1       7.767  18.967  51.219  1.00  0.00     0.168 HD
HETATM   25  N4  UNL     1      10.259  19.229  49.106  1.00  0.00    -0.350 N
HETATM   26  C10 UNL     1      10.144  20.538  48.811  1.00  0.00     0.067 A
ATOM     27  H4  UNL     1      10.989  18.660  48.680  1.00  0.00     0.166 HD
HETATM   28  C11 UNL     1      10.834  21.419  47.985  1.00  0.00     0.123 A
HETATM   29  C14 UNL     1       9.148  21.291  49.401  1.00  0.00     0.093 A
HETATM   30  N5  UNL     1      10.291  22.641  48.067  1.00  0.00    -0.335 N
HETATM   31  C12 UNL     1      10.712  23.839  47.366  1.00  0.00     0.158 C
HETATM   32  C13 UNL     1       9.252  22.596  48.929  1.00  0.00     0.206 A
HETATM   33  F1  UNL     1       8.470  23.657  49.253  1.00  0.00    -0.185 F
ENDBRANCH  19  21
ENDBRANCH   1  19
TORSDOF 7
ENDMDL