MODEL 1
REMARK VINA RESULT: -7.887965261      0.000      0.000
REMARK  10 active torsions:
REMARK  status: ('A' for Active; 'I' for Inactive)
REMARK    1  A    between atoms: C4_4  and  C5_5
REMARK    2  A    between atoms: C6_6  and  C7_7
REMARK    3  A    between atoms: C7_7  and  O1_8
REMARK    4  A    between atoms: O1_8  and  C8_9
REMARK    5  A    between atoms: C13_15  and  C14_16
REMARK    6  A    between atoms: C14_16  and  C15_17
REMARK    7  A    between atoms: C15_17  and  O3_19
REMARK    8  A    between atoms: O3_19  and  C16_20
REMARK    9  A    between atoms: C16_20  and  C17_21
REMARK       I    between atoms: N1_23  and  C18_24
REMARK   10  A    between atoms: C18_24  and  C19_26
ROOT
HETATM    1  C1  UNL     1       1.544  20.878  54.304  1.00  0.00     0.027 C
HETATM    2  C2  UNL     1       1.431  20.513  53.161  1.00  0.00    -0.025 C
HETATM    3  C3  UNL     1       1.306  20.058  51.814  1.00  0.00    -0.002 C
HETATM    4  C4  UNL     1       1.190  19.656  50.683  1.00  0.00    -0.001 C
ENDROOT
BRANCH   4   5
HETATM    5  C5  UNL     1       1.042  19.160  49.361  1.00  0.00    -0.012 C
HETATM    6  C6  UNL     1       0.939  18.731  48.236  1.00  0.00    -0.066 C
BRANCH   6   7
HETATM    7  C7  UNL     1       0.829  18.185  46.862  1.00  0.00     0.270 C
BRANCH   7   8
HETATM    8  O1  UNL     1       2.077  18.402  46.216  1.00  0.00    -0.339 OA
BRANCH   8   9
HETATM    9  C8  UNL     1       2.886  17.306  45.995  1.00  0.00     0.076 A
HETATM   10  C9  UNL     1       2.475  16.191  45.254  1.00  0.00     0.039 A
HETATM   11  C10 UNL     1       3.345  15.139  45.082  1.00  0.00     0.022 A
HETATM   12  C11 UNL     1       4.602  15.167  45.625  1.00  0.00     0.011 A
HETATM   13 BR1  UNL     1       5.798  13.716  45.385  1.00  0.00    -0.051 Br
HETATM   14  C12 UNL     1       5.009  16.271  46.360  1.00  0.00     0.029 A
HETATM   15  C13 UNL     1       4.167  17.337  46.550  1.00  0.00    -0.014 A
BRANCH  15  16
HETATM   16  C14 UNL     1       4.573  18.519  47.321  1.00  0.00     0.152 C
BRANCH  16  17
HETATM   17  C15 UNL     1       4.866  18.193  48.767  1.00  0.00     0.263 C
HETATM   18  O2  UNL     1       4.096  17.451  49.417  1.00  0.00    -0.265 OA
BRANCH  17  19
HETATM   19  O3  UNL     1       5.964  18.687  49.410  1.00  0.00    -0.317 OA
BRANCH  19  20
HETATM   20  C16 UNL     1       6.289  19.969  49.796  1.00  0.00     0.237 C
BRANCH  20  21
HETATM   21  C17 UNL     1       7.727  20.365  49.812  1.00  0.00     0.308 A
HETATM   22  O4  UNL     1       8.461  20.464  48.691  1.00  0.00    -0.242 OA
HETATM   23  N1  UNL     1       8.226  21.641  49.602  1.00  0.00    -0.179 N
HETATM   24  C18 UNL     1       8.746  22.972  49.380  1.00  0.00     0.346 C
HETATM   25  O5  UNL     1       8.449  23.820  50.244  1.00  0.00    -0.258 OA
BRANCH  24  26
HETATM   26  C19 UNL     1       9.558  23.345  48.252  1.00  0.00     0.272 C
HETATM   27  O6  UNL     1      10.680  22.743  48.098  1.00  0.00    -0.640 OA
HETATM   28  O7  UNL     1       9.169  24.311  47.353  1.00  0.00    -0.640 OA
ENDBRANCH  24  26
ENDBRANCH  20  21
ENDBRANCH  19  20
ENDBRANCH  17  19
ENDBRANCH  16  17
ENDBRANCH  15  16
ENDBRANCH   8   9
ENDBRANCH   7   8
ENDBRANCH   6   7
ENDBRANCH   4   5
TORSDOF 10
ENDMDL