MODEL 3
REMARK VINA RESULT: -8.372851471      3.607      6.051
REMARK  8 active torsions:
REMARK  status: ('A' for Active; 'I' for Inactive)
REMARK    1  A    between atoms: C2_2  and  N1_3
REMARK       I    between atoms: N1_3  and  C3_4
REMARK    2  A    between atoms: N1_3  and  C12_21
REMARK    3  A    between atoms: C3_4  and  C4_6
REMARK    4  A    between atoms: C4_6  and  O2_7
REMARK    5  A    between atoms: O2_7  and  C5_8
REMARK    6  A    between atoms: C5_8  and  C6_10
REMARK       I    between atoms: C6_10  and  N2_12
REMARK    7  A    between atoms: N2_12  and  C7_14
REMARK    8  A    between atoms: C15_24  and  N4_25
ROOT
HETATM    1  N1  UNL     1       5.071  20.176  52.146  1.00  0.00    -0.315 N
HETATM    2  C3  UNL     1       5.897  20.955  51.321  1.00  0.00     0.248 C
HETATM    3  O1  UNL     1       6.769  21.680  51.868  1.00  0.00    -0.271 OA
ENDROOT
BRANCH   2   4
HETATM    4  C4  UNL     1       5.780  20.973  49.869  1.00  0.00     0.282 C
BRANCH   4   5
HETATM    5  O2  UNL     1       6.781  20.334  49.128  1.00  0.00    -0.304 OA
BRANCH   5   6
HETATM    6  C5  UNL     1       7.687  19.472  49.787  1.00  0.00     0.352 C
HETATM    7  O3  UNL     1       7.277  18.295  49.982  1.00  0.00    -0.254 OA
BRANCH   6   8
HETATM    8  C6  UNL     1       9.009  19.870  50.227  1.00  0.00     0.322 C
HETATM    9  O4  UNL     1       9.861  19.073  50.670  1.00  0.00    -0.261 OA
HETATM   10  N2  UNL     1       9.367  21.250  50.152  1.00  0.00    -0.304 N
ATOM     11  H2  UNL     1       9.270  21.838  50.979  1.00  0.00     0.171 HD
BRANCH  10  12
HETATM   12  C7  UNL     1       9.815  21.773  49.047  1.00  0.00     0.107 A
HETATM   13  C8  UNL     1       9.457  23.082  48.748  1.00  0.00     0.048 A
HETATM   14  C9  UNL     1       9.932  23.675  47.575  1.00  0.00     0.005 A
HETATM   15  C10 UNL     1      10.741  22.921  46.769  1.00  0.00     0.017 A
HETATM   16  C11 UNL     1      11.070  21.621  47.109  1.00  0.00     0.089 A
HETATM   17  N3  UNL     1      10.610  21.074  48.226  1.00  0.00    -0.352 N
ATOM     18  H3  UNL     1      10.862  20.114  48.461  1.00  0.00     0.166 HD
ENDBRANCH  10  12
ENDBRANCH   6   8
ENDBRANCH   5   6
ENDBRANCH   4   5
ENDBRANCH   2   4
BRANCH   1  19
HETATM   19  C2  UNL     1       3.971  19.426  51.601  1.00  0.00     0.128 C
HETATM   20  C1  UNL     1       2.613  19.989  51.676  1.00  0.00     0.027 C
ENDBRANCH   1  19
BRANCH   1  21
HETATM   21  C12 UNL     1       5.217  20.156  53.579  1.00  0.00     0.054 A
HETATM   22  C13 UNL     1       4.658  21.232  54.299  1.00  0.00     0.033 A
HETATM   23  C14 UNL     1       4.741  21.299  55.668  1.00  0.00     0.038 A
HETATM   24  C15 UNL     1       5.383  20.295  56.357  1.00  0.00     0.104 A
HETATM   25  C16 UNL     1       5.939  19.233  55.694  1.00  0.00     0.057 A
HETATM   26  C17 UNL     1       5.843  19.185  54.288  1.00  0.00     0.040 A
HETATM   27 BR1  UNL     1       6.644  17.716  53.360  1.00  0.00    -0.049 Br
BRANCH  24  28
HETATM   28  N4  UNL     1       5.467  20.354  57.766  1.00  0.00    -0.116 N
HETATM   29  O5  UNL     1       5.890  19.384  58.434  1.00  0.00    -0.532 OA
HETATM   30  O6  UNL     1       5.070  21.498  58.405  1.00  0.00    -0.532 OA
ENDBRANCH  24  28
ENDBRANCH   1  21
TORSDOF 8
ENDMDL