MODEL 3
REMARK VINA RESULT: -8.328854730      2.696      4.744
REMARK  6 active torsions:
REMARK  status: ('A' for Active; 'I' for Inactive)
REMARK    1  A    between atoms: C2_2  and  C3_3
REMARK    2  A    between atoms: C5_8  and  C6_9
REMARK    3  A    between atoms: N3_13  and  C8_14
REMARK    4  A    between atoms: C11_17  and  C12_18
REMARK    5  A    between atoms: C12_18  and  O2_19
REMARK    6  A    between atoms: C13_22  and  C14_23
ROOT
HETATM    1  C3  UNL     1       3.829  20.193  51.796  1.00  0.00     0.188 C
HETATM    2  C4  UNL     1       4.334  20.512  50.439  1.00  0.00     0.245 C
HETATM    3  O1  UNL     1       3.547  20.596  49.483  1.00  0.00    -0.271 OA
HETATM    4  N1  UNL     1       5.733  20.780  50.129  1.00  0.00    -0.326 N
ATOM      5  H1  UNL     1       5.881  21.692  49.696  1.00  0.00     0.168 HD
HETATM    6  C5  UNL     1       6.835  20.104  50.286  1.00  0.00     0.051 C
HETATM    7  C11 UNL     1       7.146  18.775  50.854  1.00  0.00     0.176 C
HETATM    8  N4  UNL     1       6.693  18.534  52.140  1.00  0.00    -0.256 N
HETATM    9  C13 UNL     1       7.223  17.559  52.922  1.00  0.00     0.120 C
HETATM   10  S1  UNL     1       6.124  19.803  53.109  1.00  0.00     0.324 S
HETATM   11  O3  UNL     1       6.136  19.327  54.574  1.00  0.00    -0.182 OA
HETATM   12  O4  UNL     1       7.242  20.858  53.108  1.00  0.00    -0.182 OA
HETATM   13  N5  UNL     1       4.690  20.557  52.845  1.00  0.00    -0.284 N
HETATM   14  C20 UNL     1       3.953  20.811  54.091  1.00  0.00     0.165 C
ENDROOT
BRANCH   6  15
HETATM   15  C6  UNL     1       8.004  20.888  49.777  1.00  0.00     0.023 A
HETATM   16  C7  UNL     1       8.074  22.234  49.799  1.00  0.00     0.122 A
HETATM   17  N2  UNL     1       9.142  22.585  49.101  1.00  0.00    -0.309 N
HETATM   18  N3  UNL     1       9.718  21.502  48.650  1.00  0.00    -0.303 N
ATOM     19  H2  UNL     1       9.463  23.540  48.942  1.00  0.00     0.186 HD
HETATM   20  C10 UNL     1       9.031  20.436  49.057  1.00  0.00     0.124 A
BRANCH  18  21
HETATM   21  C8  UNL     1      10.884  21.554  47.757  1.00  0.00     0.143 C
HETATM   22  C9  UNL     1      10.691  22.790  46.880  1.00  0.00     0.028 C
ENDBRANCH  18  21
ENDBRANCH   6  15
BRANCH   7  23
HETATM   23  C12 UNL     1       6.914  17.713  49.821  1.00  0.00     0.196 C
BRANCH  23  24
HETATM   24  O2  UNL     1       6.111  18.121  48.743  1.00  0.00    -0.398 OA
ATOM     25  H2  UNL     1       6.406  18.917  48.315  1.00  0.00     0.209 HD
ENDBRANCH  23  24
ENDBRANCH   7  23
BRANCH   1  26
HETATM   26  C2  UNL     1       2.414  20.562  51.953  1.00  0.00     0.031 C
HETATM   27  C1  UNL     1       1.389  19.493  51.766  1.00  0.00     0.007 C
ENDBRANCH   1  26
BRANCH   9  28
HETATM   28  C14 UNL     1       7.602  16.217  52.620  1.00  0.00     0.019 A
HETATM   29  C15 UNL     1       6.750  15.184  52.432  1.00  0.00     0.016 A
HETATM   30  C16 UNL     1       7.144  13.966  51.869  1.00  0.00     0.001 A
HETATM   31  C17 UNL     1       8.468  13.812  51.490  1.00  0.00     0.003 A
HETATM   32  C18 UNL     1       9.359  14.855  51.682  1.00  0.00     0.043 A
HETATM   33  C19 UNL     1       8.959  16.040  52.232  1.00  0.00     0.128 A
HETATM   34  F1  UNL     1       9.825  17.082  52.481  1.00  0.00    -0.205 F
ENDBRANCH   9  28
TORSDOF 6
ENDMDL