MODEL 3
REMARK VINA RESULT: -6.866097566      1.111      1.365
REMARK  13 active torsions:
REMARK  status: ('A' for Active; 'I' for Inactive)
REMARK    1  A    between atoms: C2_2  and  O1_3
REMARK    2  A    between atoms: O1_3  and  C3_4
REMARK       I    between atoms: N1_6  and  C5_7
REMARK    3  A    between atoms: C5_7  and  C6_9
REMARK    4  A    between atoms: C6_9  and  C7_10
REMARK    5  A    between atoms: C12_15  and  C13_17
REMARK    6  A    between atoms: C14_18  and  C15_19
REMARK    7  A    between atoms: C15_19  and  N2_20
REMARK    8  A    between atoms: N2_20  and  O3_21
REMARK    9  A    between atoms: N2_20  and  C16_23
REMARK   10  A    between atoms: C16_23  and  C17_24
REMARK   11  A    between atoms: C17_24  and  N3_25
REMARK       I    between atoms: N3_25  and  C18_27
REMARK   12  A    between atoms: C18_27  and  O5_29
REMARK   13  A    between atoms: O5_29  and  C19_30
ROOT
HETATM    1  C3  UNL     1       4.226  18.930  49.893  1.00  0.00     0.282 C
HETATM    2  C4  UNL     1       3.956  18.834  48.401  1.00  0.00     0.186 C
HETATM    3  N1  UNL     1       3.304  17.551  48.162  1.00  0.00    -0.341 N
HETATM    4  C5  UNL     1       2.087  17.477  47.451  1.00  0.00     0.220 C
HETATM    5  O2  UNL     1       1.545  16.373  47.255  1.00  0.00    -0.273 OA
HETATM    6  C11 UNL     1       3.916  16.324  48.664  1.00  0.00     0.214 C
HETATM    7  C12 UNL     1       4.552  16.636  50.003  1.00  0.00     0.289 C
HETATM    8  F1  UNL     1       4.340  15.593  50.895  1.00  0.00    -0.195 F
HETATM    9  O6  UNL     1       3.925  17.743  50.540  1.00  0.00    -0.308 OA
ENDROOT
BRANCH   7  10
HETATM   10  C13 UNL     1       5.981  16.925  49.877  1.00  0.00    -0.031 C
HETATM   11  C14 UNL     1       7.162  17.143  49.783  1.00  0.00    -0.084 C
BRANCH  11  12
HETATM   12  C15 UNL     1       8.622  17.385  49.677  1.00  0.00     0.214 C
BRANCH  12  13
HETATM   13  N2  UNL     1       8.920  18.692  50.190  1.00  0.00    -0.187 NA
BRANCH  13  14
HETATM   14  O3  UNL     1       9.637  18.646  51.323  1.00  0.00    -0.312 OA
ATOM     15  H3  UNL     1       9.097  18.745  52.098  1.00  0.00     0.237 HD
ENDBRANCH  13  14
BRANCH  13  16
HETATM   16  C16 UNL     1       9.497  19.598  49.233  1.00  0.00     0.141 C
BRANCH  16  17
HETATM   17  C17 UNL     1       8.753  20.893  49.127  1.00  0.00     0.141 C
BRANCH  17  18
HETATM   18  N3  UNL     1       7.571  20.861  49.944  1.00  0.00    -0.336 N
HETATM   19  C18 UNL     1       7.475  21.609  51.129  1.00  0.00     0.361 C
HETATM   20  O4  UNL     1       8.345  22.363  51.607  1.00  0.00    -0.238 OA
ATOM     21  H3  UNL     1       6.783  20.280  49.657  1.00  0.00     0.164 HD
BRANCH  19  22
HETATM   22  O5  UNL     1       6.290  21.533  51.891  1.00  0.00    -0.294 OA
BRANCH  22  23
HETATM   23  C19 UNL     1       6.182  20.814  53.074  1.00  0.00     0.061 C
HETATM   24  C20 UNL     1       4.687  20.788  53.427  1.00  0.00     0.046 C
HETATM   25  C21 UNL     1       6.643  19.398  52.981  1.00  0.00     0.046 C
HETATM   26  C22 UNL     1       6.868  21.458  54.256  1.00  0.00     0.046 C
ENDBRANCH  22  23
ENDBRANCH  19  22
ENDBRANCH  17  18
ENDBRANCH  16  17
ENDBRANCH  13  16
ENDBRANCH  12  13
ENDBRANCH  11  12
ENDBRANCH   7  10
BRANCH   1  27
HETATM   27  O1  UNL     1       3.447  19.920  50.485  1.00  0.00    -0.360 OA
BRANCH  27  28
HETATM   28  C2  UNL     1       2.221  19.406  50.929  1.00  0.00     0.166 C
HETATM   29  C1  UNL     1       1.315  20.472  51.450  1.00  0.00     0.033 C
ENDBRANCH  27  28
ENDBRANCH   1  27
BRANCH   4  30
HETATM   30  C6  UNL     1       1.454  18.704  46.937  1.00  0.00     0.111 C
BRANCH  30  31
HETATM   31  C7  UNL     1       1.417  18.658  45.407  1.00  0.00    -0.043 C
HETATM   32  C8  UNL     1       2.640  18.005  44.849  1.00  0.00     0.015 C
HETATM   33  C9  UNL     1       0.190  17.857  44.972  1.00  0.00     0.015 C
HETATM   34  C10 UNL     1       1.253  20.057  44.865  1.00  0.00     0.015 C
ENDBRANCH  30  31
ENDBRANCH   4  30
TORSDOF 13
ENDMDL