MODEL 2
REMARK VINA RESULT: -8.696363822      2.230      2.998
REMARK  6 active torsions:
REMARK  status: ('A' for Active; 'I' for Inactive)
REMARK    1  A    between atoms: O1_2  and  C2_3
REMARK    2  A    between atoms: C5_6  and  C6_7
REMARK    3  A    between atoms: C6_7  and  C7_8
REMARK    4  A    between atoms: C7_8  and  N1_9
REMARK       I    between atoms: N1_9  and  C8_11
REMARK    5  A    between atoms: C8_11  and  C9_13
REMARK    6  A    between atoms: C9_13  and  N2_14
ROOT
HETATM    1  N2  UNL     1       8.428  20.288  50.717  1.00  0.00    -0.272 N
HETATM    2  C10 UNL     1       7.890  21.504  50.968  1.00  0.00     0.253 A
HETATM    3  O3  UNL     1       7.055  21.607  51.905  1.00  0.00    -0.268 OA
HETATM    4  C11 UNL     1       8.258  22.613  50.198  1.00  0.00     0.105 A
HETATM    5  C12 UNL     1       9.176  22.452  49.183  1.00  0.00     0.054 A
HETATM    6  N3  UNL     1       9.450  23.582  48.517  1.00  0.00    -0.349 N
ATOM      7  H3  UNL     1       9.159  24.439  48.987  1.00  0.00     0.166 HD
HETATM    8  C13 UNL     1      10.054  23.769  47.313  1.00  0.00     0.080 C
HETATM    9 BR1  UNL     1       9.710  25.447  46.506  1.00  0.00    -0.031 Br
HETATM   10  C14 UNL     1      10.862  22.865  46.668  1.00  0.00     0.037 C
HETATM   11  C15 UNL     1      11.208  21.571  46.988  1.00  0.00     0.004 C
HETATM   12  C16 UNL     1      10.669  20.770  47.968  1.00  0.00     0.019 C
HETATM   13  C17 UNL     1       9.746  21.147  48.923  1.00  0.00     0.059 A
HETATM   14  C18 UNL     1       9.332  20.100  49.726  1.00  0.00     0.263 A
HETATM   15  O4  UNL     1       9.809  18.950  49.527  1.00  0.00    -0.267 OA
ENDROOT
BRANCH   1  16
HETATM   16  C9  UNL     1       8.031  19.167  51.524  1.00  0.00     0.238 C
BRANCH  16  17
HETATM   17  C8  UNL     1       6.830  18.501  50.972  1.00  0.00     0.236 C
HETATM   18  N1  UNL     1       6.674  18.302  49.587  1.00  0.00    -0.359 N
ATOM     19  H1  UNL     1       7.408  18.625  48.956  1.00  0.00     0.162 HD
HETATM   20  O2  UNL     1       5.946  18.113  51.768  1.00  0.00    -0.272 OA
BRANCH  18  21
HETATM   21  C7  UNL     1       5.523  17.663  49.039  1.00  0.00     0.127 C
BRANCH  21  22
HETATM   22  C6  UNL     1       4.496  18.562  48.432  1.00  0.00     0.058 C
BRANCH  22  23
HETATM   23  C5  UNL     1       3.607  19.150  49.439  1.00  0.00    -0.057 A
HETATM   24  C4  UNL     1       3.783  20.424  49.890  1.00  0.00     0.010 A
HETATM   25  C3  UNL     1       2.902  20.942  50.844  1.00  0.00     0.037 A
HETATM   26  C2  UNL     1       1.853  20.210  51.351  1.00  0.00     0.068 A
HETATM   27  C20 UNL     1       1.704  18.924  50.873  1.00  0.00     0.037 A
HETATM   28  C19 UNL     1       2.559  18.390  49.932  1.00  0.00     0.010 A
BRANCH  26  29
HETATM   29  O1  UNL     1       0.972  20.728  52.304  1.00  0.00    -0.356 OA
HETATM   30  C1  UNL     1       1.381  20.690  53.657  1.00  0.00     0.210 C
ENDBRANCH  26  29
ENDBRANCH  22  23
ENDBRANCH  21  22
ENDBRANCH  18  21
ENDBRANCH  16  17
ENDBRANCH   1  16
TORSDOF 6
ENDMDL