MODEL 3
REMARK VINA RESULT: -8.236038787      2.397      5.264
REMARK  8 active torsions:
REMARK  status: ('A' for Active; 'I' for Inactive)
REMARK    1  A    between atoms: C2_3  and  S1_4
REMARK    2  A    between atoms: S1_4  and  C3_6
REMARK    3  A    between atoms: C3_6  and  C4_7
REMARK    4  A    between atoms: C4_7  and  C5_9
REMARK    5  A    between atoms: C7_11  and  N2_12
REMARK       I    between atoms: N2_12  and  C8_14
REMARK    6  A    between atoms: C8_14  and  C9_16
REMARK    7  A    between atoms: C9_16  and  C10_17
REMARK    8  A    between atoms: N4_26  and  C16_27
ROOT
HETATM    1  N1  UNL     1      10.741  22.764  46.859  1.00  0.00    -0.196 NA
HETATM    2  C1  UNL     1      10.301  22.925  47.929  1.00  0.00     0.071 C
HETATM    3  C2  UNL     1       9.748  23.107  49.281  1.00  0.00     0.232 C
ENDROOT
BRANCH   3   4
HETATM    4  S1  UNL     1       8.999  21.656  49.807  1.00  0.00     0.035 S
HETATM    5  O1  UNL     1       8.597  20.533  48.725  1.00  0.00    -0.257 OA
BRANCH   4   6
HETATM    6  C3  UNL     1       8.255  21.636  51.358  1.00  0.00     0.195 C
BRANCH   6   7
HETATM    7  C4  UNL     1       7.484  20.422  51.675  1.00  0.00     0.189 C
HETATM    8  O2  UNL     1       8.062  19.390  52.052  1.00  0.00    -0.290 OA
BRANCH   7   9
HETATM    9  C5  UNL     1       6.044  20.433  51.550  1.00  0.00     0.107 A
HETATM   10  C6  UNL     1       5.283  20.285  50.382  1.00  0.00     0.085 A
HETATM   11  C7  UNL     1       3.941  20.358  50.735  1.00  0.00     0.125 A
HETATM   12  N3  UNL     1       3.925  20.543  52.066  1.00  0.00    -0.278 N
HETATM   13  N4  UNL     1       5.148  20.587  52.545  1.00  0.00    -0.251 N
ATOM     14  H3  UNL     1       3.079  20.637  52.628  1.00  0.00     0.189 HD
BRANCH  11  15
HETATM   15  N2  UNL     1       3.004  20.258  49.886  1.00  0.00    -0.312 N
HETATM   16  C8  UNL     1       2.164  19.147  49.697  1.00  0.00     0.227 C
HETATM   17  O3  UNL     1       0.975  19.214  50.078  1.00  0.00    -0.273 OA
ATOM     18  H2  UNL     1       2.844  21.063  49.280  1.00  0.00     0.170 HD
BRANCH  16  19
HETATM   19  C9  UNL     1       2.670  17.931  49.062  1.00  0.00     0.141 C
BRANCH  19  20
HETATM   20  C10 UNL     1       2.662  17.967  47.595  1.00  0.00    -0.048 A
HETATM   21  C11 UNL     1       3.342  17.002  46.888  1.00  0.00     0.007 A
HETATM   22  C12 UNL     1       3.357  17.007  45.496  1.00  0.00     0.002 A
HETATM   23  C13 UNL     1       2.671  18.004  44.815  1.00  0.00     0.024 A
HETATM   24  C14 UNL     1       1.982  18.981  45.516  1.00  0.00     0.034 A
HETATM   25 CL1  UNL     1       1.115  20.243  44.665  1.00  0.00    -0.084 Cl
HETATM   26  C15 UNL     1       1.982  18.955  46.914  1.00  0.00     0.031 A
ENDBRANCH  19  20
ENDBRANCH  16  19
ENDBRANCH  11  15
BRANCH  13  27
HETATM   27  C16 UNL     1       5.465  20.775  53.933  1.00  0.00     0.057 A
HETATM   28  C17 UNL     1       5.768  22.020  54.423  1.00  0.00     0.031 A
HETATM   29  C18 UNL     1       6.073  22.220  55.743  1.00  0.00     0.002 A
HETATM   30  C19 UNL     1       6.085  21.153  56.641  1.00  0.00     0.000 A
HETATM   31  C20 UNL     1       5.777  19.914  56.122  1.00  0.00     0.002 A
HETATM   32  C21 UNL     1       5.470  19.709  54.793  1.00  0.00     0.031 A
ENDBRANCH  13  27
ENDBRANCH   7   9
ENDBRANCH   6   7
ENDBRANCH   4   6
ENDBRANCH   3   4
TORSDOF 8
ENDMDL