MODEL 5
REMARK VINA RESULT: -8.715843476      0.776      1.354
REMARK  9 active torsions:
REMARK  status: ('A' for Active; 'I' for Inactive)
REMARK    1  A    between atoms: N1_8  and  O1_9
REMARK    2  A    between atoms: C10_13  and  N2_14
REMARK       I    between atoms: N2_14  and  C11_16
REMARK    3  A    between atoms: C11_16  and  C12_18
REMARK    4  A    between atoms: C12_18  and  O3_19
REMARK    5  A    between atoms: O3_19  and  C13_20
REMARK    6  A    between atoms: C13_20  and  C14_22
REMARK    7  A    between atoms: C14_22  and  O5_23
REMARK    8  A    between atoms: O5_23  and  C15_24
REMARK    9  A    between atoms: N3_32  and  O6_33
ROOT
HETATM    1  N2  UNL     1       7.455  19.484  52.704  1.00  0.00    -0.308 N
ATOM      2  H2  UNL     1       7.892  20.019  53.454  1.00  0.00     0.170 HD
HETATM    3  C11 UNL     1       6.414  18.707  53.167  1.00  0.00     0.247 C
HETATM    4  O2  UNL     1       5.806  17.848  52.477  1.00  0.00    -0.271 OA
ENDROOT
BRANCH   1   5
HETATM    5  C10 UNL     1       8.067  19.726  51.460  1.00  0.00     0.161 A
HETATM    6  C8  UNL     1       8.626  18.838  50.596  1.00  0.00     0.083 A
HETATM    7  N1  UNL     1       9.321  19.294  49.498  1.00  0.00    -0.223 N
HETATM    8  C9  UNL     1       8.421  17.367  50.714  1.00  0.00     0.075 C
HETATM    9  C6  UNL     1       9.472  20.595  49.234  1.00  0.00     0.092 A
HETATM   10  C5  UNL     1       8.912  21.513  50.090  1.00  0.00     0.094 A
HETATM   11  C7  UNL     1      10.165  21.066  48.139  1.00  0.00     0.041 A
HETATM   12  C4  UNL     1       9.060  22.879  49.825  1.00  0.00     0.035 A
HETATM   13  N3  UNL     1       8.242  21.076  51.152  1.00  0.00    -0.204 N
HETATM   14  C3  UNL     1       9.758  23.318  48.723  1.00  0.00     0.009 A
HETATM   15  C2  UNL     1      10.323  22.404  47.860  1.00  0.00    -0.060 A
HETATM   16  C1  UNL     1      11.078  22.895  46.667  1.00  0.00     0.048 C
BRANCH   7  17
HETATM   17  O1  UNL     1       9.866  18.363  48.664  1.00  0.00    -0.282 OA
ATOM     18  H1  UNL     1       9.576  18.308  47.761  1.00  0.00     0.245 HD
ENDBRANCH   7  17
BRANCH  13  19
HETATM   19  O6  UNL     1       7.707  22.036  51.981  1.00  0.00    -0.281 OA
ATOM     20  H6  UNL     1       8.318  22.648  52.372  1.00  0.00     0.245 HD
ENDBRANCH  13  19
ENDBRANCH   1   5
BRANCH   3  21
HETATM   21  C12 UNL     1       5.935  18.862  54.581  1.00  0.00     0.281 C
BRANCH  21  22
HETATM   22  O3  UNL     1       5.219  20.018  54.846  1.00  0.00    -0.310 OA
BRANCH  22  23
HETATM   23  C13 UNL     1       4.826  20.919  53.866  1.00  0.00     0.283 C
HETATM   24  O4  UNL     1       5.447  22.005  53.748  1.00  0.00    -0.263 OA
BRANCH  23  25
HETATM   25  C14 UNL     1       3.696  20.669  52.934  1.00  0.00     0.286 C
BRANCH  25  26
HETATM   26  O5  UNL     1       4.103  21.034  51.653  1.00  0.00    -0.342 OA
BRANCH  26  27
HETATM   27  C15 UNL     1       3.966  20.300  50.509  1.00  0.00     0.070 A
HETATM   28  C16 UNL     1       5.026  19.971  49.701  1.00  0.00     0.038 A
HETATM   29  C17 UNL     1       4.807  19.227  48.562  1.00  0.00     0.027 A
HETATM   30  C18 UNL     1       3.542  18.801  48.215  1.00  0.00     0.040 A
HETATM   31 CL1  UNL     1       3.261  17.858  46.775  1.00  0.00    -0.084 Cl
HETATM   32  C19 UNL     1       2.455  19.120  49.017  1.00  0.00    -0.038 A
HETATM   33  C20 UNL     1       1.065  18.673  48.667  1.00  0.00     0.050 C
HETATM   34  C21 UNL     1       2.708  19.867  50.148  1.00  0.00     0.045 A
ENDBRANCH  26  27
ENDBRANCH  25  26
ENDBRANCH  23  25
ENDBRANCH  22  23
ENDBRANCH  21  22
ENDBRANCH   3  21
TORSDOF 9
ENDMDL