MODEL 4
REMARK VINA RESULT: -9.967643084      1.431      1.626
REMARK  8 active torsions:
REMARK  status: ('A' for Active; 'I' for Inactive)
REMARK    1  A    between atoms: N1_3  and  O1_4
REMARK    2  A    between atoms: C4_7  and  C5_8
REMARK       I    between atoms: C5_8  and  N2_10
REMARK    3  A    between atoms: N2_10  and  C6_11
REMARK    4  A    between atoms: C6_11  and  C7_12
REMARK    5  A    between atoms: C12_17  and  O3_18
REMARK    6  A    between atoms: O3_18  and  C13_19
REMARK    7  A    between atoms: C13_19  and  C14_20
REMARK    8  A    between atoms: N4_32  and  O5_33
ROOT
HETATM    1  C1  UNL     1       9.928  23.171  47.961  1.00  0.00     0.094 C
HETATM    2  C2  UNL     1       9.267  22.153  48.797  1.00  0.00     0.134 A
HETATM    3  N1  UNL     1       8.253  22.541  49.640  1.00  0.00    -0.221 N
HETATM    4  C3  UNL     1       7.655  21.639  50.408  1.00  0.00     0.146 A
HETATM    5  C4  UNL     1       8.079  20.308  50.332  1.00  0.00     0.104 A
HETATM    6  C21 UNL     1       9.061  19.932  49.510  1.00  0.00     0.162 A
HETATM    7  C22 UNL     1       9.545  18.549  49.446  1.00  0.00     0.121 C
HETATM    8  N3  UNL     1       9.878  17.482  49.406  1.00  0.00    -0.190 NA
HETATM    9  N4  UNL     1       9.649  20.902  48.731  1.00  0.00    -0.199 N
ENDROOT
BRANCH   5  10
HETATM   10  C5  UNL     1       7.321  19.261  51.083  1.00  0.00     0.330 C
HETATM   11  O2  UNL     1       7.764  19.120  52.266  1.00  0.00    -0.251 OA
HETATM   12  N2  UNL     1       6.298  18.597  50.515  1.00  0.00    -0.378 NA
BRANCH  12  13
HETATM   13  C6  UNL     1       5.235  17.906  49.927  1.00  0.00     0.202 C
BRANCH  13  14
HETATM   14  C7  UNL     1       3.992  18.760  49.948  1.00  0.00     0.046 C
HETATM   15  C8  UNL     1       4.135  19.911  50.714  1.00  0.00     0.018 C
HETATM   16  C9  UNL     1       3.130  20.452  51.548  1.00  0.00     0.001 C
HETATM   17  C10 UNL     1       1.741  20.186  51.472  1.00  0.00     0.003 C
HETATM   18  C11 UNL     1       1.120  19.578  50.353  1.00  0.00     0.041 C
HETATM   19  C12 UNL     1       1.541  18.616  49.500  1.00  0.00     0.120 C
HETATM   20  C20 UNL     1       2.888  18.334  49.237  1.00  0.00     0.217 C
HETATM   21  O4  UNL     1       3.133  17.619  48.261  1.00  0.00    -0.284 OA
BRANCH  19  22
HETATM   22  O3  UNL     1       0.567  17.848  48.819  1.00  0.00    -0.343 OA
BRANCH  22  23
HETATM   23  C13 UNL     1      -0.212  18.552  47.903  1.00  0.00     0.217 C
BRANCH  23  24
HETATM   24  C14 UNL     1       0.405  18.747  46.554  1.00  0.00     0.004 A
HETATM   25  C15 UNL     1       0.651  19.929  45.919  1.00  0.00     0.012 A
HETATM   26  C16 UNL     1       1.267  19.994  44.656  1.00  0.00     0.001 A
HETATM   27  C17 UNL     1       1.643  18.821  44.016  1.00  0.00     0.003 A
HETATM   28  C18 UNL     1       1.386  17.642  44.668  1.00  0.00     0.043 A
HETATM   29  C19 UNL     1       0.793  17.574  45.891  1.00  0.00     0.124 A
HETATM   30  F1  UNL     1       0.572  16.385  46.503  1.00  0.00    -0.205 F
ENDBRANCH  23  24
ENDBRANCH  22  23
ENDBRANCH  19  22
ENDBRANCH  13  14
ENDBRANCH  12  13
ENDBRANCH   5  10
BRANCH   9  31
HETATM   31  O5  UNL     1      10.683  20.479  47.909  1.00  0.00    -0.280 OA
ATOM     32  H5  UNL     1      11.589  20.460  48.194  1.00  0.00     0.245 HD
ENDBRANCH   9  31
BRANCH   3  33
HETATM   33  O1  UNL     1       7.871  23.881  49.665  1.00  0.00    -0.282 OA
ATOM     34  H1  UNL     1       8.512  24.546  49.441  1.00  0.00     0.245 HD
ENDBRANCH   3  33
TORSDOF 8
ENDMDL