MODEL 4
REMARK VINA RESULT: -7.685965400      1.283      1.581
REMARK  8 active torsions:
REMARK  status: ('A' for Active; 'I' for Inactive)
REMARK    1  A    between atoms: O1_2  and  C2_3
REMARK    2  A    between atoms: C2_3  and  C3_5
REMARK    3  A    between atoms: C4_7  and  C5_8
REMARK    4  A    between atoms: C5_8  and  N1_9
REMARK    5  A    between atoms: C12_17  and  C13_18
REMARK    6  A    between atoms: C13_18  and  C14_19
REMARK    7  A    between atoms: C14_19  and  C15_20
REMARK       I    between atoms: C15_20  and  N2_22
REMARK    8  A    between atoms: N2_22  and  C16_24
ROOT
HETATM    1  C3  UNL     1       4.689  19.885  51.105  1.00  0.00     0.157 A
HETATM    2  O3  UNL     1       3.428  19.576  50.884  1.00  0.00    -0.307 OA
HETATM    3  C4  UNL     1       3.293  18.457  50.240  1.00  0.00     0.072 A
HETATM    4  C11 UNL     1       4.565  17.996  50.021  1.00  0.00     0.044 A
HETATM    5  C12 UNL     1       5.476  18.895  50.566  1.00  0.00    -0.015 A
ENDROOT
BRANCH   5   6
HETATM    6  C13 UNL     1       6.925  18.772  50.537  1.00  0.00     0.051 C
BRANCH   6   7
HETATM    7  C14 UNL     1       7.685  19.605  49.580  1.00  0.00     0.108 C
BRANCH   7   8
HETATM    8  C15 UNL     1       9.135  19.408  49.534  1.00  0.00     0.236 C
HETATM    9  O4  UNL     1       9.607  18.273  49.327  1.00  0.00    -0.273 OA
HETATM   10  N2  UNL     1      10.007  20.539  49.732  1.00  0.00    -0.159 N
ATOM     11  H2  UNL     1      10.447  20.698  50.638  1.00  0.00     0.187 HD
BRANCH  10  12
HETATM   12  C16 UNL     1      10.228  21.360  48.736  1.00  0.00     0.686 A
HETATM   13  N3  UNL     1      11.074  21.129  47.720  1.00  0.00    -0.200 N
HETATM   14  C17 UNL     1      11.075  22.162  46.861  1.00  0.00     0.124 A
ATOM     15  H3  UNL     1      11.638  20.286  47.614  1.00  0.00     0.183 HD
HETATM   16  C18 UNL     1      10.176  23.056  47.404  1.00  0.00     0.126 A
HETATM   17  N4  UNL     1       9.674  22.549  48.542  1.00  0.00    -0.196 N
HETATM   18  C19 UNL     1       8.691  23.194  49.412  1.00  0.00     0.175 C
ENDBRANCH  10  12
ENDBRANCH   7   8
ENDBRANCH   6   7
ENDBRANCH   5   6
BRANCH   1  19
HETATM   19  C2  UNL     1       5.105  21.091  51.812  1.00  0.00     0.317 C
HETATM   20  O2  UNL     1       5.705  22.042  51.282  1.00  0.00    -0.257 OA
BRANCH  19  21
HETATM   21  O1  UNL     1       4.841  21.251  53.181  1.00  0.00    -0.321 OA
HETATM   22  C1  UNL     1       5.833  21.692  54.093  1.00  0.00     0.213 C
ENDBRANCH  19  21
ENDBRANCH   1  19
BRANCH   3  23
HETATM   23  C5  UNL     1       1.992  17.820  49.831  1.00  0.00     0.192 C
BRANCH  23  24
HETATM   24  N1  UNL     1       2.012  17.613  48.401  1.00  0.00    -0.359 N
HETATM   25  C6  UNL     1       2.357  16.437  47.868  1.00  0.00     0.091 A
HETATM   26  C7  UNL     1       2.362  16.286  46.505  1.00  0.00     0.019 A
HETATM   27  C8  UNL     1       2.021  17.309  45.661  1.00  0.00     0.022 A
HETATM   28  C9  UNL     1       1.667  18.520  46.219  1.00  0.00     0.026 A
HETATM   29 BR1  UNL     1       1.188  19.970  45.094  1.00  0.00    -0.050 Br
HETATM   30  C10 UNL     1       1.676  18.629  47.604  1.00  0.00     0.110 A
ENDBRANCH  23  24
ENDBRANCH   3  23
TORSDOF 8
ENDMDL