MODEL 2
REMARK VINA RESULT: -8.464345214      2.290      3.173
REMARK  9 active torsions:
REMARK  status: ('A' for Active; 'I' for Inactive)
REMARK    1  A    between atoms: N1_2  and  C2_3
REMARK       I    between atoms: N1_2  and  C10_15
REMARK    2  A    between atoms: C2_3  and  C3_4
REMARK       I    between atoms: C3_4  and  N2_6
REMARK    3  A    between atoms: N2_6  and  C4_8
REMARK    4  A    between atoms: C10_15  and  C11_17
REMARK    5  A    between atoms: C11_17  and  O3_18
REMARK    6  A    between atoms: O3_18  and  C12_19
REMARK    7  A    between atoms: N3_22  and  O4_23
REMARK    8  A    between atoms: C15_25  and  N4_26
REMARK    9  A    between atoms: C16_29  and  O7_30
ROOT
HETATM    1  C1  UNL     1       6.908  17.930  51.369  1.00  0.00     0.153 C
HETATM    2  N1  UNL     1       7.677  17.448  50.229  1.00  0.00    -0.346 N
HETATM    3  C10 UNL     1       8.922  18.085  49.938  1.00  0.00     0.244 C
HETATM    4  O2  UNL     1       9.614  17.699  48.965  1.00  0.00    -0.271 OA
ENDROOT
BRANCH   3   5
HETATM    5  C11 UNL     1       9.422  19.202  50.764  1.00  0.00     0.278 C
BRANCH   5   6
HETATM    6  O3  UNL     1      10.222  20.072  50.059  1.00  0.00    -0.339 OA
BRANCH   6   7
HETATM    7  C12 UNL     1       9.891  21.244  49.417  1.00  0.00     0.107 A
HETATM    8  C13 UNL     1       8.896  22.108  49.809  1.00  0.00     0.059 A
HETATM    9  C14 UNL     1       8.629  23.281  49.088  1.00  0.00     0.128 A
HETATM   10  N3  UNL     1       9.331  23.609  47.990  1.00  0.00    -0.211 N
HETATM   11  C15 UNL     1      10.311  22.776  47.588  1.00  0.00     0.235 A
HETATM   12  C16 UNL     1      10.605  21.613  48.268  1.00  0.00     0.152 A
BRANCH  10  13
HETATM   13  O4  UNL     1       9.070  24.754  47.284  1.00  0.00    -0.281 OA
ATOM     14  H4  UNL     1       9.408  24.887  46.407  1.00  0.00     0.245 HD
ENDBRANCH  10  13
BRANCH  11  15
HETATM   15  N4  UNL     1      11.093  23.083  46.416  1.00  0.00    -0.092 N
HETATM   16  O5  UNL     1      11.356  22.202  45.577  1.00  0.00    -0.530 OA
HETATM   17  O6  UNL     1      11.556  24.369  46.222  1.00  0.00    -0.530 OA
ENDBRANCH  11  15
BRANCH  12  18
HETATM   18  O7  UNL     1      11.615  20.761  47.851  1.00  0.00    -0.355 OA
ATOM     19  H7  UNL     1      11.570  20.441  46.957  1.00  0.00     0.218 HD
ENDBRANCH  12  18
ENDBRANCH   6   7
ENDBRANCH   5   6
ENDBRANCH   3   5
BRANCH   2  20
HETATM   20  C2  UNL     1       7.219  16.374  49.404  1.00  0.00     0.228 C
BRANCH  20  21
HETATM   21  C3  UNL     1       5.904  16.740  48.797  1.00  0.00     0.240 C
HETATM   22  O1  UNL     1       4.899  16.030  49.039  1.00  0.00    -0.271 OA
HETATM   23  N2  UNL     1       5.797  17.868  47.965  1.00  0.00    -0.326 N
ATOM     24  H2  UNL     1       6.648  18.408  47.809  1.00  0.00     0.169 HD
BRANCH  23  25
HETATM   25  C4  UNL     1       4.629  18.321  47.328  1.00  0.00     0.034 A
HETATM   26  C5  UNL     1       4.475  17.974  45.987  1.00  0.00     0.031 A
HETATM   27  C6  UNL     1       3.387  18.323  45.236  1.00  0.00     0.021 A
HETATM   28  C7  UNL     1       2.386  19.057  45.824  1.00  0.00     0.011 A
HETATM   29 BR1  UNL     1       0.878  19.531  44.750  1.00  0.00    -0.051 Br
HETATM   30  C8  UNL     1       2.505  19.417  47.142  1.00  0.00     0.021 A
HETATM   31  C9  UNL     1       3.617  19.052  47.891  1.00  0.00     0.031 A
ENDBRANCH  23  25
ENDBRANCH  20  21
ENDBRANCH   2  20
TORSDOF 9
ENDMDL