MODEL 5
REMARK VINA RESULT: -8.054067596      2.338      4.030
REMARK  8 active torsions:
REMARK  status: ('A' for Active; 'I' for Inactive)
REMARK    1  A    between atoms: C3_3  and  N1_4
REMARK    2  A    between atoms: N1_4  and  C4_5
REMARK    3  A    between atoms: N1_4  and  C13_17
REMARK    4  A    between atoms: C4_5  and  C5_6
REMARK    5  A    between atoms: C5_6  and  S1_7
REMARK    6  A    between atoms: S1_7  and  C6_9
REMARK    7  A    between atoms: C6_9  and  C7_10
REMARK    8  A    between atoms: C14_18  and  N2_19
ROOT
HETATM    1  C1  UNL     1       7.293  17.104  53.254  1.00  0.00     0.014 C
HETATM    2  C2  UNL     1       7.405  18.187  52.743  1.00  0.00    -0.098 C
HETATM    3  C3  UNL     1       7.523  19.479  52.113  1.00  0.00     0.216 C
ENDROOT
BRANCH   3   4
HETATM    4  N1  UNL     1       7.292  19.431  50.656  1.00  0.00    -0.362 N
BRANCH   4   5
HETATM    5  C4  UNL     1       6.044  18.862  50.277  1.00  0.00     0.137 C
BRANCH   5   6
HETATM    6  C5  UNL     1       5.711  19.025  48.792  1.00  0.00     0.129 C
BRANCH   6   7
HETATM    7  S1  UNL     1       3.964  19.265  48.731  1.00  0.00     0.020 S
HETATM    8  O1  UNL     1       3.305  19.662  50.202  1.00  0.00    -0.258 OA
BRANCH   7   9
HETATM    9  C6  UNL     1       3.068  18.092  47.825  1.00  0.00     0.149 C
BRANCH   9  10
HETATM   10  C7  UNL     1       2.444  18.590  46.590  1.00  0.00    -0.025 A
HETATM   11  C8  UNL     1       3.017  18.568  45.358  1.00  0.00     0.010 A
HETATM   12  C9  UNL     1       2.368  19.024  44.212  1.00  0.00     0.001 A
HETATM   13  C10 UNL     1       1.111  19.512  44.305  1.00  0.00     0.002 A
HETATM   14  C11 UNL     1       0.489  19.555  45.525  1.00  0.00     0.024 A
HETATM   15  C12 UNL     1       1.142  19.103  46.646  1.00  0.00     0.041 A
HETATM   16 CL1  UNL     1       0.309  19.179  48.170  1.00  0.00    -0.084 Cl
ENDBRANCH   9  10
ENDBRANCH   7   9
ENDBRANCH   6   7
ENDBRANCH   5   6
ENDBRANCH   4   5
BRANCH   4  17
HETATM   17  C13 UNL     1       8.304  19.959  49.858  1.00  0.00     0.145 A
HETATM   18  C14 UNL     1       9.339  19.196  49.388  1.00  0.00     0.154 A
HETATM   19  N3  UNL     1      10.296  19.758  48.569  1.00  0.00    -0.292 N
HETATM   20  C19 UNL     1      10.215  21.049  48.234  1.00  0.00     0.328 A
ATOM     21  H3  UNL     1      11.066  19.189  48.218  1.00  0.00     0.172 HD
HETATM   22  O4  UNL     1      11.132  21.512  47.474  1.00  0.00    -0.247 OA
HETATM   23  N4  UNL     1       9.220  21.833  48.674  1.00  0.00    -0.273 N
HETATM   24  C20 UNL     1       8.278  21.308  49.469  1.00  0.00     0.279 A
ATOM     25  H4  UNL     1       9.181  22.816  48.406  1.00  0.00     0.173 HD
HETATM   26  O5  UNL     1       7.320  22.012  49.907  1.00  0.00    -0.265 OA
BRANCH  18  27
HETATM   27  N2  UNL     1       9.454  17.847  49.766  1.00  0.00    -0.227 N
HETATM   28  C15 UNL     1      10.217  17.366  50.850  1.00  0.00     0.256 A
HETATM   29  O2  UNL     1      10.893  18.061  51.633  1.00  0.00    -0.268 OA
HETATM   30  C16 UNL     1      10.093  15.913  50.910  1.00  0.00     0.080 A
HETATM   31  C17 UNL     1       9.303  15.521  49.924  1.00  0.00     0.080 A
HETATM   32  C18 UNL     1       8.866  16.717  49.162  1.00  0.00     0.256 A
HETATM   33  O3  UNL     1       8.106  16.602  48.169  1.00  0.00    -0.268 OA
ENDBRANCH  18  27
ENDBRANCH   4  17
ENDBRANCH   3   4
TORSDOF 8
ENDMDL