MODEL 3
REMARK VINA RESULT: -7.460106124      2.006      3.308
REMARK  7 active torsions:
REMARK  status: ('A' for Active; 'I' for Inactive)
REMARK    1  A    between atoms: O1_2  and  C2_3
REMARK    2  A    between atoms: C2_3  and  C3_4
REMARK    3  A    between atoms: N3_13  and  C9_14
REMARK    4  A    between atoms: C9_14  and  C10_15
REMARK    5  A    between atoms: C10_15  and  C11_16
REMARK    6  A    between atoms: C11_16  and  O2_17
REMARK    7  A    between atoms: O2_17  and  C12_18
ROOT
HETATM    1  C3  UNL     1       5.789  17.380  50.419  1.00  0.00     0.157 C
HETATM    2  C4  UNL     1       4.576  17.015  49.668  1.00  0.00     0.253 C
HETATM    3  C5  UNL     1       4.387  17.618  48.305  1.00  0.00     0.085 C
HETATM    4  C6  UNL     1       2.904  17.518  48.690  1.00  0.00     0.296 C
HETATM    5 BR1  UNL     1       1.825  18.977  48.103  1.00  0.00    -0.058 Br
HETATM    6  N1  UNL     1       3.359  17.603  50.086  1.00  0.00     0.113 N
HETATM    7  C7  UNL     1       3.430  18.951  50.531  1.00  0.00     0.318 C
HETATM    8  C8  UNL     1       4.640  19.305  51.322  1.00  0.00     0.266 A
HETATM    9  N2  UNL     1       5.835  18.663  50.996  1.00  0.00    -0.301 N
HETATM   10  N3  UNL     1       6.721  19.594  50.512  1.00  0.00    -0.119 NA
HETATM   11  S1  UNL     1       5.464  20.789  50.735  1.00  0.00     0.253 S
HETATM   12  O3  UNL     1       4.921  21.309  49.452  1.00  0.00    -0.207 OA
HETATM   13  O4  UNL     1       5.749  21.794  51.781  1.00  0.00    -0.207 OA
ENDROOT
BRANCH  10  14
HETATM   14  C9  UNL     1       7.800  19.871  51.428  1.00  0.00     0.134 C
BRANCH  14  15
HETATM   15  C10 UNL     1       9.156  19.699  50.796  1.00  0.00     0.044 C
BRANCH  15  16
HETATM   16  C11 UNL     1       9.027  20.150  49.344  1.00  0.00     0.177 C
BRANCH  16  17
HETATM   17  O2  UNL     1      10.272  20.696  48.980  1.00  0.00    -0.351 OA
BRANCH  17  18
HETATM   18  C12 UNL     1      10.317  21.841  48.202  1.00  0.00     0.068 A
HETATM   19  C13 UNL     1      11.131  21.958  47.105  1.00  0.00     0.038 A
HETATM   20  C14 UNL     1      11.138  23.109  46.372  1.00  0.00     0.029 A
HETATM   21  C15 UNL     1      10.337  24.171  46.707  1.00  0.00     0.046 A
HETATM   22  N4  UNL     1      10.318  25.390  45.962  1.00  0.00    -0.102 NA
HETATM   23  C16 UNL     1       9.527  24.040  47.808  1.00  0.00     0.029 A
HETATM   24  C17 UNL     1       9.488  22.906  48.570  1.00  0.00     0.038 A
ENDBRANCH  17  18
ENDBRANCH  16  17
ENDBRANCH  15  16
ENDBRANCH  14  15
ENDBRANCH  10  14
BRANCH   1  25
HETATM   25  C2  UNL     1       6.989  17.129  49.491  1.00  0.00     0.195 C
BRANCH  25  26
HETATM   26  O1  UNL     1       7.891  16.375  50.238  1.00  0.00    -0.394 OA
HETATM   27  C1  UNL     1       9.090  16.173  49.565  1.00  0.00     0.201 C
ENDBRANCH  25  26
ENDBRANCH   1  25
TORSDOF 7
ENDMDL