MODEL 3
REMARK VINA RESULT: -8.172286141      1.077      1.126
REMARK  7 active torsions:
REMARK  status: ('A' for Active; 'I' for Inactive)
REMARK    1  A    between atoms: N2_5  and  C3_6
REMARK    2  A    between atoms: C3_6  and  C4_7
REMARK    3  A    between atoms: C4_7  and  C5_8
REMARK    4  A    between atoms: C5_8  and  C6_9
REMARK    5  A    between atoms: C6_9  and  N3_10
REMARK    6  A    between atoms: C12_19  and  C13_20
REMARK    7  A    between atoms: C13_20  and  C14_21
ROOT
HETATM    1  C1  UNL     1       7.692  18.054  49.825  1.00  0.00     0.045 C
HETATM    2  C2  UNL     1       6.954  19.061  50.252  1.00  0.00     0.054 A
HETATM    3  N1  UNL     1       5.589  18.958  50.362  1.00  0.00    -0.296 N
ATOM      4  H1  UNL     1       5.035  18.132  50.134  1.00  0.00     0.187 HD
HETATM    5  N2  UNL     1       5.118  20.087  50.805  1.00  0.00    -0.257 N
HETATM    6  C11 UNL     1       6.101  20.961  51.003  1.00  0.00     0.274 A
HETATM    7  O1  UNL     1       5.998  22.154  51.428  1.00  0.00    -0.266 OA
HETATM    8  C12 UNL     1       7.312  20.314  50.650  1.00  0.00     0.061 A
ENDROOT
BRANCH   5   9
HETATM    9  C3  UNL     1       3.693  20.380  51.057  1.00  0.00     0.152 C
BRANCH   9  10
HETATM   10  C4  UNL     1       2.933  19.125  50.770  1.00  0.00     0.023 C
BRANCH  10  11
HETATM   11  C5  UNL     1       1.846  19.319  49.757  1.00  0.00     0.022 C
BRANCH  11  12
HETATM   12  C6  UNL     1       1.717  18.106  48.838  1.00  0.00     0.130 C
BRANCH  12  13
HETATM   13  N3  UNL     1       2.023  18.463  47.476  1.00  0.00    -0.336 N
HETATM   14  C7  UNL     1       1.274  19.188  46.639  1.00  0.00     0.185 A
HETATM   15  N4  UNL     1       1.914  19.295  45.461  1.00  0.00    -0.354 N
HETATM   16  C8  UNL     1       1.449  20.000  44.274  1.00  0.00     0.156 C
HETATM   17  C9  UNL     1       3.067  18.639  45.540  1.00  0.00     0.128 A
HETATM   18  C10 UNL     1       3.137  18.109  46.825  1.00  0.00     0.098 A
HETATM   19 BR1  UNL     1       4.598  17.062  47.489  1.00  0.00    -0.030 Br
ENDBRANCH  12  13
ENDBRANCH  11  12
ENDBRANCH  10  11
ENDBRANCH   9  10
ENDBRANCH   5   9
BRANCH   8  20
HETATM   20  C13 UNL     1       8.476  20.918  50.735  1.00  0.00     0.031 C
BRANCH  20  21
HETATM   21  C14 UNL     1       9.227  21.506  49.661  1.00  0.00    -0.032 A
HETATM   22  C15 UNL     1      10.331  20.866  49.083  1.00  0.00     0.014 A
HETATM   23  C16 UNL     1      11.010  21.419  48.023  1.00  0.00     0.040 A
HETATM   24  C17 UNL     1      10.631  22.633  47.480  1.00  0.00     0.105 A
HETATM   25  C18 UNL     1       9.549  23.288  48.027  1.00  0.00     0.105 A
HETATM   26  O3  UNL     1      11.088  23.432  46.448  1.00  0.00    -0.323 OA
HETATM   27  C19 UNL     1       8.874  22.732  49.084  1.00  0.00     0.051 A
HETATM   28  O2  UNL     1       9.355  24.488  47.317  1.00  0.00    -0.323 OA
HETATM   29  C20 UNL     1      10.407  24.660  46.415  1.00  0.00     0.352 C
ENDBRANCH  20  21
ENDBRANCH   8  20
TORSDOF 7
ENDMDL