MODEL 3
REMARK VINA RESULT: -8.076321042      0.773      1.083
REMARK  8 active torsions:
REMARK  status: ('A' for Active; 'I' for Inactive)
REMARK    1  A    between atoms: C2_2  and  C3_3
REMARK    2  A    between atoms: C5_5  and  C6_6
REMARK    3  A    between atoms: C6_6  and  S1_7
REMARK    4  A    between atoms: S1_7  and  C7_8
REMARK    5  A    between atoms: C7_8  and  C8_9
REMARK       I    between atoms: C8_9  and  N1_11
REMARK    6  A    between atoms: N1_11  and  C9_12
REMARK       I    between atoms: N1_11  and  C16_25
REMARK    7  A    between atoms: C9_12  and  C10_13
REMARK       I    between atoms: C10_13  and  N2_15
REMARK    8  A    between atoms: N2_15  and  C11_17
ROOT
HETATM    1  C8  UNL     1       5.493  18.626  50.558  1.00  0.00     0.238 C
HETATM    2  O1  UNL     1       5.523  17.709  49.705  1.00  0.00    -0.272 OA
HETATM    3  N1  UNL     1       6.696  18.973  51.221  1.00  0.00    -0.253 N
HETATM    4  C16 UNL     1       7.887  18.281  50.906  1.00  0.00     0.293 C
HETATM    5  O3  UNL     1       7.869  17.377  50.052  1.00  0.00    -0.629 OA
HETATM    6  O4  UNL     1       9.057  18.627  51.558  1.00  0.00    -0.629 OA
ENDROOT
BRANCH   3   7
HETATM    7  C9  UNL     1       6.705  20.039  52.226  1.00  0.00     0.241 C
BRANCH   7   8
HETATM    8  C10 UNL     1       7.066  21.342  51.587  1.00  0.00     0.241 C
HETATM    9  O2  UNL     1       6.135  22.071  51.165  1.00  0.00    -0.271 OA
HETATM   10  N2  UNL     1       8.388  21.781  51.440  1.00  0.00    -0.312 N
ATOM     11  H2  UNL     1       8.893  22.016  52.294  1.00  0.00     0.170 HD
BRANCH  10  12
HETATM   12  C11 UNL     1       9.022  21.916  50.341  1.00  0.00     0.107 A
HETATM   13  C12 UNL     1       9.142  23.155  49.765  1.00  0.00     0.050 A
HETATM   14  C13 UNL     1       9.830  23.296  48.572  1.00  0.00     0.024 A
HETATM   15  C14 UNL     1      10.388  22.173  47.978  1.00  0.00     0.026 A
HETATM   16 BR1  UNL     1      11.336  22.361  46.336  1.00  0.00    -0.050 Br
HETATM   17  C15 UNL     1      10.246  20.943  48.588  1.00  0.00     0.108 A
HETATM   18  N3  UNL     1       9.566  20.848  49.755  1.00  0.00    -0.351 N
ATOM     19  H3  UNL     1       9.468  19.934  50.198  1.00  0.00     0.166 HD
ENDBRANCH  10  12
ENDBRANCH   7   8
ENDBRANCH   3   7
BRANCH   1  20
HETATM   20  C7  UNL     1       4.239  19.347  50.881  1.00  0.00     0.177 C
BRANCH  20  21
HETATM   21  S1  UNL     1       3.277  19.578  49.355  1.00  0.00    -0.153 SA
BRANCH  21  22
HETATM   22  C6  UNL     1       1.645  18.819  49.489  1.00  0.00     0.141 C
BRANCH  22  23
HETATM   23  C5  UNL     1       0.946  18.930  48.166  1.00  0.00     0.087 A
HETATM   24  C4  UNL     1       1.489  18.881  46.899  1.00  0.00     0.062 A
HETATM   25  C3  UNL     1       0.464  19.027  45.985  1.00  0.00     0.034 A
HETATM   26  N4  UNL     1      -0.648  19.158  46.731  1.00  0.00    -0.265 N
HETATM   27  O5  UNL     1      -0.356  19.100  47.993  1.00  0.00    -0.241 OA
ATOM     28  H4  UNL     1      -1.588  19.284  46.356  1.00  0.00     0.194 HD
BRANCH  25  29
HETATM   29  C2  UNL     1       0.573  19.037  44.488  1.00  0.00     0.054 C
HETATM   30  C1  UNL     1       1.552  20.054  44.006  1.00  0.00     0.011 C
ENDBRANCH  25  29
ENDBRANCH  22  23
ENDBRANCH  21  22
ENDBRANCH  20  21
ENDBRANCH   1  20
TORSDOF 8
ENDMDL