MODEL 5
REMARK VINA RESULT: -9.422407400      2.317      7.212
REMARK  7 active torsions:
REMARK  status: ('A' for Active; 'I' for Inactive)
REMARK    1  A    between atoms: C1_2  and  C2_3
REMARK       I    between atoms: C1_2  and  N2_18
REMARK    2  A    between atoms: C2_3  and  C3_4
REMARK    3  A    between atoms: C3_4  and  C4_5
REMARK    4  A    between atoms: C4_5  and  N1_6
REMARK    5  A    between atoms: N2_18  and  C13_20
REMARK    6  A    between atoms: C13_20  and  C14_21
REMARK    7  A    between atoms: C14_21  and  N3_22
ROOT
HETATM    1  O1  UNL     1       5.449  21.813  52.418  1.00  0.00    -0.274 OA
HETATM    2  C1  UNL     1       5.490  20.563  52.439  1.00  0.00     0.217 C
HETATM    3  N2  UNL     1       4.328  19.855  51.958  1.00  0.00    -0.359 N
ATOM      4  H2  UNL     1       4.320  18.835  51.959  1.00  0.00     0.162 HD
ENDROOT
BRANCH   2   5
HETATM    5  C2  UNL     1       6.630  19.786  52.917  1.00  0.00     0.104 C
BRANCH   5   6
HETATM    6  C3  UNL     1       7.860  19.976  52.079  1.00  0.00     0.029 C
BRANCH   6   7
HETATM    7  C4  UNL     1       7.706  19.617  50.650  1.00  0.00     0.136 C
BRANCH   7   8
HETATM    8  N1  UNL     1       8.518  20.417  49.761  1.00  0.00    -0.280 N
HETATM    9  C5  UNL     1       9.643  20.076  48.966  1.00  0.00     0.261 A
HETATM   10  O2  UNL     1      10.148  18.929  48.908  1.00  0.00    -0.267 OA
HETATM   11  C6  UNL     1      10.118  21.246  48.235  1.00  0.00     0.048 A
HETATM   12  C7  UNL     1      11.157  21.438  47.349  1.00  0.00     0.021 A
HETATM   13  C11 UNL     1       9.284  22.282  48.588  1.00  0.00     0.051 A
HETATM   14  C8  UNL     1      11.378  22.686  46.797  1.00  0.00     0.043 A
HETATM   15  C9  UNL     1      10.552  23.734  47.141  1.00  0.00     0.117 A
HETATM   16  F1  UNL     1      10.722  24.993  46.626  1.00  0.00    -0.206 F
HETATM   17  C10 UNL     1       9.522  23.514  48.028  1.00  0.00     0.060 A
HETATM   18  C12 UNL     1       8.275  21.801  49.538  1.00  0.00     0.261 A
HETATM   19  O3  UNL     1       7.370  22.533  50.040  1.00  0.00    -0.267 OA
ENDBRANCH   7   8
ENDBRANCH   6   7
ENDBRANCH   5   6
ENDBRANCH   2   5
BRANCH   3  20
HETATM   20  C13 UNL     1       3.177  20.576  51.475  1.00  0.00     0.143 C
BRANCH  20  21
HETATM   21  C14 UNL     1       2.156  19.771  50.766  1.00  0.00     0.165 C
BRANCH  21  22
HETATM   22  N3  UNL     1       2.448  19.372  49.431  1.00  0.00    -0.235 N
HETATM   23  C15 UNL     1       1.590  19.117  48.363  1.00  0.00     0.269 A
HETATM   24  O4  UNL     1       0.327  19.217  48.487  1.00  0.00    -0.266 OA
HETATM   25  C16 UNL     1       2.253  18.740  47.139  1.00  0.00     0.056 A
HETATM   26  C17 UNL     1       1.670  18.441  45.901  1.00  0.00     0.018 A
HETATM   27  C21 UNL     1       3.605  18.684  47.198  1.00  0.00     0.095 A
HETATM   28  C18 UNL     1       2.429  18.109  44.803  1.00  0.00     0.001 A
HETATM   29  C19 UNL     1       3.800  18.052  44.862  1.00  0.00     0.002 A
HETATM   30  C20 UNL     1       4.363  18.348  46.084  1.00  0.00     0.026 A
HETATM   31  S1  UNL     1       4.047  19.082  48.853  1.00  0.00     0.268 S
HETATM   32  O5  UNL     1       4.664  17.876  49.472  1.00  0.00    -0.200 OA
HETATM   33  O6  UNL     1       4.909  20.290  48.930  1.00  0.00    -0.200 OA
ENDBRANCH  21  22
ENDBRANCH  20  21
ENDBRANCH   3  20
TORSDOF 7
ENDMDL