MODEL 2
REMARK VINA RESULT: -6.543319610      1.648      2.206
REMARK  9 active torsions:
REMARK  status: ('A' for Active; 'I' for Inactive)
REMARK    1  A    between atoms: C3_4  and  C4_5
REMARK       I    between atoms: C4_5  and  N2_7
REMARK    2  A    between atoms: N2_7  and  C5_9
REMARK    3  A    between atoms: C8_12  and  C9_13
REMARK    4  A    between atoms: C12_16  and  N3_17
REMARK    5  A    between atoms: N3_17  and  C13_18
REMARK    6  A    between atoms: N3_17  and  C15_22
REMARK    7  A    between atoms: C13_18  and  C14_19
REMARK    8  A    between atoms: C14_19  and  O2_20
REMARK    9  A    between atoms: C15_22  and  C16_23
ROOT
HETATM    1  C5  UNL     1       5.808  21.295  52.216  1.00  0.00     0.122 A
HETATM    2  C6  UNL     1       6.097  21.449  50.881  1.00  0.00     0.052 A
HETATM    3  C7  UNL     1       5.260  20.929  49.888  1.00  0.00     0.035 A
HETATM    4  C8  UNL     1       4.140  20.261  50.277  1.00  0.00     0.058 A
HETATM    5  N4  UNL     1       3.871  20.118  51.586  1.00  0.00    -0.298 N
ATOM      6  H4  UNL     1       3.030  19.616  51.868  1.00  0.00     0.187 HD
HETATM    7  N5  UNL     1       4.663  20.609  52.512  1.00  0.00    -0.285 N
ATOM      8  H5  UNL     1       4.414  20.473  53.492  1.00  0.00     0.188 HD
ENDROOT
BRANCH   4   9
HETATM    9  C9  UNL     1       3.211  19.697  49.285  1.00  0.00    -0.008 A
HETATM   10  C10 UNL     1       3.650  19.443  48.016  1.00  0.00     0.016 A
HETATM   11  C11 UNL     1       2.814  18.920  47.045  1.00  0.00     0.030 A
HETATM   12  C12 UNL     1       1.493  18.630  47.308  1.00  0.00     0.030 A
HETATM   13  C17 UNL     1       1.054  18.895  48.611  1.00  0.00     0.030 A
HETATM   14  C18 UNL     1       1.900  19.416  49.568  1.00  0.00     0.016 A
BRANCH  12  15
HETATM   15  N3  UNL     1       0.616  18.110  46.315  1.00  0.00    -0.378 N
BRANCH  15  16
HETATM   16  C13 UNL     1       1.083  18.099  44.935  1.00  0.00     0.149 C
BRANCH  16  17
HETATM   17  C14 UNL     1       0.576  19.209  44.088  1.00  0.00     0.183 C
BRANCH  17  18
HETATM   18  O2  UNL     1       1.355  20.343  44.114  1.00  0.00    -0.399 OA
ATOM     19  H2  UNL     1       1.179  20.955  43.410  1.00  0.00     0.209 HD
ENDBRANCH  17  18
ENDBRANCH  16  17
ENDBRANCH  15  16
BRANCH  15  20
HETATM   20  C15 UNL     1      -0.680  17.576  46.647  1.00  0.00     0.134 C
BRANCH  20  21
HETATM   21  C16 UNL     1      -0.741  16.077  46.386  1.00  0.00     0.105 C
HETATM   22 BR1  UNL     1       0.257  15.091  47.715  1.00  0.00    -0.095 Br
ENDBRANCH  20  21
ENDBRANCH  15  20
ENDBRANCH  12  15
ENDBRANCH   4   9
BRANCH   1  23
HETATM   23  N2  UNL     1       6.541  21.745  53.178  1.00  0.00    -0.310 N
HETATM   24  C4  UNL     1       6.180  21.889  54.524  1.00  0.00     0.258 C
HETATM   25  O1  UNL     1       5.094  22.454  54.810  1.00  0.00    -0.271 OA
ATOM     26  H2  UNL     1       7.489  22.029  52.930  1.00  0.00     0.170 HD
BRANCH  24  27
HETATM   27  C3  UNL     1       6.985  21.420  55.665  1.00  0.00     0.344 C
HETATM   28  C2  UNL     1       6.888  22.366  56.851  1.00  0.00     0.320 C
HETATM   29  N1  UNL     1       5.953  21.791  57.782  1.00  0.00     0.115 N
HETATM   30  C1  UNL     1       6.630  21.494  59.018  1.00  0.00     0.312 C
HETATM   31  C20 UNL     1       5.493  20.554  57.197  1.00  0.00     0.542 C
HETATM   32  N6  UNL     1       6.517  20.200  56.272  1.00  0.00     0.127 N
HETATM   33  C19 UNL     1       6.255  19.121  55.393  1.00  0.00     0.313 C
ENDBRANCH  24  27
ENDBRANCH   1  23
TORSDOF 9
ENDMDL