MODEL 1
REMARK VINA RESULT: -7.778856577      0.000      0.000
REMARK  10 active torsions:
REMARK  status: ('A' for Active; 'I' for Inactive)
REMARK    1  A    between atoms: C2_2  and  O1_3
REMARK    2  A    between atoms: O1_3  and  C3_4
REMARK    3  A    between atoms: C3_4  and  C4_6
REMARK    4  A    between atoms: C4_6  and  C5_7
REMARK    5  A    between atoms: C5_7  and  C6_8
REMARK    6  A    between atoms: C9_11  and  C10_12
REMARK    7  A    between atoms: N1_14  and  O3_16
REMARK    8  A    between atoms: O3_16  and  C12_17
REMARK    9  A    between atoms: C12_17  and  C13_18
REMARK   10  A    between atoms: C14_21  and  C15_22
ROOT
HETATM    1  C10 UNL     1       4.344  19.045  48.817  1.00  0.00     0.072 C
HETATM    2  C11 UNL     1       3.841  18.817  47.445  1.00  0.00     0.077 C
HETATM    3  N1  UNL     1       4.278  18.043  46.561  1.00  0.00    -0.267 N
ATOM      4  H1  UNL     1       3.741  18.088  45.696  1.00  0.00     0.194 HD
HETATM    5  C14 UNL     1       2.525  19.594  47.388  1.00  0.00     0.165 C
HETATM    6  C21 UNL     1       1.999  19.019  48.705  1.00  0.00     0.238 C
HETATM    7  O5  UNL     1       0.894  18.570  48.893  1.00  0.00    -0.272 OA
HETATM    8  N3  UNL     1       3.138  19.159  49.607  1.00  0.00    -0.319 N
HETATM    9  C22 UNL     1       2.983  19.376  51.015  1.00  0.00     0.159 C
ENDROOT
BRANCH   1  10
HETATM   10  C9  UNL     1       5.582  19.287  49.186  1.00  0.00    -0.007 A
HETATM   11  C8  UNL     1       6.035  20.608  49.303  1.00  0.00     0.014 A
HETATM   12  C7  UNL     1       7.342  20.945  49.568  1.00  0.00     0.012 A
HETATM   13  C6  UNL     1       8.311  19.988  49.744  1.00  0.00    -0.040 A
HETATM   14  C24 UNL     1       7.905  18.682  49.640  1.00  0.00     0.012 A
HETATM   15  C23 UNL     1       6.569  18.347  49.367  1.00  0.00     0.014 A
BRANCH  13  16
HETATM   16  C5  UNL     1       9.569  20.294  50.014  1.00  0.00    -0.006 C
BRANCH  16  17
HETATM   17  C4  UNL     1      10.555  20.641  48.962  1.00  0.00     0.139 C
BRANCH  17  18
HETATM   18  C3  UNL     1      10.396  22.028  48.490  1.00  0.00     0.262 C
HETATM   19  O2  UNL     1      10.325  22.954  49.369  1.00  0.00    -0.265 OA
BRANCH  18  20
HETATM   20  O1  UNL     1      10.318  22.396  47.153  1.00  0.00    -0.322 OA
BRANCH  20  21
HETATM   21  C2  UNL     1      11.139  23.414  46.617  1.00  0.00     0.174 C
HETATM   22  C1  UNL     1      10.334  24.675  46.368  1.00  0.00     0.034 C
ENDBRANCH  20  21
ENDBRANCH  18  20
ENDBRANCH  17  18
ENDBRANCH  16  17
ENDBRANCH  13  16
ENDBRANCH   1  10
BRANCH   3  23
HETATM   23  O3  UNL     1       5.293  17.169  46.499  1.00  0.00    -0.271 OA
BRANCH  23  24
HETATM   24  C12 UNL     1       5.209  15.859  45.984  1.00  0.00     0.300 C
BRANCH  24  25
HETATM   25  C13 UNL     1       3.863  15.532  45.460  1.00  0.00     0.257 C
HETATM   26  N2  UNL     1       3.572  15.931  44.125  1.00  0.00    -0.060 NA
HETATM   27  O4  UNL     1       3.050  14.934  46.188  1.00  0.00    -0.274 OA
ENDBRANCH  24  25
ENDBRANCH  23  24
ENDBRANCH   3  23
BRANCH   5  28
HETATM   28  C15 UNL     1       1.691  19.194  46.266  1.00  0.00    -0.039 A
HETATM   29  C16 UNL     1       0.939  18.026  46.298  1.00  0.00     0.011 A
HETATM   30  C17 UNL     1       0.164  17.673  45.218  1.00  0.00     0.043 A
HETATM   31  C18 UNL     1       0.130  18.475  44.101  1.00  0.00     0.116 A
HETATM   32  F1  UNL     1      -0.655  18.080  43.053  1.00  0.00    -0.206 F
HETATM   33  C19 UNL     1       0.871  19.619  44.077  1.00  0.00     0.043 A
HETATM   34  C20 UNL     1       1.650  19.991  45.142  1.00  0.00     0.011 A
ENDBRANCH   5  28
TORSDOF 10
ENDMDL