MODEL 5
REMARK VINA RESULT: -8.252210010      3.054      7.741
REMARK  9 active torsions:
REMARK  status: ('A' for Active; 'I' for Inactive)
REMARK    1  A    between atoms: C2_2  and  C4_4
REMARK    2  A    between atoms: C4_4  and  C5_5
REMARK    3  A    between atoms: C7_9  and  C8_10
REMARK    4  A    between atoms: C8_10  and  N2_11
REMARK    5  A    between atoms: C8_10  and  C16_21
REMARK    6  A    between atoms: N2_11  and  C9_13
REMARK    7  A    between atoms: C9_13  and  C10_14
REMARK    8  A    between atoms: N4_28  and  C21_29
REMARK    9  A    between atoms: C21_29  and  C22_30
REMARK       I    between atoms: C22_30  and  N5_32
ROOT
HETATM    1  C5  UNL     1       8.854  22.145  48.891  1.00  0.00     0.089 A
HETATM    2  C6  UNL     1       7.960  22.872  49.602  1.00  0.00     0.115 A
HETATM    3  N1  UNL     1       7.018  22.281  50.331  1.00  0.00    -0.349 N
ATOM      4  H1  UNL     1       6.371  22.879  50.846  1.00  0.00     0.167 HD
HETATM    5  C7  UNL     1       6.855  20.903  50.441  1.00  0.00     0.138 A
HETATM    6  N4  UNL     1       7.705  20.154  49.762  1.00  0.00    -0.288 N
HETATM    7  C25 UNL     1       8.660  20.742  49.021  1.00  0.00     0.269 A
HETATM    8  O2  UNL     1       9.449  20.002  48.391  1.00  0.00    -0.266 OA
ENDROOT
BRANCH   5   9
HETATM    9  C8  UNL     1       5.884  20.564  51.232  1.00  0.00     0.085 C
BRANCH   9  10
HETATM   10  N2  UNL     1       6.313  20.324  52.629  1.00  0.00    -0.382 N
ATOM     11  H2  UNL     1       6.140  19.416  53.060  1.00  0.00     0.160 HD
BRANCH  10  12
HETATM   12  C9  UNL     1       6.966  21.351  53.378  1.00  0.00     0.158 C
BRANCH  12  13
HETATM   13  C10 UNL     1       6.604  21.130  54.809  1.00  0.00    -0.040 A
HETATM   14  C11 UNL     1       6.140  19.888  55.189  1.00  0.00     0.012 A
HETATM   15  C12 UNL     1       5.797  19.608  56.494  1.00  0.00     0.043 A
HETATM   16  C13 UNL     1       5.920  20.592  57.433  1.00  0.00     0.116 A
HETATM   17  F1  UNL     1       5.570  20.283  58.726  1.00  0.00    -0.206 F
HETATM   18  C14 UNL     1       6.382  21.851  57.087  1.00  0.00     0.043 A
HETATM   19  C15 UNL     1       6.717  22.096  55.771  1.00  0.00     0.012 A
ENDBRANCH  12  13
ENDBRANCH  10  12
ENDBRANCH   9  10
BRANCH   9  20
HETATM   20  C16 UNL     1       4.485  20.357  51.112  1.00  0.00     0.009 A
HETATM   21  C17 UNL     1       3.579  20.470  52.146  1.00  0.00     0.016 A
HETATM   22  C18 UNL     1       2.255  20.183  51.980  1.00  0.00     0.018 A
HETATM   23  C19 UNL     1       1.756  19.762  50.758  1.00  0.00     0.087 A
HETATM   24  N3  UNL     1       2.666  19.664  49.774  1.00  0.00    -0.374 N
HETATM   25  C20 UNL     1       3.955  19.928  49.883  1.00  0.00     0.101 A
ATOM     26  H3  UNL     1       2.331  19.357  48.861  1.00  0.00     0.164 HD
ENDBRANCH   9  20
ENDBRANCH   5   9
BRANCH   6  27
HETATM   27  C21 UNL     1       7.641  18.720  49.751  1.00  0.00     0.236 C
BRANCH  27  28
HETATM   28  C22 UNL     1       8.493  18.051  50.758  1.00  0.00     0.237 C
HETATM   29  O1  UNL     1       8.707  18.601  51.845  1.00  0.00    -0.272 OA
HETATM   30  N5  UNL     1       9.055  16.787  50.470  1.00  0.00    -0.359 N
HETATM   31  C23 UNL     1       8.761  16.200  49.173  1.00  0.00     0.152 C
HETATM   32  C24 UNL     1       9.886  16.055  51.378  1.00  0.00     0.152 C
ENDBRANCH  27  28
ENDBRANCH   6  27
BRANCH   1  33
HETATM   33  C4  UNL     1       9.880  22.470  48.178  1.00  0.00    -0.133 C
BRANCH  33  34
HETATM   34  C2  UNL     1      10.972  22.823  47.411  1.00  0.00     0.049 C
HETATM   35  C1  UNL     1      11.487  21.837  46.368  1.00  0.00     0.022 C
HETATM   36  C3  UNL     1      10.640  24.169  46.667  1.00  0.00     0.022 C
ENDBRANCH  33  34
ENDBRANCH   1  33
TORSDOF 9
ENDMDL