MODEL 2
REMARK VINA RESULT: -7.971885211      1.969      3.506
REMARK  10 active torsions:
REMARK  status: ('A' for Active; 'I' for Inactive)
REMARK    1  A    between atoms: C2_2  and  C3_3
REMARK    2  A    between atoms: C3_3  and  N1_4
REMARK    3  A    between atoms: N1_4  and  C4_5
REMARK    4  A    between atoms: N1_4  and  C8_11
REMARK    5  A    between atoms: C4_5  and  C5_6
REMARK       I    between atoms: C5_6  and  N2_8
REMARK    6  A    between atoms: C8_11  and  O2_12
REMARK    7  A    between atoms: C8_11  and  C9_14
REMARK    8  A    between atoms: N5_23  and  C13_24
REMARK    9  A    between atoms: C13_24  and  C14_25
REMARK   10  A    between atoms: C20_32  and  N6_33
ROOT
HETATM    1  C9  UNL     1       2.653  18.580  50.159  1.00  0.00     0.031 A
HETATM    2  C10 UNL     1       2.171  19.497  51.116  1.00  0.00     0.105 A
HETATM    3  N3  UNL     1       2.976  20.266  51.854  1.00  0.00    -0.350 N
ATOM      4  H3  UNL     1       2.559  20.907  52.529  1.00  0.00     0.166 HD
HETATM    5  C11 UNL     1       4.304  20.227  51.741  1.00  0.00     0.123 A
HETATM    6  N4  UNL     1       5.097  21.005  52.488  1.00  0.00    -0.293 N
ATOM      7  H4  UNL     1       4.678  21.648  53.160  1.00  0.00     0.172 HD
HETATM    8  C12 UNL     1       6.438  20.957  52.367  1.00  0.00     0.330 A
HETATM    9  O3  UNL     1       7.138  21.734  53.112  1.00  0.00    -0.246 OA
HETATM   10  N5  UNL     1       7.032  20.131  51.498  1.00  0.00    -0.280 N
HETATM   11  C20 UNL     1       6.255  19.295  50.688  1.00  0.00     0.125 A
HETATM   12  C22 UNL     1       4.877  19.367  50.835  1.00  0.00     0.053 A
HETATM   13  C23 UNL     1       4.028  18.569  50.072  1.00  0.00     0.036 A
ENDROOT
BRANCH   1  14
HETATM   14  C8  UNL     1       1.732  17.807  49.413  1.00  0.00     0.150 C
BRANCH  14  15
HETATM   15  N1  UNL     1       1.260  17.813  48.107  1.00  0.00    -0.349 N
BRANCH  15  16
HETATM   16  C3  UNL     1       0.846  18.953  47.362  1.00  0.00     0.152 C
BRANCH  16  17
HETATM   17  C2  UNL     1       1.909  19.340  46.381  1.00  0.00    -0.017 C
HETATM   18  C1  UNL     1       1.576  19.924  45.246  1.00  0.00     0.008 C
ENDBRANCH  16  17
ENDBRANCH  15  16
BRANCH  15  19
HETATM   19  C4  UNL     1       1.141  16.536  47.355  1.00  0.00     0.228 C
BRANCH  19  20
HETATM   20  C5  UNL     1      -0.254  16.115  47.246  1.00  0.00     0.236 C
HETATM   21  O1  UNL     1      -0.955  15.745  48.240  1.00  0.00    -0.272 OA
HETATM   22  N2  UNL     1      -0.881  16.111  45.982  1.00  0.00    -0.359 N
HETATM   23  C6  UNL     1      -0.150  16.520  44.803  1.00  0.00     0.152 C
HETATM   24  C7  UNL     1      -2.257  15.703  45.822  1.00  0.00     0.152 C
ENDBRANCH  19  20
ENDBRANCH  15  19
ENDBRANCH  14  15
BRANCH  14  25
HETATM   25  O2  UNL     1       1.175  16.832  50.132  1.00  0.00    -0.345 OA
ATOM     26  H2  UNL     1       1.321  16.956  51.063  1.00  0.00     0.219 HD
ENDBRANCH  14  25
ENDBRANCH   1  14
BRANCH  11  27
HETATM   27  N6  UNL     1       6.813  18.583  49.882  1.00  0.00    -0.361 N
HETATM   28  C21 UNL     1       7.403  17.467  49.384  1.00  0.00     0.120 C
ATOM     29  H6  UNL     1       6.883  19.213  49.082  1.00  0.00     0.165 HD
ENDBRANCH  11  27
BRANCH  10  30
HETATM   30  C13 UNL     1       8.470  20.127  51.391  1.00  0.00     0.174 C
BRANCH  30  31
HETATM   31  C14 UNL     1       9.025  20.905  50.257  1.00  0.00    -0.040 A
HETATM   32  C15 UNL     1      10.053  20.391  49.466  1.00  0.00     0.012 A
HETATM   33  C16 UNL     1      10.610  21.067  48.399  1.00  0.00     0.043 A
HETATM   34  C17 UNL     1      10.147  22.320  48.073  1.00  0.00     0.116 A
HETATM   35  F1  UNL     1      10.664  23.024  47.030  1.00  0.00    -0.206 F
HETATM   36  C18 UNL     1       9.138  22.852  48.835  1.00  0.00     0.043 A
HETATM   37  C19 UNL     1       8.580  22.160  49.914  1.00  0.00     0.012 A
ENDBRANCH  30  31
ENDBRANCH  10  30
TORSDOF 10
ENDMDL