MODEL 2
REMARK VINA RESULT: -5.037270300      1.223      1.457
REMARK  4 active torsions:
REMARK  status: ('A' for Active; 'I' for Inactive)
REMARK    1  A    between atoms: O1_2  and  C2_3
REMARK    2  A    between atoms: C2_3  and  N1_4
REMARK    3  A    between atoms: C2_3  and  N2_8
REMARK    4  A    between atoms: N2_8  and  C3_11
ROOT
HETATM    1  N2  UNL     1       0.771  19.783 -21.235  1.00  0.00    -0.014 N
ATOM      2  H21 UNL     1       0.430  19.943 -20.286  1.00  0.00     0.283 HD
ATOM      3  H22 UNL     1       0.256  20.510 -21.730  1.00  0.00     0.283 HD
ENDROOT
BRANCH   1   4
HETATM    4  C2  UNL     1       0.372  18.477 -21.699  1.00  0.00     0.521 C
BRANCH   4   5
HETATM    5  O1  UNL     1       1.223  17.530 -21.208  1.00  0.00    -0.344 OA
HETATM    6  C1  UNL     1       0.791  16.792 -20.140  1.00  0.00     0.206 C
ENDBRANCH   4   5
BRANCH   4   7
HETATM    7  N1  UNL     1      -0.985  18.140 -21.326  1.00  0.00    -0.027 N
ATOM      8  H13 UNL     1      -1.062  17.192 -20.958  1.00  0.00     0.279 HD
ATOM      9  H12 UNL     1      -1.294  18.644 -20.494  1.00  0.00     0.279 HD
ATOM     10  H11 UNL     1      -1.603  18.296 -22.123  1.00  0.00     0.279 HD
ENDBRANCH   4   7
ENDBRANCH   1   4
BRANCH   1  11
HETATM   11  C3  UNL     1       2.165  20.025 -21.307  1.00  0.00     0.247 C
HETATM   12  C4  UNL     1       2.462  21.513 -21.468  1.00  0.00     0.151 C
HETATM   13  C5  UNL     1       2.649  21.790 -22.948  1.00  0.00     0.042 C
HETATM   14  O2  UNL     1       3.675  21.242 -20.796  1.00  0.00    -0.377 OA
HETATM   15  C6  UNL     1       2.969  20.240 -20.087  1.00  0.00     0.151 C
HETATM   16  C7  UNL     1       2.343  20.855 -18.886  1.00  0.00     0.042 C
ENDBRANCH   1  11
TORSDOF 4
ENDMDL