MODEL 2
REMARK VINA RESULT: -3.865437129      1.406      4.287
REMARK  3 active torsions:
REMARK  status: ('A' for Active; 'I' for Inactive)
REMARK    1  A    between atoms: C2_2  and  C3_3
REMARK    2  A    between atoms: C3_3  and  C4_4
REMARK    3  A    between atoms: C4_4  and  N1_5
ROOT
HETATM    1  C4  UNL     1       2.340  19.369 -20.384  1.00  0.00     0.163 C
HETATM    2  C5  UNL     1       2.454  20.605 -19.545  1.00  0.00     0.272 C
HETATM    3  N2  UNL     1       3.513  21.397 -20.128  1.00  0.00    -0.073 N
ATOM      4  H21 UNL     1       4.405  20.907 -20.063  1.00  0.00     0.277 HD
ATOM      5  H22 UNL     1       3.719  22.207 -19.542  1.00  0.00     0.277 HD
HETATM    6  C6  UNL     1       3.262  21.798 -21.459  1.00  0.00     0.233 C
HETATM    7  C7  UNL     1       2.216  21.096 -22.208  1.00  0.00     0.049 C
HETATM    8  C8  UNL     1       1.827  19.744 -21.746  1.00  0.00     0.132 C
HETATM    9  C9  UNL     1       0.373  19.575 -21.749  1.00  0.00     0.066 C
HETATM   10  N3  UNL     1      -0.798  19.444 -21.773  1.00  0.00    -0.197 NA
ENDROOT
BRANCH   1  11
HETATM   11  C3  UNL     1       1.404  18.410 -19.733  1.00  0.00     0.041 C
BRANCH  11  12
HETATM   12  C2  UNL     1       1.725  16.961 -19.944  1.00  0.00    -0.002 C
HETATM   13  C1  UNL     1       0.376  16.239 -20.069  1.00  0.00     0.005 C
ENDBRANCH  11  12
ENDBRANCH   1  11
BRANCH   1  14
HETATM   14  N1  UNL     1       3.669  18.827 -20.583  1.00  0.00    -0.067 N
ATOM     15  H13 UNL     1       3.720  17.863 -20.254  1.00  0.00     0.275 HD
ATOM     16  H12 UNL     1       3.854  18.675 -21.575  1.00  0.00     0.275 HD
ATOM     17  H11 UNL     1       4.405  19.394 -20.160  1.00  0.00     0.275 HD
ENDBRANCH   1  14
TORSDOF 3
ENDMDL