MODEL 2
REMARK VINA RESULT: -4.579616341      1.253      1.520
REMARK  3 active torsions:
REMARK  status: ('A' for Active; 'I' for Inactive)
REMARK    1  A    between atoms: O1_2  and  C2_3
REMARK    2  A    between atoms: C7_8  and  N1_9
REMARK    3  A    between atoms: C8_13  and  N2_14
ROOT
HETATM    1  C2  UNL     1       2.563  19.347 -20.828  1.00  0.00     0.090 C
HETATM    2  C3  UNL     1       2.100  19.523 -19.386  1.00  0.00     0.041 C
HETATM    3  C4  UNL     1       2.451  18.244 -18.661  1.00  0.00     0.008 C
HETATM    4  C5  UNL     1       2.434  17.254 -19.837  1.00  0.00    -0.010 C
HETATM    5  C6  UNL     1       1.040  17.090 -20.290  1.00  0.00     0.039 C
HETATM    6  C7  UNL     1       0.577  17.921 -21.415  1.00  0.00     0.217 C
HETATM    7  C8  UNL     1       1.378  19.119 -21.751  1.00  0.00     0.247 C
HETATM    8  C9  UNL     1       3.315  18.043 -20.798  1.00  0.00     0.044 C
ENDROOT
BRANCH   6   9
HETATM    9  N1  UNL     1      -0.801  18.375 -21.162  1.00  0.00    -0.073 N
ATOM     10  H13 UNL     1      -1.419  17.605 -20.903  1.00  0.00     0.274 HD
ATOM     11  H12 UNL     1      -0.875  18.918 -20.302  1.00  0.00     0.274 HD
ATOM     12  H11 UNL     1      -1.148  18.889 -21.972  1.00  0.00     0.274 HD
ENDBRANCH   6   9
BRANCH   7  13
HETATM   13  N2  UNL     1       0.597  20.341 -21.819  1.00  0.00    -0.070 N
ATOM     14  H23 UNL     1       0.577  20.840 -20.929  1.00  0.00     0.274 HD
ATOM     15  H22 UNL     1       1.052  21.064 -22.376  1.00  0.00     0.274 HD
ATOM     16  H21 UNL     1      -0.337  20.115 -22.161  1.00  0.00     0.274 HD
ENDBRANCH   7  13
BRANCH   1  17
HETATM   17  O1  UNL     1       3.293  20.433 -21.167  1.00  0.00    -0.383 OA
HETATM   18  C1  UNL     1       3.274  21.504 -20.327  1.00  0.00     0.202 C
ENDBRANCH   1  17
TORSDOF 3
ENDMDL