MODEL 2
REMARK VINA RESULT: -4.462648668      0.941      1.633
REMARK  2 active torsions:
REMARK  status: ('A' for Active; 'I' for Inactive)
REMARK    1  A    between atoms: C2_2  and  C3_3
REMARK    2  A    between atoms: C3_3  and  C4_4
ROOT
HETATM    1  C4  UNL     1       2.453  19.455 -21.625  1.00  0.00     0.103 C
HETATM    2  C5  UNL     1       3.231  18.899 -20.444  1.00  0.00     0.256 C
HETATM    3  N1  UNL     1       3.465  17.481 -20.602  1.00  0.00    -0.073 N
ATOM      4  H11 UNL     1       4.433  17.205 -20.433  1.00  0.00     0.277 HD
ATOM      5  H12 UNL     1       3.414  17.165 -21.570  1.00  0.00     0.277 HD
HETATM    6  C6  UNL     1       2.504  16.816 -19.718  1.00  0.00     0.235 C
HETATM    7  C7  UNL     1       1.188  16.793 -20.458  1.00  0.00     0.067 C
HETATM    8  C8  UNL     1       0.633  18.157 -20.723  1.00  0.00     0.186 C
HETATM    9  C9  UNL     1      -0.813  17.986 -21.001  1.00  0.00     0.084 C
HETATM   10  N2  UNL     1      -1.941  17.841 -21.212  1.00  0.00    -0.195 NA
HETATM   11  N3  UNL     1       1.202  18.831 -21.837  1.00  0.00    -0.400 N
ATOM     12  H3  UNL     1       0.734  18.863 -22.742  1.00  0.00     0.155 HD
ENDROOT
BRANCH   1  13
HETATM   13  C3  UNL     1       2.406  20.943 -21.465  1.00  0.00     0.026 C
BRANCH  13  14
HETATM   14  C2  UNL     1       2.996  21.435 -20.177  1.00  0.00    -0.002 C
HETATM   15  C1  UNL     1       2.199  21.090 -18.967  1.00  0.00     0.005 C
ENDBRANCH  13  14
ENDBRANCH   1  13
TORSDOF 2
ENDMDL