MODEL 5
REMARK VINA RESULT: -3.963243006      1.089      1.129
REMARK  3 active torsions:
REMARK  status: ('A' for Active; 'I' for Inactive)
REMARK    1  A    between atoms: C4_5  and  C5_6
REMARK    2  A    between atoms: C5_6  and  N2_7
REMARK    3  A    between atoms: C5_6  and  C6_11
ROOT
HETATM    1  N1  UNL     1       0.107  16.011 -19.843  1.00  0.00    -0.197 NA
HETATM    2  C1  UNL     1       1.037  16.645 -20.083  1.00  0.00     0.064 C
HETATM    3  C2  UNL     1       2.213  17.418 -20.375  1.00  0.00     0.093 C
HETATM    4  C3  UNL     1       2.095  18.338 -21.600  1.00  0.00     0.026 C
HETATM    5  C4  UNL     1       2.928  19.330 -20.807  1.00  0.00     0.019 C
HETATM    6  C7  UNL     1       2.356  18.707 -19.555  1.00  0.00     0.026 C
ENDROOT
BRANCH   5   7
HETATM    7  C5  UNL     1       2.581  20.769 -21.039  1.00  0.00     0.197 C
BRANCH   7   8
HETATM    8  N2  UNL     1       1.246  20.989 -21.500  1.00  0.00    -0.074 N
ATOM      9  H23 UNL     1       0.892  20.157 -21.972  1.00  0.00     0.274 HD
ATOM     10  H22 UNL     1       0.600  21.030 -20.712  1.00  0.00     0.274 HD
ATOM     11  H21 UNL     1       1.135  21.810 -22.095  1.00  0.00     0.274 HD
ENDBRANCH   7   8
BRANCH   7  12
HETATM   12  C6  UNL     1       3.579  21.340 -22.023  1.00  0.00     0.119 C
HETATM   13  S1  UNL     1       2.791  21.955 -23.516  1.00  0.00    -0.096 SA
ENDBRANCH   7  12
ENDBRANCH   5   7
TORSDOF 3
ENDMDL