MODEL 4
REMARK VINA RESULT: -4.694748392      2.259      4.319
REMARK  3 active torsions:
REMARK  status: ('A' for Active; 'I' for Inactive)
REMARK    1  A    between atoms: C2_2  and  O1_5
REMARK    2  A    between atoms: O1_5  and  C5_6
REMARK    3  A    between atoms: C5_6  and  C6_7
ROOT
HETATM    1  C6  UNL     1       1.839  20.783 -21.674  1.00  0.00     0.133 C
HETATM    2  C7  UNL     1       3.141  21.497 -21.974  1.00  0.00     0.206 C
HETATM    3  O2  UNL     1       3.780  21.651 -20.714  1.00  0.00    -0.320 OA
HETATM    4  C8  UNL     1       2.933  21.250 -19.689  1.00  0.00     0.213 C
HETATM    5  N1  UNL     1       3.243  21.023 -18.436  1.00  0.00    -0.365 N
ATOM      6  H11 UNL     1       2.620  20.728 -17.683  1.00  0.00     0.159 HD
ATOM      7  H12 UNL     1       4.166  21.105 -18.012  1.00  0.00     0.159 HD
HETATM    8  N2  UNL     1       1.642  21.135 -20.280  1.00  0.00    -0.348 N
ATOM      9  H2  UNL     1       0.747  21.274 -19.811  1.00  0.00     0.163 HD
ENDROOT
BRANCH   1  10
HETATM   10  C5  UNL     1       2.094  19.272 -21.737  1.00  0.00     0.196 C
BRANCH  10  11
HETATM   11  O1  UNL     1       1.344  18.691 -20.759  1.00  0.00    -0.379 OA
BRANCH  11  12
HETATM   12  C2  UNL     1       1.778  17.505 -20.268  1.00  0.00     0.050 C
HETATM   13  C1  UNL     1       0.716  16.442 -20.143  1.00  0.00     0.045 C
HETATM   14  C3  UNL     1       2.406  17.672 -18.892  1.00  0.00     0.045 C
HETATM   15  C4  UNL     1       2.854  16.965 -21.201  1.00  0.00     0.045 C
ENDBRANCH  11  12
ENDBRANCH  10  11
ENDBRANCH   1  10
TORSDOF 3
ENDMDL