MODEL 3
REMARK VINA RESULT: -4.097166695      2.084      4.127
REMARK  3 active torsions:
REMARK  status: ('A' for Active; 'I' for Inactive)
REMARK    1  A    between atoms: C2_2  and  N1_3
REMARK    2  A    between atoms: C2_2  and  C3_7
REMARK    3  A    between atoms: C3_7  and  C5_9
ROOT
HETATM    1  C5  UNL     1       1.467  19.665 -20.980  1.00  0.00     0.052 C
HETATM    2  C6  UNL     1       0.298  20.538 -21.358  1.00  0.00     0.041 C
HETATM    3  C7  UNL     1       2.010  20.071 -19.637  1.00  0.00     0.199 C
HETATM    4  O1  UNL     1       2.139  21.461 -19.659  1.00  0.00    -0.384 OA
HETATM    5  C8  UNL     1       3.227  21.747 -20.449  1.00  0.00     0.211 C
HETATM    6  C9  UNL     1       3.161  21.168 -21.820  1.00  0.00     0.082 C
HETATM    7  N2  UNL     1       2.528  19.916 -21.946  1.00  0.00    -0.389 N
ATOM      8  H2  UNL     1       2.792  19.237 -22.660  1.00  0.00     0.159 HD
ENDROOT
BRANCH   1   9
HETATM    9  C3  UNL     1       1.159  18.205 -21.080  1.00  0.00     0.041 C
HETATM   10  C4  UNL     1      -0.342  18.024 -21.149  1.00  0.00     0.015 C
BRANCH   9  11
HETATM   11  C2  UNL     1       1.785  17.353 -20.031  1.00  0.00     0.185 C
HETATM   12  C1  UNL     1       3.163  16.933 -20.536  1.00  0.00     0.040 C
BRANCH  11  13
HETATM   13  N1  UNL     1       1.089  16.149 -19.720  1.00  0.00    -0.075 N
ATOM     14  H13 UNL     1       0.075  16.243 -19.768  1.00  0.00     0.274 HD
ATOM     15  H12 UNL     1       1.183  15.430 -20.438  1.00  0.00     0.274 HD
ATOM     16  H11 UNL     1       1.426  15.852 -18.804  1.00  0.00     0.274 HD
ENDBRANCH  11  13
ENDBRANCH   9  11
ENDBRANCH   1   9
TORSDOF 3
ENDMDL