MODEL 2
REMARK VINA RESULT: -3.239620432      0.870      1.186
REMARK  3 active torsions:
REMARK  status: ('A' for Active; 'I' for Inactive)
REMARK    1  A    between atoms: C2_2  and  C3_3
REMARK    2  A    between atoms: C3_3  and  N1_4
REMARK    3  A    between atoms: C4_5  and  N2_6
ROOT
HETATM    1  N1  UNL     1       2.232  19.218 -20.782  1.00  0.00    -0.336 N
HETATM    2  C4  UNL     1       1.311  19.979 -21.506  1.00  0.00     0.485 C
HETATM    3  N3  UNL     1      -0.081  19.720 -21.157  1.00  0.00    -0.029 N
ATOM      4  H31 UNL     1      -0.741  20.369 -21.585  1.00  0.00     0.281 HD
ATOM      5  H32 UNL     1      -0.310  19.940 -20.187  1.00  0.00     0.281 HD
HETATM    6  C5  UNL     1      -0.315  18.312 -21.517  1.00  0.00     0.239 C
HETATM    7  C6  UNL     1       0.496  17.484 -20.586  1.00  0.00     0.058 C
HETATM    8  C7  UNL     1       1.931  17.879 -20.474  1.00  0.00     0.029 C
HETATM    9  C8  UNL     1       2.403  17.446 -19.079  1.00  0.00     0.038 C
HETATM   10  C9  UNL     1       2.723  16.987 -21.437  1.00  0.00     0.038 C
ENDROOT
BRANCH   2  11
HETATM   11  N2  UNL     1       1.454  19.745 -22.950  1.00  0.00    -0.033 N
ATOM     12  H23 UNL     1       1.055  18.848 -23.228  1.00  0.00     0.279 HD
ATOM     13  H22 UNL     1       0.848  20.358 -23.494  1.00  0.00     0.279 HD
ATOM     14  H21 UNL     1       2.430  19.829 -23.238  1.00  0.00     0.279 HD
ENDBRANCH   2  11
BRANCH   1  15
HETATM   15  C3  UNL     1       3.235  19.866 -20.039  1.00  0.00     0.062 C
BRANCH  15  16
HETATM   16  C2  UNL     1       2.687  21.188 -19.536  1.00  0.00     0.040 C
HETATM   17  C1  UNL     1       2.089  21.048 -18.151  1.00  0.00     0.010 C
ENDBRANCH  15  16
ENDBRANCH   1  15
TORSDOF 3
ENDMDL