MODEL 5
REMARK VINA RESULT: -4.559637795      1.431      2.268
REMARK  2 active torsions:
REMARK  status: ('A' for Active; 'I' for Inactive)
REMARK    1  A    between atoms: C2_2  and  C3_3
REMARK    2  A    between atoms: C3_3  and  C4_4
ROOT
HETATM    1  C4  UNL     1       2.000  19.624 -21.471  1.00  0.00     0.191 C
HETATM    2  N1  UNL     1       0.971  20.566 -21.846  1.00  0.00    -0.069 N
ATOM      3  H11 UNL     1       1.218  21.209 -22.599  1.00  0.00     0.277 HD
ATOM      4  H12 UNL     1       0.778  21.299 -21.163  1.00  0.00     0.277 HD
HETATM    5  C5  UNL     1      -0.143  19.662 -22.131  1.00  0.00     0.256 C
HETATM    6  C6  UNL     1      -0.164  18.812 -20.893  1.00  0.00     0.138 C
HETATM    7  N2  UNL     1      -0.587  17.470 -21.221  1.00  0.00    -0.094 NA
HETATM    8  O1  UNL     1      -0.393  16.608 -20.204  1.00  0.00    -0.286 OA
HETATM    9  C7  UNL     1       0.945  16.331 -19.985  1.00  0.00     0.196 C
HETATM   10  C8  UNL     1       1.812  17.330 -20.683  1.00  0.00     0.036 C
HETATM   11  C9  UNL     1       1.305  18.755 -20.464  1.00  0.00     0.041 C
ENDROOT
BRANCH   1  12
HETATM   12  C3  UNL     1       3.241  20.286 -20.956  1.00  0.00     0.033 C
BRANCH  12  13
HETATM   13  C2  UNL     1       2.998  21.404 -20.001  1.00  0.00    -0.002 C
HETATM   14  C1  UNL     1       2.741  20.774 -18.630  1.00  0.00     0.005 C
ENDBRANCH  12  13
ENDBRANCH   1  12
TORSDOF 2
ENDMDL