MODEL 3
REMARK VINA RESULT: -3.982754126      1.425      1.588
REMARK  3 active torsions:
REMARK  status: ('A' for Active; 'I' for Inactive)
REMARK    1  A    between atoms: N1_1  and  C1_5
REMARK    2  A    between atoms: C1_5  and  C2_6
REMARK    3  A    between atoms: C2_6  and  C3_7
ROOT
HETATM    1  C3  UNL     1       2.481  21.262 -21.722  1.00  0.00    -0.008 C
HETATM    2  C4  UNL     1       2.996  21.131 -20.304  1.00  0.00     0.009 C
HETATM    3  C5  UNL     1       1.934  20.182 -19.731  1.00  0.00     0.069 C
HETATM    4  C6  UNL     1       1.924  19.103 -20.813  1.00  0.00     0.226 C
HETATM    5  C7  UNL     1       2.288  19.809 -22.101  1.00  0.00     0.073 C
HETATM    6  N2  UNL     1       0.680  18.410 -20.884  1.00  0.00    -0.041 N
ATOM      7  H21 UNL     1       0.216  18.493 -21.788  1.00  0.00     0.280 HD
ATOM      8  H22 UNL     1      -0.060  18.839 -20.328  1.00  0.00     0.280 HD
HETATM    9  C8  UNL     1       0.975  17.035 -20.502  1.00  0.00     0.262 C
HETATM   10  C9  UNL     1       2.236  17.242 -19.659  1.00  0.00     0.198 C
HETATM   11  O1  UNL     1       2.911  18.189 -20.461  1.00  0.00    -0.353 OA
ENDROOT
BRANCH   1  12
HETATM   12  C2  UNL     1       3.480  21.921 -22.635  1.00  0.00     0.032 C
BRANCH  12  13
HETATM   13  C1  UNL     1       4.891  21.746 -22.186  1.00  0.00     0.230 C
BRANCH  13  14
HETATM   14  N1  UNL     1       5.751  22.381 -23.183  1.00  0.00    -0.079 N
ATOM     15  H13 UNL     1       5.855  21.824 -24.032  1.00  0.00     0.274 HD
ATOM     16  H12 UNL     1       5.322  23.200 -23.614  1.00  0.00     0.274 HD
ATOM     17  H11 UNL     1       6.641  22.590 -22.732  1.00  0.00     0.274 HD
ENDBRANCH  13  14
ENDBRANCH  12  13
ENDBRANCH   1  12
TORSDOF 3
ENDMDL