MODEL 4
REMARK VINA RESULT: -6.155752013      3.056      3.767
REMARK  4 active torsions:
REMARK  status: ('A' for Active; 'I' for Inactive)
REMARK    1  A    between atoms: N1_1  and  N2_4
REMARK    2  A    between atoms: N2_4  and  N5_18
REMARK    3  A    between atoms: C1_5  and  C2_6
REMARK    4  A    between atoms: C5_15  and  O3_16
ROOT
HETATM    1  C2  UNL     1       5.778 -13.296   2.941  1.00  0.00     0.094 A
HETATM    2  N3  UNL     1       4.676 -13.160   2.183  1.00  0.00    -0.305 N
ATOM      3  H3  UNL     1       4.110 -13.989   1.998  1.00  0.00     0.171 HD
HETATM    4  C3  UNL     1       4.282 -11.987   1.659  1.00  0.00     0.327 A
HETATM    5  O1  UNL     1       3.224 -11.909   0.943  1.00  0.00    -0.247 OA
HETATM    6  N4  UNL     1       4.975 -10.858   1.861  1.00  0.00    -0.273 N
ATOM      7  H4  UNL     1       4.673  -9.969   1.461  1.00  0.00     0.173 HD
HETATM    8  C4  UNL     1       6.080 -10.947   2.610  1.00  0.00     0.284 A
HETATM    9  O2  UNL     1       6.734  -9.895   2.802  1.00  0.00    -0.265 OA
HETATM   10  C5  UNL     1       6.520 -12.141   3.169  1.00  0.00     0.163 A
ENDROOT
BRANCH   1  11
HETATM   11  C1  UNL     1       6.197 -14.573   3.505  1.00  0.00     0.169 C
HETATM   12  N2  UNL     1       6.899 -15.501   3.035  1.00  0.00    -0.206 N
BRANCH  12  13
HETATM   13  N1  UNL     1       7.088 -16.623   3.926  1.00  0.00    -0.324 N
ATOM     14  H12 UNL     1       7.981 -16.633   4.419  1.00  0.00     0.178 HD
ATOM     15  H11 UNL     1       6.306 -17.276   3.959  1.00  0.00     0.178 HD
ENDBRANCH  12  13
BRANCH  12  16
HETATM   16  N5  UNL     1       7.517 -15.622   1.812  1.00  0.00    -0.242 N
HETATM   17  S1  UNL     1       6.673 -16.142   0.522  1.00  0.00     0.061 SA
ATOM     18  H5  UNL     1       8.504 -15.385   1.714  1.00  0.00     0.198 HD
ENDBRANCH  12  16
ENDBRANCH   1  11
BRANCH  10  19
HETATM   19  O3  UNL     1       7.654 -12.140   3.917  1.00  0.00    -0.354 OA
ATOM     20  H3  UNL     1       8.461 -11.735   3.619  1.00  0.00     0.218 HD
ENDBRANCH  10  19
TORSDOF 4
ENDMDL