MODEL 5
REMARK VINA RESULT: -6.341019470      1.590      2.362
REMARK  2 active torsions:
REMARK  status: ('A' for Active; 'I' for Inactive)
REMARK       I    between atoms: C1_2  and  N3_6
REMARK    1  A    between atoms: C2_8  and  C3_9
REMARK    2  A    between atoms: C3_9  and  N4_10
ROOT
HETATM    1  N4  UNL     1       5.039 -14.240   1.495  1.00  0.00    -0.379 N
HETATM    2  C4  UNL     1       4.717 -12.927   1.938  1.00  0.00     0.142 C
HETATM    3  C5  UNL     1       5.823 -11.942   1.564  1.00  0.00     0.142 C
HETATM    4  N5  UNL     1       6.553 -11.632   2.800  1.00  0.00    -0.363 N
ATOM      5  H5  UNL     1       6.929 -10.685   2.853  1.00  0.00     0.162 HD
HETATM    6  C6  UNL     1       6.798 -12.392   3.858  1.00  0.00     0.191 C
HETATM    7  N6  UNL     1       7.584 -11.733   4.882  1.00  0.00    -0.063 NA
HETATM    8  N7  UNL     1       6.491 -13.746   4.227  1.00  0.00    -0.297 N
ATOM      9  H7  UNL     1       6.300 -13.905   5.216  1.00  0.00     0.171 HD
HETATM   10  C7  UNL     1       6.416 -14.935   3.358  1.00  0.00     0.262 C
HETATM   11  O1  UNL     1       6.572 -15.956   3.996  1.00  0.00    -0.267 OA
HETATM   12  C8  UNL     1       6.154 -14.957   1.873  1.00  0.00     0.161 C
ENDROOT
BRANCH   1  13
HETATM   13  C3  UNL     1       4.529 -14.529   0.202  1.00  0.00     0.167 C
BRANCH  13  14
HETATM   14  C2  UNL     1       5.484 -15.463  -0.494  1.00  0.00     0.083 C
HETATM   15  N3  UNL     1       5.636 -15.459  -1.740  1.00  0.00    -0.343 N
HETATM   16  C1  UNL     1       6.485 -16.288  -2.335  1.00  0.00     0.185 C
ATOM     17  H3  UNL     1       5.095 -14.805  -2.307  1.00  0.00     0.167 HD
HETATM   18  N1  UNL     1       7.441 -15.052  -2.708  1.00  0.00    -0.064 NA
HETATM   19  N2  UNL     1       7.358 -17.127  -2.947  1.00  0.00    -0.374 N
ATOM     20  H22 UNL     1       8.011 -17.763  -3.404  1.00  0.00     0.158 HD
ATOM     21  H21 UNL     1       6.751 -17.912  -2.710  1.00  0.00     0.158 HD
ENDBRANCH  13  14
ENDBRANCH   1  13
TORSDOF 2
ENDMDL