MODEL 5
REMARK VINA RESULT: -6.347535563      2.113      3.353
REMARK  4 active torsions:
REMARK  status: ('A' for Active; 'I' for Inactive)
REMARK    1  A    between atoms: C1_4  and  N2_5
REMARK    2  A    between atoms: C5_15  and  C6_16
REMARK    3  A    between atoms: C6_16  and  N5_17
REMARK    4  A    between atoms: N5_17  and  C7_19
ROOT
HETATM    1  N2  UNL     1       5.601 -15.974   2.610  1.00  0.00    -0.341 N
ATOM      2  H2  UNL     1       4.747 -15.563   2.987  1.00  0.00     0.167 HD
HETATM    3  C2  UNL     1       5.970 -15.697   1.409  1.00  0.00     0.111 C
HETATM    4  N3  UNL     1       7.160 -16.277   0.903  1.00  0.00    -0.376 N
ATOM      5  H3  UNL     1       7.779 -16.775   1.543  1.00  0.00     0.160 HD
HETATM    6  C3  UNL     1       7.525 -16.183  -0.511  1.00  0.00     0.148 C
HETATM    7  C4  UNL     1       6.422 -15.491  -1.275  1.00  0.00     0.253 C
HETATM    8  N4  UNL     1       6.002 -14.335  -0.514  1.00  0.00    -0.061 N
ATOM      9  H41 UNL     1       5.551 -13.627  -1.094  1.00  0.00     0.278 HD
ATOM     10  H42 UNL     1       6.789 -13.772  -0.192  1.00  0.00     0.278 HD
HETATM   11  C5  UNL     1       5.158 -14.785   0.573  1.00  0.00     0.270 C
ENDROOT
BRANCH  11  12
HETATM   12  C6  UNL     1       4.678 -13.578   1.386  1.00  0.00     0.179 C
BRANCH  12  13
HETATM   13  N5  UNL     1       5.399 -12.422   0.940  1.00  0.00    -0.222 N
ATOM     14  H5  UNL     1       5.437 -12.232  -0.062  1.00  0.00     0.177 HD
BRANCH  13  15
HETATM   15  C7  UNL     1       6.004 -11.606   1.742  1.00  0.00     0.693 A
HETATM   16  N6  UNL     1       5.712 -11.400   3.034  1.00  0.00    -0.185 N
HETATM   17  C8  UNL     1       6.560 -10.484   3.522  1.00  0.00     0.215 A
ATOM     18  H6  UNL     1       4.969 -11.863   3.558  1.00  0.00     0.185 HD
HETATM   19  N7  UNL     1       7.369 -10.138   2.508  1.00  0.00    -0.281 N
HETATM   20  N8  UNL     1       7.039 -10.815   1.423  1.00  0.00    -0.131 N
ATOM     21  H7  UNL     1       8.125  -9.456   2.567  1.00  0.00     0.188 HD
ATOM     22  H8  UNL     1       7.489 -10.748   0.510  1.00  0.00     0.205 HD
ENDBRANCH  13  15
ENDBRANCH  12  13
ENDBRANCH  11  12
BRANCH   1  23
HETATM   23  C1  UNL     1       6.379 -16.847   3.414  1.00  0.00     0.174 C
HETATM   24  N1  UNL     1       7.132 -16.397   4.356  1.00  0.00    -0.395 N
ATOM     25  H12 UNL     1       7.159 -15.390   4.516  1.00  0.00     0.156 HD
ATOM     26  H11 UNL     1       7.691 -17.025   4.934  1.00  0.00     0.156 HD
ENDBRANCH   1  23
TORSDOF 4
ENDMDL