MODEL 5
REMARK VINA RESULT: -6.631624775      2.505      5.404
REMARK  4 active torsions:
REMARK  status: ('A' for Active; 'I' for Inactive)
REMARK    1  A    between atoms: C2_4  and  C3_5
REMARK    2  A    between atoms: C2_4  and  N8_19
REMARK    3  A    between atoms: C4_6  and  N3_8
REMARK    4  A    between atoms: N3_8  and  C5_10
ROOT
HETATM    1  C3  UNL     1       5.174 -11.568   2.373  1.00  0.00     0.093 C
HETATM    2  C4  UNL     1       5.030 -12.867   2.607  1.00  0.00     0.135 C
HETATM    3  N2  UNL     1       4.046 -13.639   1.896  1.00  0.00    -0.082 NA
ENDROOT
BRANCH   2   4
HETATM    4  N3  UNL     1       5.868 -13.479   3.575  1.00  0.00    -0.176 N
ATOM      5  H3  UNL     1       5.988 -13.050   4.492  1.00  0.00     0.185 HD
BRANCH   4   6
HETATM    6  C5  UNL     1       6.472 -14.571   3.295  1.00  0.00     0.715 A
HETATM    7  N4  UNL     1       6.692 -15.651   4.076  1.00  0.00    -0.115 N
HETATM    8  N5  UNL     1       7.361 -16.534   3.346  1.00  0.00    -0.213 N
ATOM      9  H4  UNL     1       6.399 -15.766   5.046  1.00  0.00     0.207 HD
HETATM   10  N6  UNL     1       7.575 -16.061   2.135  1.00  0.00    -0.213 N
ATOM     11  H5  UNL     1       7.666 -17.450   3.675  1.00  0.00     0.210 HD
HETATM   12  N7  UNL     1       7.029 -14.862   2.112  1.00  0.00    -0.115 N
ATOM     13  H6  UNL     1       8.064 -16.527   1.372  1.00  0.00     0.210 HD
ATOM     14  H7  UNL     1       7.029 -14.241   1.303  1.00  0.00     0.207 HD
ENDBRANCH   4   6
ENDBRANCH   2   4
BRANCH   1  15
HETATM   15  C2  UNL     1       6.140 -10.757   3.058  1.00  0.00     0.105 C
HETATM   16  N1  UNL     1       7.182 -10.349   2.393  1.00  0.00    -0.381 N
HETATM   17  C1  UNL     1       7.392 -10.683   1.004  1.00  0.00     0.147 C
ATOM     18  H1  UNL     1       7.875  -9.773   2.871  1.00  0.00     0.160 HD
BRANCH  15  19
HETATM   19  N8  UNL     1       6.028 -10.380   4.402  1.00  0.00    -0.319 N
HETATM   20  C6  UNL     1       6.806 -10.807   5.342  1.00  0.00     0.202 C
HETATM   21  N9  UNL     1       6.603 -10.359   6.674  1.00  0.00    -0.066 NA
HETATM   22  N10 UNL     1       7.867 -11.717   5.083  1.00  0.00    -0.066 NA
ATOM     23  H8  UNL     1       5.287  -9.728   4.656  1.00  0.00     0.169 HD
ENDBRANCH  15  19
ENDBRANCH   1  15
TORSDOF 4
ENDMDL