MODEL 5
REMARK VINA RESULT: -6.924474489      2.338      5.429
REMARK  2 active torsions:
REMARK  status: ('A' for Active; 'I' for Inactive)
REMARK    1  A    between atoms: N1_1  and  C1_4
REMARK    2  A    between atoms: C2_7  and  C3_8
ROOT
HETATM    1  C1  UNL     1       6.880 -10.939   2.152  1.00  0.00     0.679 A
HETATM    2  N2  UNL     1       6.704 -12.254   1.911  1.00  0.00    -0.191 N
ATOM      3  H2  UNL     1       6.897 -12.607   0.973  1.00  0.00     0.184 HD
HETATM    4  C2  UNL     1       6.286 -13.120   2.850  1.00  0.00     0.064 A
HETATM    5  C8  UNL     1       6.029 -12.630   4.108  1.00  0.00     0.105 A
HETATM    6  C9  UNL     1       6.212 -11.277   4.346  1.00  0.00     0.261 A
HETATM    7  O1  UNL     1       5.978 -10.814   5.506  1.00  0.00    -0.268 OA
HETATM    8  N6  UNL     1       6.635 -10.452   3.363  1.00  0.00    -0.156 N
ATOM      9  H6  UNL     1       6.766  -9.459   3.550  1.00  0.00     0.187 HD
ENDROOT
BRANCH   4  10
HETATM   10  C3  UNL     1       6.128 -14.520   2.488  1.00  0.00     0.017 A
HETATM   11  C4  UNL     1       5.930 -15.036   1.286  1.00  0.00     0.087 A
HETATM   12  N3  UNL     1       5.782 -14.711  -0.031  1.00  0.00    -0.349 N
HETATM   13  C6  UNL     1       5.831 -16.406   1.358  1.00  0.00     0.130 A
HETATM   14  C5  UNL     1       5.601 -15.843  -0.736  1.00  0.00     0.182 A
ATOM     15  H3  UNL     1       5.804 -13.767  -0.417  1.00  0.00     0.167 HD
HETATM   16  N4  UNL     1       5.627 -16.896   0.101  1.00  0.00    -0.337 N
ATOM     17  H4  UNL     1       5.516 -17.876  -0.157  1.00  0.00     0.168 HD
HETATM   18  N5  UNL     1       5.955 -16.837   2.565  1.00  0.00    -0.370 N
HETATM   19  C7  UNL     1       6.157 -15.703   3.414  1.00  0.00     0.164 A
ATOM     20  H5  UNL     1       5.916 -17.812   2.863  1.00  0.00     0.161 HD
ENDBRANCH   4  10
BRANCH   1  21
HETATM   21  N1  UNL     1       7.290 -10.169   1.177  1.00  0.00    -0.234 N
ATOM     22  H12 UNL     1       6.988  -9.198   1.104  1.00  0.00     0.174 HD
ATOM     23  H11 UNL     1       7.925 -10.556   0.480  1.00  0.00     0.174 HD
ENDBRANCH   1  21
TORSDOF 2
ENDMDL