MODEL 5
REMARK VINA RESULT: -6.632127951      1.185      1.285
REMARK  3 active torsions:
REMARK  status: ('A' for Active; 'I' for Inactive)
REMARK       I    between atoms: C1_4  and  N3_6
REMARK    1  A    between atoms: C4_9  and  N4_10
REMARK    2  A    between atoms: N4_10  and  C5_12
REMARK    3  A    between atoms: N8_17  and  O1_18
ROOT
HETATM    1  N1  UNL     1       5.851 -15.560  -2.150  1.00  0.00    -0.374 N
ATOM      2  H11 UNL     1       4.864 -15.322  -2.048  1.00  0.00     0.158 HD
ATOM      3  H12 UNL     1       6.209 -15.828  -3.067  1.00  0.00     0.158 HD
HETATM    4  C1  UNL     1       6.601 -15.511  -1.113  1.00  0.00     0.184 C
HETATM    5  N2  UNL     1       7.973 -15.842  -1.255  1.00  0.00    -0.064 NA
HETATM    6  N3  UNL     1       6.102 -15.137   0.166  1.00  0.00    -0.354 N
HETATM    7  C2  UNL     1       5.582 -16.066   1.152  1.00  0.00     0.127 C
HETATM    8  C3  UNL     1       6.084 -15.477   2.437  1.00  0.00     0.047 C
HETATM    9  C4  UNL     1       5.915 -13.995   2.191  1.00  0.00     0.119 C
HETATM   10  C6  UNL     1       6.025 -13.792   0.701  1.00  0.00     0.151 C
ENDROOT
BRANCH   9  11
HETATM   11  N4  UNL     1       6.934 -13.280   2.924  1.00  0.00    -0.216 N
ATOM     12  H4  UNL     1       7.914 -13.544   2.825  1.00  0.00     0.178 HD
BRANCH  11  13
HETATM   13  C5  UNL     1       6.603 -12.307   3.703  1.00  0.00     0.731 A
HETATM   14  N5  UNL     1       6.370 -12.285   5.026  1.00  0.00    -0.115 N
HETATM   15  N6  UNL     1       6.054 -11.050   5.408  1.00  0.00     0.009 NA
ATOM     16  H5  UNL     1       6.428 -13.094   5.645  1.00  0.00     0.203 HD
HETATM   17  N7  UNL     1       6.087 -10.283   4.323  1.00  0.00     0.037 NA
HETATM   18  N8  UNL     1       6.422 -11.047   3.279  1.00  0.00     0.030 N
BRANCH  18  19
HETATM   19  O1  UNL     1       6.545 -10.564   1.998  1.00  0.00    -0.256 OA
ATOM     20  H1  UNL     1       6.472  -9.663   1.706  1.00  0.00     0.247 HD
ENDBRANCH  18  19
ENDBRANCH  11  13
ENDBRANCH   9  11
TORSDOF 3
ENDMDL