MODEL 1
REMARK VINA RESULT: -6.916410921      0.000      0.000
REMARK  2 active torsions:
REMARK  status: ('A' for Active; 'I' for Inactive)
REMARK    1  A    between atoms: N1_1  and  C1_4
REMARK    2  A    between atoms: N4_12  and  C4_14
ROOT
HETATM    1  C1  UNL     1       6.354 -11.129   4.868  1.00  0.00     0.694 A
HETATM    2  N2  UNL     1       6.408 -10.386   3.747  1.00  0.00    -0.141 N
ATOM      3  H2  UNL     1       6.370  -9.369   3.816  1.00  0.00     0.189 HD
HETATM    4  C2  UNL     1       6.510 -10.965   2.536  1.00  0.00     0.352 A
HETATM    5  O1  UNL     1       6.560 -10.253   1.478  1.00  0.00    -0.246 OA
HETATM    6  N3  UNL     1       6.563 -12.317   2.392  1.00  0.00    -0.140 N
ATOM      7  H3  UNL     1       6.641 -12.750   1.472  1.00  0.00     0.189 HD
HETATM    8  C3  UNL     1       6.510 -13.056   3.505  1.00  0.00     0.697 A
HETATM    9  N4  UNL     1       6.557 -14.341   3.418  1.00  0.00    -0.205 N
ATOM     10  H4  UNL     1       6.518 -14.907   4.265  1.00  0.00     0.179 HD
HETATM   11  N6  UNL     1       6.406 -12.460   4.730  1.00  0.00    -0.022 N
ATOM     12  H6  UNL     1       6.367 -13.046   5.564  1.00  0.00     0.203 HD
ENDROOT
BRANCH   9  13
HETATM   13  C4  UNL     1       6.665 -14.975   2.148  1.00  0.00     0.262 C
HETATM   14  C5  UNL     1       7.143 -16.374   2.223  1.00  0.00     0.176 C
HETATM   15  O2  UNL     1       7.787 -16.857   3.113  1.00  0.00    -0.293 OA
HETATM   16  C6  UNL     1       6.674 -17.051   0.998  1.00  0.00     0.203 C
HETATM   17  N5  UNL     1       5.341 -16.446   0.837  1.00  0.00    -0.352 N
HETATM   18  C7  UNL     1       5.303 -15.215   1.535  1.00  0.00     0.248 C
ATOM     19  H5  UNL     1       4.569 -16.850   0.307  1.00  0.00     0.162 HD
HETATM   20  O3  UNL     1       4.340 -14.435   1.649  1.00  0.00    -0.271 OA
ENDBRANCH   9  13
BRANCH   1  21
HETATM   21  N1  UNL     1       6.256 -10.586   6.035  1.00  0.00    -0.234 N
ATOM     22  H12 UNL     1       6.784  -9.745   6.269  1.00  0.00     0.174 HD
ATOM     23  H11 UNL     1       5.651 -10.977   6.757  1.00  0.00     0.174 HD
ENDBRANCH   1  21
TORSDOF 2
ENDMDL