MODEL 3
REMARK VINA RESULT: -6.083100467      2.594      4.408
REMARK  4 active torsions:
REMARK  status: ('A' for Active; 'I' for Inactive)
REMARK    1  A    between atoms: N1_1  and  C1_5
REMARK    2  A    between atoms: C1_5  and  C2_6
REMARK    3  A    between atoms: C2_6  and  N2_7
REMARK    4  A    between atoms: C4_10  and  N3_11
ROOT
HETATM    1  N2  UNL     1       5.923 -13.999   2.967  1.00  0.00    -0.323 N
HETATM    2  C3  UNL     1       5.903 -13.256   1.736  1.00  0.00     0.271 C
HETATM    3  O1  UNL     1       6.099 -13.507   0.523  1.00  0.00    -0.270 OA
HETATM    4  C4  UNL     1       5.551 -12.026   2.466  1.00  0.00     0.319 C
HETATM    5  C5  UNL     1       6.662 -11.059   2.512  1.00  0.00     0.274 C
HETATM    6  O2  UNL     1       7.358 -10.817   1.475  1.00  0.00    -0.270 OA
HETATM    7  N4  UNL     1       6.944 -10.401   3.739  1.00  0.00    -0.301 N
ATOM      8  H4  UNL     1       7.325  -9.455   3.756  1.00  0.00     0.171 HD
HETATM    9  C6  UNL     1       6.675 -11.111   4.942  1.00  0.00     0.176 C
HETATM   10  S1  UNL     1       6.972 -10.421   6.380  1.00  0.00    -0.041 SA
HETATM   11  N5  UNL     1       6.143 -12.424   4.818  1.00  0.00    -0.342 N
ATOM     12  H5  UNL     1       6.304 -13.083   5.579  1.00  0.00     0.164 HD
HETATM   13  C7  UNL     1       5.392 -12.869   3.681  1.00  0.00     0.244 C
ENDROOT
BRANCH   1  14
HETATM   14  C2  UNL     1       6.306 -15.325   3.356  1.00  0.00     0.155 C
BRANCH  14  15
HETATM   15  C1  UNL     1       6.645 -16.190   2.145  1.00  0.00     0.249 C
BRANCH  15  16
HETATM   16  N1  UNL     1       8.089 -16.194   2.037  1.00  0.00    -0.078 N
ATOM     17  H13 UNL     1       8.552 -15.672   2.782  1.00  0.00     0.274 HD
ATOM     18  H12 UNL     1       8.507 -17.101   2.241  1.00  0.00     0.274 HD
ATOM     19  H11 UNL     1       8.309 -15.848   1.103  1.00  0.00     0.274 HD
ENDBRANCH  15  16
ENDBRANCH  14  15
ENDBRANCH   1  14
BRANCH   4  20
HETATM   20  N3  UNL     1       4.308 -11.419   2.017  1.00  0.00    -0.049 N
ATOM     21  H33 UNL     1       3.789 -11.034   2.805  1.00  0.00     0.276 HD
ATOM     22  H32 UNL     1       4.492 -10.560   1.498  1.00  0.00     0.276 HD
ATOM     23  H31 UNL     1       3.721 -12.050   1.472  1.00  0.00     0.276 HD
ENDBRANCH   4  20
TORSDOF 4
ENDMDL