MODEL 5
REMARK VINA RESULT: -6.743648679      2.512      5.501
REMARK  4 active torsions:
REMARK  status: ('A' for Active; 'I' for Inactive)
REMARK    1  A    between atoms: N1_1  and  C1_4
REMARK    2  A    between atoms: N5_14  and  N6_16
REMARK    3  A    between atoms: N6_16  and  S1_18
REMARK    4  A    between atoms: S1_18  and  N7_19
ROOT
HETATM    1  C1  UNL     1       6.436 -13.058   3.813  1.00  0.00     0.150 A
HETATM    2  N2  UNL     1       6.387 -12.288   4.928  1.00  0.00    -0.291 N
ATOM      3  H2  UNL     1       6.504 -12.734   5.837  1.00  0.00     0.172 HD
HETATM    4  C2  UNL     1       6.189 -10.958   4.881  1.00  0.00     0.340 A
HETATM    5  O1  UNL     1       6.141 -10.234   5.906  1.00  0.00    -0.245 OA
HETATM    6  N3  UNL     1       6.039 -10.410   3.665  1.00  0.00    -0.250 N
ATOM      7  H3  UNL     1       5.888  -9.403   3.593  1.00  0.00     0.192 HD
HETATM    8  N4  UNL     1       6.081 -11.130   2.557  1.00  0.00    -0.277 N
ATOM      9  H4  UNL     1       5.962 -10.663   1.659  1.00  0.00     0.189 HD
HETATM   10  C3  UNL     1       6.281 -12.481   2.582  1.00  0.00     0.180 A
HETATM   11  N5  UNL     1       6.305 -13.077   1.466  1.00  0.00    -0.271 N
ATOM     12  H5  UNL     1       6.173 -12.485   0.647  1.00  0.00     0.189 HD
ENDROOT
BRANCH   1  13
HETATM   13  N1  UNL     1       6.624 -14.318   3.877  1.00  0.00    -0.382 N
ATOM     14  H12 UNL     1       7.063 -14.704   4.714  1.00  0.00     0.157 HD
ATOM     15  H11 UNL     1       6.349 -14.939   3.117  1.00  0.00     0.157 HD
ENDBRANCH   1  13
BRANCH  11  16
HETATM   16  N6  UNL     1       6.485 -14.404   1.210  1.00  0.00    -0.208 N
ATOM     17  H6  UNL     1       7.344 -14.864   1.509  1.00  0.00     0.201 HD
BRANCH  16  18
HETATM   18  S1  UNL     1       5.278 -15.306   0.391  1.00  0.00     0.330 S
HETATM   19  O2  UNL     1       5.265 -16.749   0.801  1.00  0.00    -0.181 OA
HETATM   20  O3  UNL     1       3.919 -14.678   0.604  1.00  0.00    -0.181 OA
BRANCH  18  21
HETATM   21  N7  UNL     1       5.583 -15.259  -1.313  1.00  0.00    -0.310 N
ATOM     22  H72 UNL     1       6.482 -15.474  -1.745  1.00  0.00     0.170 HD
ATOM     23  H71 UNL     1       4.730 -14.985  -1.802  1.00  0.00     0.170 HD
ENDBRANCH  18  21
ENDBRANCH  16  18
ENDBRANCH  11  16
TORSDOF 4
ENDMDL