MODEL 2
REMARK VINA RESULT: -6.486061366      2.859      4.605
REMARK  7 active torsions:
REMARK  status: ('A' for Active; 'I' for Inactive)
REMARK    1  A    between atoms: N1_1  and  C1_4
REMARK    2  A    between atoms: C2_9  and  C3_10
REMARK    3  A    between atoms: C3_10  and  N4_11
REMARK    4  A    between atoms: C6_18  and  C7_19
REMARK    5  A    between atoms: C8_20  and  C9_21
REMARK    6  A    between atoms: C9_21  and  N7_22
REMARK    7  A    between atoms: C9_21  and  O1_26
ROOT
HETATM    1  C1  UNL     1       7.322 -16.644   2.600  1.00  0.00     0.134 A
HETATM    2  N2  UNL     1       7.143 -16.323   3.884  1.00  0.00    -0.284 N
ATOM      3  H2  UNL     1       7.457 -16.892   4.670  1.00  0.00     0.188 HD
HETATM    4  N3  UNL     1       6.505 -15.174   4.002  1.00  0.00    -0.300 N
ATOM      5  H3  UNL     1       6.257 -14.727   4.884  1.00  0.00     0.186 HD
HETATM    6  C2  UNL     1       6.226 -14.672   2.755  1.00  0.00     0.068 A
HETATM    7  C6  UNL     1       6.739 -15.596   1.878  1.00  0.00     0.088 A
ENDROOT
BRANCH   7   8
HETATM    8  C7  UNL     1       6.697 -15.498   0.433  1.00  0.00    -0.057 C
HETATM    9  C8  UNL     1       6.678 -15.436  -0.785  1.00  0.00    -0.041 C
BRANCH   9  10
HETATM   10  C9  UNL     1       6.638 -15.375  -2.250  1.00  0.00     0.398 C
BRANCH  10  11
HETATM   11  N7  UNL     1       5.924 -16.492  -2.793  1.00  0.00    -0.042 N
ATOM     12  H73 UNL     1       6.543 -17.120  -3.307  1.00  0.00     0.278 HD
ATOM     13  H72 UNL     1       5.623 -17.136  -2.062  1.00  0.00     0.278 HD
ATOM     14  H71 UNL     1       5.141 -16.183  -3.368  1.00  0.00     0.278 HD
ENDBRANCH  10  11
BRANCH  10  15
HETATM   15  O1  UNL     1       7.986 -15.342  -2.670  1.00  0.00    -0.361 OA
ATOM     16  H1  UNL     1       8.254 -14.434  -2.606  1.00  0.00     0.213 HD
ENDBRANCH  10  15
ENDBRANCH   9  10
ENDBRANCH   7   8
BRANCH   1  17
HETATM   17  N1  UNL     1       7.884 -17.660   2.041  1.00  0.00    -0.383 N
ATOM     18  H12 UNL     1       7.363 -18.402   1.573  1.00  0.00     0.157 HD
ATOM     19  H11 UNL     1       8.865 -17.928   1.952  1.00  0.00     0.157 HD
ENDBRANCH   1  17
BRANCH   6  20
HETATM   20  C3  UNL     1       5.509 -13.408   2.472  1.00  0.00     0.210 C
BRANCH  20  21
HETATM   21  N4  UNL     1       6.353 -12.269   2.271  1.00  0.00    -0.282 N
HETATM   22  C4  UNL     1       7.283 -11.810   3.114  1.00  0.00     0.130 A
HETATM   23  C5  UNL     1       7.866 -10.694   2.531  1.00  0.00     0.127 A
HETATM   24  N5  UNL     1       7.250 -10.527   1.338  1.00  0.00    -0.296 N
HETATM   25  N6  UNL     1       6.347 -11.492   1.217  1.00  0.00    -0.241 N
ATOM     26  H5  UNL     1       7.443  -9.793   0.656  1.00  0.00     0.187 HD
ATOM     27  H6  UNL     1       5.732 -11.612   0.412  1.00  0.00     0.208 HD
ENDBRANCH  20  21
ENDBRANCH   6  20
TORSDOF 7
ENDMDL