MODEL 2
REMARK VINA RESULT: -7.996933165      1.948      2.216
REMARK  7 active torsions:
REMARK  status: ('A' for Active; 'I' for Inactive)
REMARK       I    between atoms: C1_2  and  N2_4
REMARK    1  A    between atoms: N2_4  and  N3_6
REMARK       I    between atoms: N3_6  and  C2_8
REMARK    2  A    between atoms: C2_8  and  C3_10
REMARK    3  A    between atoms: C4_11  and  N4_12
REMARK    4  A    between atoms: C4_11  and  C5_16
REMARK    5  A    between atoms: C7_21  and  C8_22
REMARK    6  A    between atoms: C10_29  and  O7_30
REMARK    7  A    between atoms: C11_32  and  O8_33
ROOT
HETATM    1  C3  UNL     1      -2.370 -34.801  43.437  1.00  0.00     0.102 C
HETATM    2  C4  UNL     1      -3.581 -34.056  43.090  1.00  0.00     0.305 C
HETATM    3  C6  UNL     1      -4.878 -34.701  42.769  1.00  0.00     0.207 C
HETATM    4  O5  UNL     1      -5.593 -34.970  43.648  1.00  0.00    -0.291 OA
HETATM    5  C7  UNL     1      -5.421 -35.076  41.345  1.00  0.00     0.219 C
HETATM    6  N5  UNL     1      -4.048 -35.384  40.732  1.00  0.00    -0.345 N
ATOM      7  H5  UNL     1      -3.825 -34.947  39.838  1.00  0.00     0.163 HD
HETATM    8  C9  UNL     1      -3.149 -36.154  41.259  1.00  0.00     0.176 C
HETATM    9  N6  UNL     1      -1.889 -36.294  40.532  1.00  0.00    -0.332 N
ATOM     10  H6  UNL     1      -1.710 -36.455  39.541  1.00  0.00     0.165 HD
HETATM   11  C10 UNL     1      -0.933 -36.130  41.684  1.00  0.00     0.281 C
HETATM   12  C11 UNL     1      -1.804 -35.995  42.899  1.00  0.00     0.212 C
HETATM   13  N7  UNL     1      -2.934 -36.923  42.426  1.00  0.00    -0.323 N
ATOM     14  H7  UNL     1      -3.364 -37.767  42.808  1.00  0.00     0.166 HD
ENDROOT
BRANCH   1  15
HETATM   15  C2  UNL     1      -1.290 -33.758  43.600  1.00  0.00     0.270 C
HETATM   16  N3  UNL     1      -0.541 -33.611  44.804  1.00  0.00    -0.262 N
ATOM     17  H3  UNL     1      -0.741 -34.239  45.584  1.00  0.00     0.190 HD
HETATM   18  O2  UNL     1      -0.993 -32.956  42.679  1.00  0.00    -0.266 OA
BRANCH  16  19
HETATM   19  N2  UNL     1       0.450 -32.650  44.960  1.00  0.00    -0.251 N
HETATM   20  C1  UNL     1       1.079 -32.293  46.168  1.00  0.00     0.347 C
HETATM   21  N1  UNL     1       2.087 -31.291  46.217  1.00  0.00    -0.038 NA
HETATM   22  O1  UNL     1       0.802 -32.827  47.273  1.00  0.00    -0.249 OA
ATOM     23  H2  UNL     1       0.750 -32.156  44.120  1.00  0.00     0.191 HD
ENDBRANCH  16  19
ENDBRANCH   1  15
BRANCH   2  24
HETATM   24  N4  UNL     1      -3.295 -33.031  42.049  1.00  0.00    -0.049 N
ATOM     25  H43 UNL     1      -3.029 -32.138  42.464  1.00  0.00     0.276 HD
ATOM     26  H42 UNL     1      -2.429 -33.234  41.550  1.00  0.00     0.276 HD
ATOM     27  H41 UNL     1      -4.084 -32.930  41.410  1.00  0.00     0.276 HD
ENDBRANCH   2  24
BRANCH   2  28
HETATM   28  C5  UNL     1      -3.935 -33.236  44.313  1.00  0.00     0.223 C
HETATM   29  O3  UNL     1      -4.799 -32.339  44.177  1.00  0.00    -0.646 OA
HETATM   30  O4  UNL     1      -3.337 -33.470  45.506  1.00  0.00    -0.646 OA
ENDBRANCH   2  28
BRANCH  12  31
HETATM   31  O8  UNL     1      -1.116 -36.690  43.902  1.00  0.00    -0.363 OA
ATOM     32  H8  UNL     1      -1.271 -37.623  43.814  1.00  0.00     0.213 HD
ENDBRANCH  12  31
BRANCH  11  33
HETATM   33  O7  UNL     1      -0.335 -37.421  41.732  1.00  0.00    -0.371 OA
ATOM     34  H7  UNL     1       0.516 -37.216  42.104  1.00  0.00     0.212 HD
ENDBRANCH  11  33
BRANCH   5  35
HETATM   35  C8  UNL     1      -6.125 -36.350  41.386  1.00  0.00     0.264 C
HETATM   36  O6  UNL     1      -7.336 -36.425  41.227  1.00  0.00    -0.304 OA
ENDBRANCH   5  35
TORSDOF 7
ENDMDL