MODEL 3
REMARK VINA RESULT: -10.221726015      0.794      1.503
REMARK  8 active torsions:
REMARK  status: ('A' for Active; 'I' for Inactive)
REMARK    1  A    between atoms: N1_1  and  N2_4
REMARK       I    between atoms: N2_4  and  C1_6
REMARK    2  A    between atoms: C1_6  and  C2_8
REMARK    3  A    between atoms: C3_13  and  N5_14
REMARK       I    between atoms: N5_14  and  C4_16
REMARK    4  A    between atoms: N7_18  and  C5_20
REMARK    5  A    between atoms: C5_20  and  N8_21
REMARK    6  A    between atoms: C7_26  and  N9_27
REMARK    7  A    between atoms: C8_31  and  N10_32
REMARK       I    between atoms: N10_32  and  C9_34
REMARK    8  A    between atoms: C10_37  and  O3_38
ROOT
HETATM    1  N5  UNL     1      -2.586 -35.333  41.131  1.00  0.00    -0.162 N
ATOM      2  H5  UNL     1      -2.295 -36.041  40.457  1.00  0.00     0.187 HD
HETATM    3  C4  UNL     1      -3.980 -34.985  41.279  1.00  0.00     0.204 C
HETATM    4  N6  UNL     1      -4.700 -35.607  42.332  1.00  0.00    -0.063 NA
HETATM    5  N7  UNL     1      -4.546 -34.173  40.513  1.00  0.00    -0.329 N
ATOM      6  H7  UNL     1      -3.982 -33.760  39.771  1.00  0.00     0.164 HD
ENDROOT
BRANCH   5   7
HETATM    7  C5  UNL     1      -5.914 -33.777  40.592  1.00  0.00     0.227 C
HETATM    8  C6  UNL     1      -6.165 -32.313  40.799  1.00  0.00     0.099 C
HETATM    9  C7  UNL     1      -7.528 -32.292  41.502  1.00  0.00     0.212 C
HETATM   10  C8  UNL     1      -7.322 -33.370  42.542  1.00  0.00     0.149 C
HETATM   11  C10 UNL     1      -6.551 -34.420  41.807  1.00  0.00     0.199 C
BRANCH   7  12
HETATM   12  N8  UNL     1      -6.554 -34.198  39.362  1.00  0.00    -0.050 N
ATOM     13  H83 UNL     1      -6.559 -35.210  39.241  1.00  0.00     0.277 HD
ATOM     14  H82 UNL     1      -7.565 -34.062  39.371  1.00  0.00     0.277 HD
ATOM     15  H81 UNL     1      -6.092 -33.707  38.597  1.00  0.00     0.277 HD
ENDBRANCH   7  12
BRANCH   9  16
HETATM   16  N9  UNL     1      -7.835 -31.007  42.052  1.00  0.00    -0.073 N
ATOM     17  H93 UNL     1      -7.475 -30.258  41.460  1.00  0.00     0.274 HD
ATOM     18  H92 UNL     1      -8.832 -30.805  41.983  1.00  0.00     0.274 HD
ATOM     19  H91 UNL     1      -7.505 -30.907  43.012  1.00  0.00     0.274 HD
ENDBRANCH   9  16
BRANCH  10  20
HETATM   20  N10 UNL     1      -6.568 -32.794  43.641  1.00  0.00    -0.336 N
HETATM   21  C9  UNL     1      -6.118 -33.570  44.737  1.00  0.00     0.329 C
HETATM   22  N11 UNL     1      -5.382 -32.918  45.772  1.00  0.00    -0.040 NA
HETATM   23  O2  UNL     1      -6.383 -34.782  44.751  1.00  0.00    -0.251 OA
ATOM     24  H10 UNL     1      -6.354 -31.796  43.622  1.00  0.00     0.164 HD
ENDBRANCH  10  20
BRANCH  11  25
HETATM   25  O3  UNL     1      -7.365 -35.495  41.471  1.00  0.00    -0.389 OA
ATOM     26  H3  UNL     1      -8.077 -35.615  42.088  1.00  0.00     0.210 HD
ENDBRANCH  11  25
ENDBRANCH   5   7
BRANCH   1  27
HETATM   27  C3  UNL     1      -1.716 -34.732  41.869  1.00  0.00     0.702 A
HETATM   28  N4  UNL     1      -0.960 -33.741  41.382  1.00  0.00    -0.131 N
HETATM   29  N3  UNL     1      -0.080 -33.122  42.124  1.00  0.00    -0.277 N
ATOM     30  H4  UNL     1      -1.073 -33.461  40.407  1.00  0.00     0.205 HD
HETATM   31  C2  UNL     1       0.129 -33.444  43.441  1.00  0.00     0.187 A
ATOM     32  H3  UNL     1       0.472 -32.372  41.709  1.00  0.00     0.188 HD
HETATM   33  C11 UNL     1      -0.638 -34.455  43.946  1.00  0.00     0.293 A
HETATM   34  N12 UNL     1      -1.542 -35.075  43.146  1.00  0.00    -0.152 N
HETATM   35  O4  UNL     1      -0.545 -34.845  45.132  1.00  0.00    -0.265 OA
ATOM     36  H12 UNL     1      -2.107 -35.830  43.534  1.00  0.00     0.187 HD
BRANCH  31  37
HETATM   37  C1  UNL     1       1.115 -32.717  44.195  1.00  0.00     0.293 C
HETATM   38  N2  UNL     1       1.170 -32.572  45.583  1.00  0.00    -0.271 N
ATOM     39  H2  UNL     1       0.456 -33.010  46.165  1.00  0.00     0.189 HD
HETATM   40  O1  UNL     1       2.041 -32.142  43.529  1.00  0.00    -0.264 OA
BRANCH  38  41
HETATM   41  N1  UNL     1       2.222 -31.812  46.200  1.00  0.00    -0.342 N
ATOM     42  H12 UNL     1       2.308 -31.830  47.217  1.00  0.00     0.176 HD
ATOM     43  H11 UNL     1       2.870 -31.265  45.633  1.00  0.00     0.176 HD
ENDBRANCH  38  41
ENDBRANCH  31  37
ENDBRANCH   1  27
TORSDOF 8
ENDMDL