MODEL 4
REMARK VINA RESULT: -8.520520935      1.863      2.304
REMARK  11 active torsions:
REMARK  status: ('A' for Active; 'I' for Inactive)
REMARK    1  A    between atoms: C3_5  and  N2_6
REMARK    2  A    between atoms: N2_6  and  C4_8
REMARK    3  A    between atoms: C5_12  and  N5_13
REMARK    4  A    between atoms: C5_12  and  C6_17
REMARK    5  A    between atoms: N7_20  and  C7_21
REMARK    6  A    between atoms: C7_21  and  O2_22
REMARK    7  A    between atoms: C7_21  and  C8_24
REMARK    8  A    between atoms: C8_24  and  O3_25
REMARK    9  A    between atoms: C8_24  and  C9_27
REMARK   10  A    between atoms: C9_27  and  O4_28
REMARK   11  A    between atoms: C11_34  and  N9_35
ROOT
HETATM    1  C4  UNL     1      -4.539 -33.939  44.713  1.00  0.00     0.304 C
HETATM    2  N3  UNL     1      -3.686 -34.257  43.623  1.00  0.00    -0.303 N
ATOM      3  H3  UNL     1      -2.684 -34.081  43.695  1.00  0.00     0.178 HD
HETATM    4  N4  UNL     1      -4.197 -34.792  42.485  1.00  0.00    -0.073 NA
HETATM    5  C5  UNL     1      -5.646 -34.794  42.415  1.00  0.00     0.375 C
HETATM    6  N7  UNL     1      -6.062 -33.489  42.791  1.00  0.00    -0.238 N
HETATM    7  C10 UNL     1      -5.763 -33.221  44.217  1.00  0.00     0.273 C
HETATM    8  O5  UNL     1      -6.477 -32.469  44.901  1.00  0.00    -0.268 OA
ENDROOT
BRANCH   1   9
HETATM    9  N2  UNL     1      -3.753 -33.022  45.550  1.00  0.00    -0.195 N
ATOM     10  H2  UNL     1      -3.855 -32.025  45.361  1.00  0.00     0.180 HD
BRANCH   9  11
HETATM   11  C3  UNL     1      -2.968 -33.346  46.474  1.00  0.00     0.696 A
HETATM   12  N1  UNL     1      -3.453 -33.579  47.700  1.00  0.00    -0.180 N
HETATM   13  C2  UNL     1      -2.686 -33.929  48.743  1.00  0.00     0.109 A
ATOM     14  H1  UNL     1      -4.458 -33.486  47.849  1.00  0.00     0.185 HD
HETATM   15  C1  UNL     1      -3.272 -34.179  50.089  1.00  0.00     0.090 C
HETATM   16  N10 UNL     1      -1.365 -34.046  48.525  1.00  0.00    -0.180 N
HETATM   17  C11 UNL     1      -0.848 -33.818  47.308  1.00  0.00     0.691 A
ATOM     18  H10 UNL     1      -0.748 -34.310  49.293  1.00  0.00     0.185 HD
HETATM   19  N8  UNL     1      -1.653 -33.465  46.272  1.00  0.00    -0.023 N
ATOM     20  H8  UNL     1      -1.256 -33.293  45.348  1.00  0.00     0.203 HD
BRANCH  17  21
HETATM   21  N9  UNL     1       0.432 -33.945  47.158  1.00  0.00    -0.234 N
ATOM     22  H92 UNL     1       0.850 -33.600  46.294  1.00  0.00     0.174 HD
ATOM     23  H91 UNL     1       1.014 -34.376  47.877  1.00  0.00     0.174 HD
ENDBRANCH  17  21
ENDBRANCH   9  11
ENDBRANCH   1   9
BRANCH   6  24
HETATM   24  C7  UNL     1      -6.591 -32.413  42.070  1.00  0.00     0.155 C
BRANCH  24  25
HETATM   25  O2  UNL     1      -6.433 -31.223  42.616  1.00  0.00    -0.347 OA
ATOM     26  H2  UNL     1      -5.651 -30.750  42.356  1.00  0.00     0.219 HD
ENDBRANCH  24  25
BRANCH  24  27
HETATM   27  C8  UNL     1      -7.296 -32.339  40.799  1.00  0.00     0.216 C
BRANCH  27  28
HETATM   28  O3  UNL     1      -8.365 -31.368  40.884  1.00  0.00    -0.385 OA
ATOM     29  H3  UNL     1      -9.185 -31.765  40.613  1.00  0.00     0.210 HD
ENDBRANCH  27  28
BRANCH  27  30
HETATM   30  C9  UNL     1      -6.416 -31.685  39.715  1.00  0.00     0.204 C
BRANCH  30  31
HETATM   31  O4  UNL     1      -5.999 -32.527  38.742  1.00  0.00    -0.398 OA
ATOM     32  H4  UNL     1      -5.311 -32.180  38.185  1.00  0.00     0.209 HD
ENDBRANCH  30  31
ENDBRANCH  27  30
ENDBRANCH  24  27
ENDBRANCH   6  24
BRANCH   5  33
HETATM   33  N5  UNL     1      -6.044 -35.792  43.455  1.00  0.00    -0.026 N
ATOM     34  H53 UNL     1      -5.565 -35.686  44.349  1.00  0.00     0.279 HD
ATOM     35  H52 UNL     1      -6.986 -35.665  43.824  1.00  0.00     0.279 HD
ATOM     36  H51 UNL     1      -5.887 -36.690  42.995  1.00  0.00     0.279 HD
ENDBRANCH   5  33
BRANCH   5  37
HETATM   37  C6  UNL     1      -6.088 -35.337  41.128  1.00  0.00     0.308 C
HETATM   38  N6  UNL     1      -7.368 -35.993  40.972  1.00  0.00    -0.057 NA
HETATM   39  O1  UNL     1      -5.412 -35.297  40.067  1.00  0.00    -0.270 OA
ENDBRANCH   5  37
TORSDOF 11
ENDMDL