MODEL 3
REMARK VINA RESULT: -6.075693937      1.890      7.156
REMARK  6 active torsions:
REMARK  status: ('A' for Active; 'I' for Inactive)
REMARK    1  A    between atoms: C1_2  and  C2_4
REMARK    2  A    between atoms: C5_13  and  O3_14
REMARK    3  A    between atoms: C6_16  and  N4_17
REMARK       I    between atoms: N4_17  and  C7_19
REMARK    4  A    between atoms: C7_19  and  C8_21
REMARK    5  A    between atoms: C8_21  and  N5_22
REMARK    6  A    between atoms: C8_21  and  C9_26
ROOT
HETATM    1  C2  UNL     1       0.427 -32.759  47.598  1.00  0.00     0.388 C
HETATM    2  N2  UNL     1       0.479 -33.512  46.359  1.00  0.00    -0.036 N
ATOM      3  H21 UNL     1      -0.290 -34.176  46.264  1.00  0.00     0.280 HD
ATOM      4  H22 UNL     1       1.241 -34.189  46.335  1.00  0.00     0.280 HD
HETATM    5  C3  UNL     1       0.536 -32.577  45.301  1.00  0.00     0.337 C
HETATM    6  C4  UNL     1       0.422 -33.081  43.920  1.00  0.00     0.245 C
HETATM    7  O2  UNL     1       0.838 -32.196  43.080  1.00  0.00    -0.272 OA
HETATM    8  N3  UNL     1      -0.038 -34.290  43.420  1.00  0.00    -0.331 N
ATOM      9  H3  UNL     1       0.579 -34.688  42.713  1.00  0.00     0.165 HD
HETATM   10  C5  UNL     1      -1.172 -35.094  43.674  1.00  0.00     0.252 C
HETATM   11  C6  UNL     1      -2.533 -34.550  43.639  1.00  0.00     0.225 C
HETATM   12  C10 UNL     1      -2.766 -33.177  44.075  1.00  0.00     0.244 C
HETATM   13  O6  UNL     1      -2.536 -32.251  43.248  1.00  0.00    -0.271 OA
HETATM   14  N6  UNL     1      -3.236 -32.778  45.359  1.00  0.00    -0.358 N
ATOM     15  H6  UNL     1      -3.337 -31.777  45.528  1.00  0.00     0.162 HD
HETATM   16  C11 UNL     1      -3.578 -33.664  46.435  1.00  0.00     0.143 C
HETATM   17  C12 UNL     1      -2.917 -33.234  47.753  1.00  0.00     0.158 C
HETATM   18  N7  UNL     1      -1.645 -33.882  47.900  1.00  0.00    -0.337 N
ATOM     19  H7  UNL     1      -1.496 -34.847  47.604  1.00  0.00     0.179 HD
HETATM   20  N8  UNL     1      -0.655 -33.140  48.454  1.00  0.00    -0.303 N
ATOM     21  H8  UNL     1      -0.679 -32.866  49.436  1.00  0.00     0.182 HD
ENDROOT
BRANCH  11  22
HETATM   22  N4  UNL     1      -3.074 -34.655  42.292  1.00  0.00    -0.342 N
HETATM   23  C7  UNL     1      -4.438 -34.772  41.987  1.00  0.00     0.256 C
HETATM   24  O4  UNL     1      -5.274 -34.789  42.927  1.00  0.00    -0.271 OA
ATOM     25  H4  UNL     1      -2.414 -34.644  41.515  1.00  0.00     0.163 HD
BRANCH  23  26
HETATM   26  C8  UNL     1      -4.966 -34.878  40.605  1.00  0.00     0.335 C
BRANCH  26  27
HETATM   27  N5  UNL     1      -5.413 -33.602  40.109  1.00  0.00    -0.060 N
ATOM     28  H53 UNL     1      -4.766 -32.855  40.366  1.00  0.00     0.275 HD
ATOM     29  H52 UNL     1      -5.325 -33.545  39.094  1.00  0.00     0.275 HD
ATOM     30  H51 UNL     1      -6.364 -33.392  40.413  1.00  0.00     0.275 HD
ENDBRANCH  26  27
BRANCH  26  31
HETATM   31  C9  UNL     1      -6.104 -35.866  40.585  1.00  0.00     0.273 C
HETATM   32  O5  UNL     1      -7.222 -35.542  40.238  1.00  0.00    -0.304 OA
ENDBRANCH  26  31
ENDBRANCH  23  26
ENDBRANCH  11  22
BRANCH  10  33
HETATM   33  O3  UNL     1      -0.967 -35.707  44.938  1.00  0.00    -0.374 OA
ATOM     34  H3  UNL     1      -0.103 -35.445  45.234  1.00  0.00     0.212 HD
ENDBRANCH  10  33
BRANCH   1  35
HETATM   35  C1  UNL     1       1.692 -32.958  48.353  1.00  0.00     0.282 C
HETATM   36  N1  UNL     1       1.772 -34.025  49.269  1.00  0.00    -0.059 NA
HETATM   37  O1  UNL     1       2.653 -32.175  48.157  1.00  0.00    -0.272 OA
ENDBRANCH   1  35
TORSDOF 6
ENDMDL