MODEL 5
REMARK VINA RESULT: -6.845385982      1.855      4.120
REMARK  9 active torsions:
REMARK  status: ('A' for Active; 'I' for Inactive)
REMARK    1  A    between atoms: N2_4  and  N3_6
REMARK    2  A    between atoms: C2_9  and  C3_10
REMARK    3  A    between atoms: C3_10  and  C4_12
REMARK       I    between atoms: C4_12  and  N5_14
REMARK    4  A    between atoms: N5_14  and  N6_16
REMARK    5  A    between atoms: C5_19  and  C6_20
REMARK    6  A    between atoms: C7_24  and  O4_25
REMARK    7  A    between atoms: C7_24  and  O5_27
REMARK    8  A    between atoms: C9_31  and  O6_32
REMARK    9  A    between atoms: C10_34  and  N8_35
ROOT
HETATM    1  N3  UNL     1      -6.466 -35.430  42.700  1.00  0.00    -0.288 N
ATOM      2  H3  UNL     1      -7.029 -34.937  43.394  1.00  0.00     0.188 HD
HETATM    3  C1  UNL     1      -5.215 -35.137  42.626  1.00  0.00     0.077 C
HETATM    4  C2  UNL     1      -4.603 -34.115  43.517  1.00  0.00     0.054 C
HETATM    5  C5  UNL     1      -3.267 -34.085  43.618  1.00  0.00     0.129 C
HETATM    6  N7  UNL     1      -2.430 -35.031  42.857  1.00  0.00    -0.274 N
HETATM    7  C7  UNL     1      -0.982 -35.008  42.826  1.00  0.00     0.305 C
HETATM    8  S1  UNL     1      -0.572 -36.282  41.534  1.00  0.00    -0.073 SA
HETATM    9  C8  UNL     1      -2.223 -36.271  40.785  1.00  0.00     0.145 C
HETATM   10  C9  UNL     1      -3.010 -36.081  42.102  1.00  0.00     0.181 C
HETATM   11  C10 UNL     1      -4.395 -35.840  41.642  1.00  0.00     0.291 C
ENDROOT
BRANCH   4  12
HETATM   12  C3  UNL     1      -5.571 -33.246  44.191  1.00  0.00     0.130 C
HETATM   13  N4  UNL     1      -5.893 -33.659  45.519  1.00  0.00    -0.095 NA
BRANCH  12  14
HETATM   14  C4  UNL     1      -6.586 -32.593  43.384  1.00  0.00     0.284 C
HETATM   15  O1  UNL     1      -7.755 -33.041  43.383  1.00  0.00    -0.265 OA
HETATM   16  N5  UNL     1      -6.286 -31.466  42.598  1.00  0.00    -0.271 N
ATOM     17  H5  UNL     1      -5.337 -31.094  42.592  1.00  0.00     0.189 HD
BRANCH  16  18
HETATM   18  N6  UNL     1      -7.272 -30.851  41.825  1.00  0.00    -0.342 N
ATOM     19  H62 UNL     1      -7.687 -31.377  41.055  1.00  0.00     0.176 HD
ATOM     20  H61 UNL     1      -7.572 -29.898  42.025  1.00  0.00     0.176 HD
ENDBRANCH  16  18
ENDBRANCH  12  14
ENDBRANCH   4  12
BRANCH   5  21
HETATM   21  C6  UNL     1      -2.666 -33.117  44.488  1.00  0.00     0.228 C
HETATM   22  O2  UNL     1      -2.122 -32.074  44.028  1.00  0.00    -0.643 OA
HETATM   23  O3  UNL     1      -2.609 -33.218  45.849  1.00  0.00    -0.643 OA
ENDBRANCH   5  21
BRANCH   1  24
HETATM   24  N2  UNL     1      -7.098 -36.360  41.909  1.00  0.00    -0.249 N
HETATM   25  N1  UNL     1      -7.718 -36.026  40.839  1.00  0.00    -0.331 N
ATOM     26  H12 UNL     1      -7.734 -35.039  40.582  1.00  0.00     0.178 HD
ATOM     27  H11 UNL     1      -8.187 -36.716  40.252  1.00  0.00     0.178 HD
ATOM     28  H2  UNL     1      -7.072 -37.343  42.180  1.00  0.00     0.207 HD
ENDBRANCH   1  24
BRANCH  11  29
HETATM   29  N8  UNL     1      -4.388 -35.051  40.405  1.00  0.00    -0.065 N
ATOM     30  H83 UNL     1      -4.415 -35.633  39.566  1.00  0.00     0.275 HD
ATOM     31  H82 UNL     1      -5.264 -34.551  40.252  1.00  0.00     0.275 HD
ATOM     32  H81 UNL     1      -3.579 -34.431  40.428  1.00  0.00     0.275 HD
ENDBRANCH  11  29
BRANCH  10  33
HETATM   33  O6  UNL     1      -2.986 -37.316  42.751  1.00  0.00    -0.367 OA
ATOM     34  H6  UNL     1      -3.555 -37.966  42.354  1.00  0.00     0.212 HD
ENDBRANCH  10  33
BRANCH   7  35
HETATM   35  O4  UNL     1      -0.438 -33.848  42.284  1.00  0.00    -0.340 OA
ATOM     36  H4  UNL     1       0.504 -33.772  42.386  1.00  0.00     0.216 HD
ENDBRANCH   7  35
BRANCH   7  37
HETATM   37  O5  UNL     1      -0.377 -35.404  44.013  1.00  0.00    -0.340 OA
ATOM     38  H5  UNL     1       0.571 -35.449  43.974  1.00  0.00     0.216 HD
ENDBRANCH   7  37
TORSDOF 9
ENDMDL