MODEL 5
REMARK VINA RESULT: -6.265932941      2.535      4.733
REMARK  9 active torsions:
REMARK  status: ('A' for Active; 'I' for Inactive)
REMARK    1  A    between atoms: N1_1  and  N2_4
REMARK       I    between atoms: N2_4  and  C1_6
REMARK    2  A    between atoms: C1_6  and  C2_8
REMARK    3  A    between atoms: C2_8  and  N3_9
REMARK    4  A    between atoms: C2_8  and  C3_13
REMARK    5  A    between atoms: C3_13  and  O2_14
REMARK    6  A    between atoms: C3_13  and  C4_16
REMARK    7  A    between atoms: C6_18  and  C7_19
REMARK    8  A    between atoms: C12_30  and  N7_31
REMARK    9  A    between atoms: C14_36  and  N8_37
ROOT
HETATM    1  C4  UNL     1      -3.952 -33.617  43.764  1.00  0.00     0.013 C
HETATM    2  C5  UNL     1      -3.636 -35.010  43.262  1.00  0.00     0.036 C
HETATM    3  C6  UNL     1      -3.492 -35.319  41.843  1.00  0.00     0.151 C
HETATM    4  C8  UNL     1      -4.591 -36.191  41.282  1.00  0.00     0.187 C
HETATM    5  O4  UNL     1      -4.372 -37.383  41.264  1.00  0.00    -0.290 OA
HETATM    6  C9  UNL     1      -5.889 -35.761  40.759  1.00  0.00     0.107 C
HETATM    7  N5  UNL     1      -6.997 -36.596  41.261  1.00  0.00    -0.097 NA
HETATM    8  C10 UNL     1      -6.270 -34.359  40.666  1.00  0.00     0.114 C
HETATM    9  N6  UNL     1      -6.801 -33.641  41.784  1.00  0.00    -0.389 N
ATOM     10  H6  UNL     1      -7.703 -33.165  41.769  1.00  0.00     0.159 HD
HETATM   11  C11 UNL     1      -5.985 -33.658  42.866  1.00  0.00     0.134 C
HETATM   12  C12 UNL     1      -6.381 -33.452  44.291  1.00  0.00     0.209 C
HETATM   13  C13 UNL     1      -4.991 -33.759  44.909  1.00  0.00     0.049 C
HETATM   14  C14 UNL     1      -4.764 -32.780  42.887  1.00  0.00     0.110 C
ENDROOT
BRANCH   1  15
HETATM   15  C3  UNL     1      -2.703 -32.984  44.232  1.00  0.00     0.168 C
BRANCH  15  16
HETATM   16  C2  UNL     1      -1.763 -33.600  45.166  1.00  0.00     0.305 C
BRANCH  16  17
HETATM   17  C1  UNL     1      -0.414 -32.961  44.927  1.00  0.00     0.268 C
HETATM   18  N2  UNL     1       0.621 -33.549  44.181  1.00  0.00    -0.275 N
ATOM     19  H2  UNL     1       0.488 -34.470  43.762  1.00  0.00     0.189 HD
HETATM   20  O1  UNL     1      -0.197 -31.827  45.428  1.00  0.00    -0.269 OA
BRANCH  18  21
HETATM   21  N1  UNL     1       1.844 -32.868  44.011  1.00  0.00    -0.343 N
ATOM     22  H12 UNL     1       2.541 -33.256  43.375  1.00  0.00     0.176 HD
ATOM     23  H11 UNL     1       2.022 -32.002  44.519  1.00  0.00     0.176 HD
ENDBRANCH  18  21
ENDBRANCH  16  17
BRANCH  16  24
HETATM   24  N3  UNL     1      -1.984 -33.421  46.577  1.00  0.00    -0.064 N
ATOM     25  H33 UNL     1      -1.149 -33.163  47.103  1.00  0.00     0.275 HD
ATOM     26  H32 UNL     1      -2.524 -32.591  46.815  1.00  0.00     0.275 HD
ATOM     27  H31 UNL     1      -2.410 -34.299  46.871  1.00  0.00     0.275 HD
ENDBRANCH  16  24
ENDBRANCH  15  16
BRANCH  15  28
HETATM   28  O2  UNL     1      -1.884 -32.610  43.109  1.00  0.00    -0.392 OA
ATOM     29  H2  UNL     1      -2.076 -31.689  42.981  1.00  0.00     0.210 HD
ENDBRANCH  15  28
ENDBRANCH   1  15
BRANCH  14  30
HETATM   30  N8  UNL     1      -4.326 -32.227  41.711  1.00  0.00    -0.423 N
ATOM     31  H82 UNL     1      -3.490 -32.609  41.268  1.00  0.00     0.150 HD
ATOM     32  H81 UNL     1      -4.099 -31.241  41.582  1.00  0.00     0.150 HD
ENDBRANCH  14  30
BRANCH   3  33
HETATM   33  C7  UNL     1      -2.239 -36.100  41.595  1.00  0.00     0.242 C
HETATM   34  N4  UNL     1      -1.515 -36.733  42.641  1.00  0.00    -0.061 NA
HETATM   35  O3  UNL     1      -1.784 -36.222  40.434  1.00  0.00    -0.276 OA
ENDBRANCH   3  33
BRANCH  12  36
HETATM   36  N7  UNL     1      -6.860 -32.152  44.626  1.00  0.00    -0.073 N
ATOM     37  H73 UNL     1      -7.880 -32.146  44.619  1.00  0.00     0.274 HD
ATOM     38  H72 UNL     1      -6.683 -31.961  45.612  1.00  0.00     0.274 HD
ATOM     39  H71 UNL     1      -6.505 -31.384  44.057  1.00  0.00     0.274 HD
ENDBRANCH  12  36
TORSDOF 9
ENDMDL