MODEL 3
REMARK VINA RESULT: -9.288476606      2.903      5.106
REMARK  7 active torsions:
REMARK  status: ('A' for Active; 'I' for Inactive)
REMARK       I    between atoms: C1_4  and  N3_6
REMARK    1  A    between atoms: C3_9  and  N4_10
REMARK    2  A    between atoms: C5_15  and  N6_16
REMARK    3  A    between atoms: N8_23  and  C7_24
REMARK    4  A    between atoms: C7_24  and  C8_25
REMARK       I    between atoms: C8_25  and  N9_27
REMARK    5  A    between atoms: N9_27  and  N10_29
REMARK    6  A    between atoms: C9_32  and  O4_33
REMARK    7  A    between atoms: C11_36  and  N11_37
ROOT
HETATM    1  N4  UNL     1      -4.006 -34.087  41.580  1.00  0.00    -0.209 N
ATOM      2  H4  UNL     1      -3.433 -33.790  40.790  1.00  0.00     0.178 HD
HETATM    3  C4  UNL     1      -5.091 -33.582  41.342  1.00  0.00     0.700 A
HETATM    4  N5  UNL     1      -5.208 -32.826  40.173  1.00  0.00    -0.022 N
ATOM      5  H5  UNL     1      -4.391 -32.732  39.571  1.00  0.00     0.203 HD
HETATM    6  C5  UNL     1      -6.334 -32.225  39.810  1.00  0.00     0.694 A
HETATM    7  N7  UNL     1      -7.429 -32.310  40.547  1.00  0.00    -0.140 N
ATOM      8  H7  UNL     1      -8.290 -31.844  40.260  1.00  0.00     0.189 HD
HETATM    9  C6  UNL     1      -7.380 -33.016  41.673  1.00  0.00     0.355 A
HETATM   10  O2  UNL     1      -8.436 -33.087  42.366  1.00  0.00    -0.245 OA
HETATM   11  N8  UNL     1      -6.244 -33.629  42.052  1.00  0.00    -0.123 N
ENDROOT
BRANCH   1  12
HETATM   12  C3  UNL     1      -3.165 -34.812  42.309  1.00  0.00     0.221 C
HETATM   13  C2  UNL     1      -2.175 -34.051  43.164  1.00  0.00     0.254 C
HETATM   14  N3  UNL     1      -1.028 -34.732  43.585  1.00  0.00    -0.260 N
HETATM   15  O1  UNL     1      -2.374 -32.870  43.478  1.00  0.00    -0.270 OA
HETATM   16  C1  UNL     1      -0.016 -33.986  44.248  1.00  0.00     0.192 C
HETATM   17  C11 UNL     1      -0.765 -36.142  43.417  1.00  0.00     0.295 C
HETATM   18  N1  UNL     1       0.533 -33.010  43.630  1.00  0.00    -0.373 N
HETATM   19  N2  UNL     1       0.341 -34.355  45.559  1.00  0.00    -0.063 NA
ATOM     20  H12 UNL     1       1.260 -32.474  44.106  1.00  0.00     0.158 HD
ATOM     21  H11 UNL     1       0.275 -32.742  42.680  1.00  0.00     0.158 HD
HETATM   22  C10 UNL     1      -1.826 -36.809  42.546  1.00  0.00     0.089 C
HETATM   23  C9  UNL     1      -2.237 -35.765  41.537  1.00  0.00     0.154 C
BRANCH  17  24
HETATM   24  N11 UNL     1       0.505 -36.307  42.742  1.00  0.00    -0.058 N
ATOM     25 3H11 UNL     1       0.440 -36.122  41.741  1.00  0.00     0.276 HD
ATOM     26 2H11 UNL     1       1.170 -35.572  42.981  1.00  0.00     0.276 HD
ATOM     27 1H11 UNL     1       0.868 -37.240  42.942  1.00  0.00     0.276 HD
ENDBRANCH  17  24
BRANCH  23  28
HETATM   28  O4  UNL     1      -2.823 -36.273  40.416  1.00  0.00    -0.393 OA
ATOM     29  H4  UNL     1      -3.547 -36.855  40.615  1.00  0.00     0.210 HD
ENDBRANCH  23  28
ENDBRANCH   1  12
BRANCH  11  30
HETATM   30  C7  UNL     1      -6.308 -34.359  43.270  1.00  0.00     0.257 C
BRANCH  30  31
HETATM   31  C8  UNL     1      -5.771 -33.603  44.426  1.00  0.00     0.254 C
HETATM   32  O3  UNL     1      -6.232 -32.483  44.712  1.00  0.00    -0.270 OA
HETATM   33  N9  UNL     1      -4.735 -34.151  45.207  1.00  0.00    -0.275 N
ATOM     34  H9  UNL     1      -4.358 -35.069  44.972  1.00  0.00     0.189 HD
BRANCH  33  35
HETATM   35  N10 UNL     1      -4.214 -33.445  46.312  1.00  0.00    -0.343 N
ATOM     36 2H10 UNL     1      -4.842 -33.208  47.080  1.00  0.00     0.176 HD
ATOM     37 1H10 UNL     1      -3.230 -33.177  46.342  1.00  0.00     0.176 HD
ENDBRANCH  33  35
ENDBRANCH  30  31
ENDBRANCH  11  30
BRANCH   6  38
HETATM   38  N6  UNL     1      -6.416 -31.527  38.718  1.00  0.00    -0.234 N
ATOM     39  H62 UNL     1      -7.334 -31.470  38.277  1.00  0.00     0.174 HD
ATOM     40  H61 UNL     1      -5.604 -31.057  38.319  1.00  0.00     0.174 HD
ENDBRANCH   6  38
TORSDOF 7
ENDMDL