MODEL 5
REMARK VINA RESULT: -8.170855141      2.785      5.802
REMARK  12 active torsions:
REMARK  status: ('A' for Active; 'I' for Inactive)
REMARK    1  A    between atoms: N1_1  and  C1_5
REMARK    2  A    between atoms: C1_5  and  C2_6
REMARK    3  A    between atoms: C2_6  and  N2_7
REMARK    4  A    between atoms: C2_6  and  C3_11
REMARK       I    between atoms: C3_11  and  N3_13
REMARK    5  A    between atoms: N3_13  and  C4_15
REMARK    6  A    between atoms: C5_18  and  O2_19
REMARK    7  A    between atoms: C6_21  and  C7_22
REMARK    8  A    between atoms: N5_23  and  O3_25
REMARK    9  A    between atoms: C9_29  and  N6_30
REMARK       I    between atoms: N6_30  and  C10_32
REMARK   10  A    between atoms: C10_32  and  C11_34
REMARK       I    between atoms: C11_34  and  N7_36
REMARK   11  A    between atoms: N7_36  and  N8_38
REMARK   12  A    between atoms: N8_38  and  N9_40
ROOT
HETATM    1  C4  UNL     1      -3.424 -33.430  45.552  1.00  0.00     0.688 C
HETATM    2  N4  UNL     1      -4.736 -33.683  45.473  1.00  0.00    -0.169 N
ATOM      3  H4  UNL     1      -5.228 -33.605  46.363  1.00  0.00     0.186 HD
HETATM    4  C5  UNL     1      -5.529 -34.021  44.439  1.00  0.00     0.171 C
HETATM    5  C6  UNL     1      -5.055 -34.566  43.239  1.00  0.00     0.086 C
HETATM    6  C8  UNL     1      -3.754 -34.806  42.862  1.00  0.00     0.232 C
HETATM    7  O4  UNL     1      -3.580 -35.562  41.861  1.00  0.00    -0.283 OA
HETATM    8  C9  UNL     1      -2.570 -34.321  43.444  1.00  0.00     0.175 C
HETATM    9  N10 UNL     1      -2.471 -33.648  44.599  1.00  0.00    -0.172 N
ATOM     10  H10 UNL     1      -1.555 -33.242  44.793  1.00  0.00     0.186 HD
ENDROOT
BRANCH   1  11
HETATM   11  N3  UNL     1      -2.932 -32.917  46.625  1.00  0.00    -0.158 N
HETATM   12  C3  UNL     1      -1.587 -33.325  46.941  1.00  0.00     0.268 C
HETATM   13  O1  UNL     1      -0.630 -32.615  46.512  1.00  0.00    -0.270 OA
ATOM     14  H3  UNL     1      -3.457 -32.267  47.210  1.00  0.00     0.187 HD
BRANCH  12  15
HETATM   15  C2  UNL     1      -1.312 -34.545  47.749  1.00  0.00     0.300 C
BRANCH  15  16
HETATM   16  C1  UNL     1      -0.365 -34.162  48.867  1.00  0.00     0.272 C
BRANCH  16  17
HETATM   17  N1  UNL     1       0.978 -33.915  48.404  1.00  0.00    -0.077 N
ATOM     18  H13 UNL     1       1.029 -33.972  47.387  1.00  0.00     0.274 HD
ATOM     19  H12 UNL     1       1.232 -32.934  48.527  1.00  0.00     0.274 HD
ATOM     20  H11 UNL     1       1.666 -34.529  48.839  1.00  0.00     0.274 HD
ENDBRANCH  16  17
ENDBRANCH  15  16
BRANCH  15  21
HETATM   21  N2  UNL     1      -2.539 -34.985  48.369  1.00  0.00    -0.065 N
ATOM     22  H23 UNL     1      -2.468 -35.066  49.383  1.00  0.00     0.275 HD
ATOM     23  H22 UNL     1      -3.276 -34.280  48.344  1.00  0.00     0.275 HD
ATOM     24  H21 UNL     1      -2.804 -35.859  47.914  1.00  0.00     0.275 HD
ENDBRANCH  15  21
ENDBRANCH  12  15
ENDBRANCH   1  11
BRANCH   4  25
HETATM   25  O2  UNL     1      -6.900 -33.829  44.543  1.00  0.00    -0.345 OA
ATOM     26  H2  UNL     1      -7.234 -33.186  45.157  1.00  0.00     0.219 HD
ENDBRANCH   4  25
BRANCH   8  27
HETATM   27  N6  UNL     1      -1.533 -34.572  42.774  1.00  0.00    -0.301 N
HETATM   28  C10 UNL     1      -0.844 -33.643  41.997  1.00  0.00     0.316 C
HETATM   29  O5  UNL     1      -1.338 -33.276  40.893  1.00  0.00    -0.262 OA
ATOM     30  H6  UNL     1      -1.171 -35.524  42.803  1.00  0.00     0.171 HD
BRANCH  28  31
HETATM   31  C11 UNL     1       0.445 -33.098  42.453  1.00  0.00     0.329 C
HETATM   32  O6  UNL     1       1.245 -32.642  41.595  1.00  0.00    -0.261 OA
HETATM   33  N7  UNL     1       0.737 -33.107  43.838  1.00  0.00    -0.248 N
ATOM     34  H7  UNL     1       0.059 -33.489  44.496  1.00  0.00     0.192 HD
BRANCH  33  35
HETATM   35  N8  UNL     1       1.933 -32.604  44.303  1.00  0.00    -0.246 N
ATOM     36  H8  UNL     1       2.793 -32.662  43.758  1.00  0.00     0.207 HD
BRANCH  35  37
HETATM   37  N9  UNL     1       1.895 -32.016  45.548  1.00  0.00    -0.331 N
ATOM     38  H92 UNL     1       1.739 -31.014  45.654  1.00  0.00     0.178 HD
ATOM     39  H91 UNL     1       2.033 -32.643  46.341  1.00  0.00     0.178 HD
ENDBRANCH  35  37
ENDBRANCH  33  35
ENDBRANCH  28  31
ENDBRANCH   8  27
BRANCH   5  40
HETATM   40  C7  UNL     1      -6.093 -34.916  42.289  1.00  0.00     0.133 C
HETATM   41  N5  UNL     1      -6.615 -36.087  42.263  1.00  0.00    -0.279 N
ATOM     42  H5  UNL     1      -6.291 -36.791  42.926  1.00  0.00     0.193 HD
BRANCH  41  43
HETATM   43  O3  UNL     1      -7.598 -36.415  41.363  1.00  0.00    -0.290 OA
ATOM     44  H3  UNL     1      -7.624 -37.267  40.943  1.00  0.00     0.244 HD
ENDBRANCH  41  43
ENDBRANCH   5  40
TORSDOF 12
ENDMDL