MODEL 4
REMARK VINA RESULT: -4.376595678      2.327      4.979
REMARK  8 active torsions:
REMARK  status: ('A' for Active; 'I' for Inactive)
REMARK    1  A    between atoms: C2_2  and  N1_3
REMARK    2  A    between atoms: C2_2  and  C3_7
REMARK       I    between atoms: C3_7  and  N2_9
REMARK    3  A    between atoms: N2_9  and  C4_11
REMARK    4  A    between atoms: C8_21  and  O3_22
REMARK    5  A    between atoms: C9_24  and  O4_25
REMARK    6  A    between atoms: C10_27  and  N6_28
REMARK    7  A    between atoms: C10_27  and  C11_32
REMARK    8  A    between atoms: C13_36  and  N8_37
ROOT
HETATM    1  C4  UNL     1      -2.261 -35.476  42.500  1.00  0.00     0.153 C
HETATM    2  C5  UNL     1      -3.343 -35.222  43.542  1.00  0.00     0.092 C
HETATM    3  N3  UNL     1      -3.630 -33.869  43.768  1.00  0.00    -0.325 N
HETATM    4  C6  UNL     1      -3.150 -33.371  45.030  1.00  0.00     0.255 C
HETATM    5  N4  UNL     1      -4.090 -33.626  46.106  1.00  0.00    -0.327 N
ATOM      6  H4  UNL     1      -3.799 -33.893  47.046  1.00  0.00     0.165 HD
HETATM    7  C7  UNL     1      -5.453 -33.469  45.731  1.00  0.00     0.321 C
HETATM    8  O2  UNL     1      -6.402 -33.749  46.519  1.00  0.00    -0.247 OA
HETATM    9  N5  UNL     1      -5.676 -32.981  44.422  1.00  0.00    -0.291 N
ATOM     10  H5  UNL     1      -6.483 -32.377  44.264  1.00  0.00     0.169 HD
HETATM   11  C8  UNL     1      -4.819 -33.292  43.289  1.00  0.00     0.250 C
HETATM   12  C9  UNL     1      -5.647 -34.093  42.352  1.00  0.00     0.241 C
HETATM   13  C10 UNL     1      -5.158 -34.385  41.008  1.00  0.00     0.234 C
HETATM   14  C12 UNL     1      -3.694 -34.377  40.752  1.00  0.00     0.086 C
HETATM   15  C13 UNL     1      -2.968 -35.613  41.189  1.00  0.00     0.214 C
ENDROOT
BRANCH   1  16
HETATM   16  N2  UNL     1      -1.284 -34.443  42.549  1.00  0.00    -0.348 N
HETATM   17  C3  UNL     1      -0.047 -34.531  43.232  1.00  0.00     0.248 C
HETATM   18  O1  UNL     1       0.217 -35.593  43.841  1.00  0.00    -0.271 OA
ATOM     19  H2  UNL     1      -1.491 -33.574  42.056  1.00  0.00     0.163 HD
BRANCH  17  20
HETATM   20  C2  UNL     1       0.959 -33.450  43.275  1.00  0.00     0.270 C
HETATM   21  C1  UNL     1       0.703 -32.421  42.168  1.00  0.00     0.050 C
BRANCH  20  22
HETATM   22  N1  UNL     1       0.871 -32.711  44.521  1.00  0.00    -0.067 N
ATOM     23  H13 UNL     1       1.531 -31.937  44.586  1.00  0.00     0.275 HD
ATOM     24  H12 UNL     1       0.022 -32.153  44.607  1.00  0.00     0.275 HD
ATOM     25  H11 UNL     1       0.981 -33.407  45.259  1.00  0.00     0.275 HD
ENDBRANCH  20  22
ENDBRANCH  17  20
ENDBRANCH   1  16
BRANCH  15  26
HETATM   26  N8  UNL     1      -2.025 -36.088  40.163  1.00  0.00    -0.073 N
ATOM     27  H83 UNL     1      -2.151 -35.606  39.272  1.00  0.00     0.274 HD
ATOM     28  H82 UNL     1      -1.067 -35.793  40.355  1.00  0.00     0.274 HD
ATOM     29  H81 UNL     1      -2.103 -37.100  40.066  1.00  0.00     0.274 HD
ENDBRANCH  15  26
BRANCH  11  30
HETATM   30  O3  UNL     1      -4.472 -32.030  42.766  1.00  0.00    -0.351 OA
ATOM     31  H3  UNL     1      -3.845 -31.649  43.369  1.00  0.00     0.214 HD
ENDBRANCH  11  30
BRANCH  13  32
HETATM   32  N6  UNL     1      -5.626 -35.745  40.662  1.00  0.00    -0.059 N
ATOM     33  H63 UNL     1      -6.574 -35.758  40.285  1.00  0.00     0.275 HD
ATOM     34  H62 UNL     1      -5.156 -36.134  39.845  1.00  0.00     0.275 HD
ATOM     35  H61 UNL     1      -5.520 -36.320  41.498  1.00  0.00     0.275 HD
ENDBRANCH  13  32
BRANCH  13  36
HETATM   36  C11 UNL     1      -5.773 -33.483  39.978  1.00  0.00     0.270 C
HETATM   37  N7  UNL     1      -5.564 -32.073  39.972  1.00  0.00    -0.060 NA
HETATM   38  O5  UNL     1      -6.515 -33.915  39.053  1.00  0.00    -0.274 OA
ENDBRANCH  13  36
BRANCH  12  39
HETATM   39  O4  UNL     1      -6.872 -33.386  42.188  1.00  0.00    -0.386 OA
ATOM     40  H4  UNL     1      -7.469 -33.980  41.749  1.00  0.00     0.210 HD
ENDBRANCH  12  39
TORSDOF 8
ENDMDL