MODEL 2
REMARK VINA RESULT: -7.519374903      3.309      5.929
REMARK  7 active torsions:
REMARK  status: ('A' for Active; 'I' for Inactive)
REMARK    1  A    between atoms: C4_7  and  N3_8
REMARK    2  A    between atoms: N3_8  and  S1_10
REMARK    3  A    between atoms: S1_10  and  N4_11
REMARK    4  A    between atoms: C6_20  and  C7_21
REMARK    5  A    between atoms: C8_25  and  C9_26
REMARK    6  A    between atoms: C9_26  and  O5_27
REMARK    7  A    between atoms: C9_26  and  C10_29
ROOT
HETATM    1  C1  UNL     1      -0.281 -33.341  41.988  1.00  0.00     0.018 C
HETATM    2  C2  UNL     1      -0.870 -34.721  42.251  1.00  0.00     0.046 C
HETATM    3  C3  UNL     1      -0.745 -35.167  43.631  1.00  0.00     0.082 C
HETATM    4  N1  UNL     1      -0.925 -34.408  44.778  1.00  0.00    -0.315 N
ATOM      5  H1  UNL     1      -0.703 -34.851  45.669  1.00  0.00     0.181 HD
HETATM    6  N2  UNL     1      -1.373 -33.120  44.817  1.00  0.00    -0.094 NA
HETATM    7  C4  UNL     1      -2.235 -32.899  45.912  1.00  0.00     0.313 C
HETATM    8  N5  UNL     1      -3.677 -33.029  45.501  1.00  0.00    -0.323 N
ATOM      9  H5  UNL     1      -4.360 -32.960  46.256  1.00  0.00     0.166 HD
HETATM   10  C5  UNL     1      -4.199 -33.230  44.238  1.00  0.00     0.249 C
HETATM   11  O3  UNL     1      -4.920 -32.349  43.637  1.00  0.00    -0.271 OA
HETATM   12  C6  UNL     1      -4.024 -34.486  43.391  1.00  0.00     0.232 C
HETATM   13  N6  UNL     1      -3.232 -34.183  42.321  1.00  0.00    -0.396 N
ATOM     14  H6  UNL     1      -3.385 -33.239  41.968  1.00  0.00     0.154 HD
HETATM   15  C8  UNL     1      -2.266 -34.877  41.609  1.00  0.00     0.124 C
ENDROOT
BRANCH   7  16
HETATM   16  N3  UNL     1      -2.017 -33.947  46.906  1.00  0.00    -0.265 N
ATOM     17  H3  UNL     1      -2.567 -34.806  46.933  1.00  0.00     0.177 HD
BRANCH  16  18
HETATM   18  S1  UNL     1      -0.758 -33.613  48.026  1.00  0.00     0.315 S
HETATM   19  O1  UNL     1      -0.416 -32.164  47.974  1.00  0.00    -0.183 OA
HETATM   20  O2  UNL     1       0.433 -34.430  47.682  1.00  0.00    -0.183 OA
BRANCH  18  21
HETATM   21  N4  UNL     1      -1.385 -34.040  49.613  1.00  0.00    -0.311 N
ATOM     22  H42 UNL     1      -2.296 -34.455  49.808  1.00  0.00     0.170 HD
ATOM     23  H41 UNL     1      -0.658 -33.791  50.284  1.00  0.00     0.170 HD
ENDBRANCH  18  21
ENDBRANCH  16  18
ENDBRANCH   7  16
BRANCH  12  24
HETATM   24  C7  UNL     1      -5.375 -34.976  43.130  1.00  0.00     0.265 C
HETATM   25  O4  UNL     1      -6.222 -34.960  44.100  1.00  0.00    -0.304 OA
ENDBRANCH  12  24
BRANCH  15  26
HETATM   26  C9  UNL     1      -2.503 -36.324  41.363  1.00  0.00     0.230 C
BRANCH  26  27
HETATM   27  O5  UNL     1      -2.524 -37.097  42.582  1.00  0.00    -0.384 OA
ATOM     28  H5  UNL     1      -1.658 -37.377  42.851  1.00  0.00     0.210 HD
ENDBRANCH  26  27
BRANCH  26  29
HETATM   29  C10 UNL     1      -3.915 -36.570  40.934  1.00  0.00     0.262 C
HETATM   30  N7  UNL     1      -4.623 -37.609  41.584  1.00  0.00    -0.060 NA
HETATM   31  O6  UNL     1      -4.485 -35.943  40.036  1.00  0.00    -0.274 OA
ENDBRANCH  26  29
ENDBRANCH  15  26
TORSDOF 7
ENDMDL