MODEL 4
REMARK VINA RESULT: -5.509288695      2.302      2.901
REMARK  3 active torsions:
REMARK  status: ('A' for Active; 'I' for Inactive)
REMARK    1  A    between atoms: N1_1  and  N2_4
REMARK    2  A    between atoms: N2_4  and  N3_6
REMARK    3  A    between atoms: N6_13  and  C2_14
ROOT
HETATM    1  N3  UNL     1      24.211  45.943  68.636  1.00  0.00    -0.122 N
HETATM    2  N4  UNL     1      25.478  46.343  68.226  1.00  0.00    -0.223 N
ATOM      3  H4  UNL     1      25.647  47.339  68.082  1.00  0.00     0.194 HD
HETATM    4  C1  UNL     1      26.553  45.435  67.993  1.00  0.00     0.355 A
HETATM    5  O1  UNL     1      27.675  45.910  67.620  1.00  0.00    -0.244 OA
HETATM    6  N5  UNL     1      26.344  44.060  68.182  1.00  0.00    -0.237 N
ATOM      7  H5  UNL     1      27.102  43.398  68.018  1.00  0.00     0.192 HD
HETATM    8  N6  UNL     1      25.075  43.600  68.601  1.00  0.00    -0.173 N
HETATM    9  C3  UNL     1      24.027  44.528  68.824  1.00  0.00     0.386 A
HETATM   10  O3  UNL     1      22.916  44.081  69.195  1.00  0.00    -0.241 OA
ENDROOT
BRANCH   1  11
HETATM   11  N2  UNL     1      23.136  46.738  68.880  1.00  0.00    -0.223 N
ATOM     12  H2  UNL     1      22.196  46.401  68.674  1.00  0.00     0.210 HD
BRANCH  11  13
HETATM   13  N1  UNL     1      23.311  47.960  69.389  1.00  0.00    -0.329 N
ATOM     14  H12 UNL     1      24.206  48.195  69.818  1.00  0.00     0.178 HD
ATOM     15  H11 UNL     1      22.554  48.644  69.345  1.00  0.00     0.178 HD
ENDBRANCH  11  13
ENDBRANCH   1  11
BRANCH   8  16
HETATM   16  C2  UNL     1      24.921  42.208  68.775  1.00  0.00     0.380 C
HETATM   17  O2  UNL     1      25.203  41.773  69.957  1.00  0.00    -0.281 OA
ENDBRANCH   8  16
TORSDOF 3
ENDMDL