MODEL 5
REMARK VINA RESULT: -5.593849765      2.076      4.967
REMARK  3 active torsions:
REMARK  status: ('A' for Active; 'I' for Inactive)
REMARK    1  A    between atoms: N1_1  and  N2_4
REMARK       I    between atoms: N2_4  and  C1_6
REMARK    2  A    between atoms: C1_6  and  C2_8
REMARK       I    between atoms: C2_8  and  N3_10
REMARK    3  A    between atoms: N3_10  and  N4_12
REMARK       I    between atoms: N4_12  and  C3_14
ROOT
HETATM    1  C2  UNL     1      23.977  46.844  68.408  1.00  0.00     0.329 C
HETATM    2  O2  UNL     1      25.227  47.040  68.295  1.00  0.00    -0.261 OA
HETATM    3  N3  UNL     1      23.433  45.639  68.872  1.00  0.00    -0.258 N
ATOM      4  H3  UNL     1      22.419  45.559  68.936  1.00  0.00     0.190 HD
ENDROOT
BRANCH   1   5
HETATM    5  C1  UNL     1      23.095  47.953  68.026  1.00  0.00     0.329 C
HETATM    6  N2  UNL     1      21.676  47.848  68.134  1.00  0.00    -0.268 N
ATOM      7  H2  UNL     1      21.236  46.995  68.480  1.00  0.00     0.190 HD
HETATM    8  O1  UNL     1      23.632  49.022  67.592  1.00  0.00    -0.261 OA
BRANCH   6   9
HETATM    9  N1  UNL     1      20.911  48.949  67.750  1.00  0.00    -0.342 N
ATOM     10  H12 UNL     1      20.342  48.908  66.904  1.00  0.00     0.176 HD
ATOM     11  H11 UNL     1      20.945  49.781  68.340  1.00  0.00     0.176 HD
ENDBRANCH   6   9
ENDBRANCH   1   5
BRANCH   3  12
HETATM   12  N4  UNL     1      24.207  44.541  69.251  1.00  0.00    -0.251 N
HETATM   13  C3  UNL     1      23.802  43.205  68.984  1.00  0.00     0.347 C
HETATM   14  N5  UNL     1      24.592  42.103  69.372  1.00  0.00    -0.038 NA
HETATM   15  O3  UNL     1      22.689  43.041  68.374  1.00  0.00    -0.249 OA
ATOM     16  H4  UNL     1      25.090  44.703  69.735  1.00  0.00     0.191 HD
ENDBRANCH   3  12
TORSDOF 3
ENDMDL