MODEL 5
REMARK VINA RESULT: -5.971273910      1.792      2.323
REMARK  2 active torsions:
REMARK  status: ('A' for Active; 'I' for Inactive)
REMARK       I    between atoms: N1_2  and  C2_4
REMARK       I    between atoms: C2_4  and  N2_6
REMARK    1  A    between atoms: N2_6  and  C3_8
REMARK    2  A    between atoms: N5_15  and  N6_16
ROOT
HETATM    1  C3  UNL     1      24.614  44.169  68.142  1.00  0.00     0.726 A
HETATM    2  N3  UNL     1      24.817  43.366  67.082  1.00  0.00    -0.126 N
ATOM      3  H3  UNL     1      25.509  43.525  66.349  1.00  0.00     0.206 HD
HETATM    4  N4  UNL     1      23.972  42.325  67.135  1.00  0.00    -0.235 N
ATOM      5  H4  UNL     1      23.894  41.556  66.469  1.00  0.00     0.192 HD
HETATM    6  C4  UNL     1      23.252  42.514  68.250  1.00  0.00     0.375 A
HETATM    7  O2  UNL     1      22.340  41.732  68.646  1.00  0.00    -0.243 OA
HETATM    8  N5  UNL     1      23.615  43.625  68.886  1.00  0.00    -0.035 N
ENDROOT
BRANCH   1   9
HETATM    9  N2  UNL     1      25.194  45.261  68.484  1.00  0.00    -0.138 N
HETATM   10  C2  UNL     1      24.791  46.547  68.103  1.00  0.00     0.334 C
HETATM   11  N1  UNL     1      23.828  47.274  68.857  1.00  0.00    -0.347 N
HETATM   12  O1  UNL     1      25.287  47.075  67.076  1.00  0.00    -0.247 OA
HETATM   13  C1  UNL     1      23.410  48.593  68.474  1.00  0.00     0.151 C
ATOM     14  H1  UNL     1      23.425  46.847  69.691  1.00  0.00     0.163 HD
ATOM     15  H2  UNL     1      26.017  45.187  69.082  1.00  0.00     0.189 HD
ENDBRANCH   1   9
BRANCH   8  16
HETATM   16  N6  UNL     1      23.089  44.142  70.078  1.00  0.00    -0.320 N
ATOM     17  H62 UNL     1      23.283  43.835  71.031  1.00  0.00     0.178 HD
ATOM     18  H61 UNL     1      22.428  44.914  70.163  1.00  0.00     0.178 HD
ENDBRANCH   8  16
TORSDOF 2
ENDMDL