MODEL 4
REMARK VINA RESULT: -6.362108406      1.906      2.986
REMARK  3 active torsions:
REMARK  status: ('A' for Active; 'I' for Inactive)
REMARK       I    between atoms: C1_4  and  N2_5
REMARK       I    between atoms: C1_4  and  N6_14
REMARK    1  A    between atoms: N2_5  and  N3_7
REMARK    2  A    between atoms: N4_9  and  N5_11
REMARK       I    between atoms: N6_14  and  C2_16
REMARK    3  A    between atoms: C2_16  and  C3_18
ROOT
HETATM    1  N1  UNL     1      25.043  50.168  69.058  1.00  0.00    -0.233 N
ATOM      2  H11 UNL     1      25.021  51.136  68.737  1.00  0.00     0.174 HD
ATOM      3  H12 UNL     1      25.825  49.849  69.628  1.00  0.00     0.174 HD
HETATM    4  C1  UNL     1      24.108  49.315  68.774  1.00  0.00     0.694 C
HETATM    5  N2  UNL     1      24.138  47.976  69.218  1.00  0.00    -0.117 N
ATOM      6  H2  UNL     1      23.593  47.696  70.034  1.00  0.00     0.207 HD
HETATM    7  N6  UNL     1      23.026  49.756  67.986  1.00  0.00    -0.151 N
ATOM      8  H6  UNL     1      22.997  50.723  67.659  1.00  0.00     0.188 HD
HETATM    9  C2  UNL     1      21.975  48.865  67.645  1.00  0.00     0.324 C
HETATM   10  O1  UNL     1      21.995  47.651  68.044  1.00  0.00    -0.262 OA
ENDROOT
BRANCH   5  11
HETATM   11  N3  UNL     1      24.908  47.042  68.547  1.00  0.00    -0.214 N
HETATM   12  N4  UNL     1      24.655  45.822  68.431  1.00  0.00    -0.234 N
ATOM     13  H4  UNL     1      25.289  45.213  67.913  1.00  0.00     0.209 HD
ATOM     14  H3  UNL     1      25.762  47.380  68.103  1.00  0.00     0.210 HD
BRANCH  12  15
HETATM   15  N5  UNL     1      23.507  45.302  69.014  1.00  0.00    -0.330 N
ATOM     16  H52 UNL     1      23.181  45.686  69.900  1.00  0.00     0.178 HD
ATOM     17  H51 UNL     1      23.005  44.544  68.550  1.00  0.00     0.178 HD
ENDBRANCH  12  15
ENDBRANCH   5  11
BRANCH   9  18
HETATM   18  C3  UNL     1      20.863  49.323  66.835  1.00  0.00     0.323 C
HETATM   19  N7  UNL     1      21.039  49.533  65.449  1.00  0.00    -0.053 NA
HETATM   20  O2  UNL     1      19.745  49.532  67.359  1.00  0.00    -0.266 OA
ENDBRANCH   9  18
TORSDOF 3
ENDMDL