MODEL 5
REMARK VINA RESULT: -5.401005795      5.140      5.880
REMARK  5 active torsions:
REMARK  status: ('A' for Active; 'I' for Inactive)
REMARK    1  A    between atoms: N1_1  and  N2_4
REMARK       I    between atoms: N2_4  and  C1_6
REMARK    2  A    between atoms: N4_8  and  N5_10
REMARK    3  A    between atoms: N5_10  and  C2_12
REMARK    4  A    between atoms: C2_12  and  S1_14
REMARK    5  A    between atoms: S1_14  and  O1_15
ROOT
HETATM    1  N2  UNL     1      23.162  47.422  69.035  1.00  0.00    -0.279 N
ATOM      2  H2  UNL     1      22.174  47.176  68.975  1.00  0.00     0.189 HD
HETATM    3  C1  UNL     1      24.102  46.692  68.281  1.00  0.00     0.221 C
HETATM    4  N3  UNL     1      24.874  47.424  67.316  1.00  0.00    -0.061 NA
HETATM    5  N4  UNL     1      24.312  45.432  68.398  1.00  0.00    -0.271 N
ATOM      6  H4  UNL     1      25.011  44.967  67.819  1.00  0.00     0.189 HD
ENDROOT
BRANCH   5   7
HETATM    7  N5  UNL     1      23.566  44.703  69.337  1.00  0.00    -0.278 N
ATOM      8  H5  UNL     1      22.982  45.228  69.988  1.00  0.00     0.189 HD
BRANCH   7   9
HETATM    9  C2  UNL     1      23.565  43.319  69.445  1.00  0.00     0.195 C
HETATM   10  N6  UNL     1      22.648  42.487  68.832  1.00  0.00    -0.071 NA
BRANCH   9  11
HETATM   11  S1  UNL     1      24.719  42.644  70.406  1.00  0.00     0.061 SA
BRANCH  11  12
HETATM   12  O1  UNL     1      25.220  41.326  69.697  1.00  0.00    -0.323 OA
ATOM     13  H1  UNL     1      26.088  41.132  70.030  1.00  0.00     0.228 HD
ENDBRANCH  11  12
ENDBRANCH   9  11
ENDBRANCH   7   9
ENDBRANCH   5   7
BRANCH   1  14
HETATM   14  N1  UNL     1      23.554  48.471  69.859  1.00  0.00    -0.343 N
ATOM     15  H12 UNL     1      24.113  49.222  69.455  1.00  0.00     0.176 HD
ATOM     16  H11 UNL     1      23.293  48.497  70.845  1.00  0.00     0.176 HD
ENDBRANCH   1  14
TORSDOF 5
ENDMDL