MODEL 3
REMARK VINA RESULT: -5.525213017      1.935      4.451
REMARK  1 active torsions:
REMARK  status: ('A' for Active; 'I' for Inactive)
REMARK    1  A    between atoms: N1_1  and  C1_4
ROOT
HETATM    1  C1  UNL     1      25.596  42.909  68.426  1.00  0.00     0.679 A
HETATM    2  N2  UNL     1      24.487  42.942  69.191  1.00  0.00    -0.156 N
ATOM      3  H2  UNL     1      24.216  42.091  69.682  1.00  0.00     0.187 HD
HETATM    4  C2  UNL     1      23.720  44.031  69.343  1.00  0.00     0.274 A
HETATM    5  O1  UNL     1      22.684  44.050  70.063  1.00  0.00    -0.267 OA
HETATM    6  C3  UNL     1      24.065  45.199  68.690  1.00  0.00     0.088 A
HETATM    7  C4  UNL     1      25.204  45.186  67.897  1.00  0.00     0.093 A
HETATM    8  N3  UNL     1      25.921  44.053  67.794  1.00  0.00    -0.189 N
ATOM      9  H3  UNL     1      26.755  44.060  67.206  1.00  0.00     0.184 HD
HETATM   10  C5  UNL     1      25.048  46.462  67.556  1.00  0.00     0.100 A
HETATM   11  N4  UNL     1      25.746  47.392  66.739  1.00  0.00    -0.098 NA
HETATM   12  C6  UNL     1      23.849  46.473  68.393  1.00  0.00     0.090 A
HETATM   13  N5  UNL     1      22.852  47.426  68.754  1.00  0.00    -0.099 NA
ENDROOT
BRANCH   1  14
HETATM   14  N1  UNL     1      26.313  41.834  68.302  1.00  0.00    -0.234 N
ATOM     15  H12 UNL     1      25.931  40.979  67.898  1.00  0.00     0.174 HD
ATOM     16  H11 UNL     1      27.286  41.798  68.604  1.00  0.00     0.174 HD
ENDBRANCH   1  14
TORSDOF 1
ENDMDL