MODEL 4
REMARK VINA RESULT: -5.589994860      1.492      1.492
REMARK  2 active torsions:
REMARK  status: ('A' for Active; 'I' for Inactive)
REMARK       I    between atoms: N1_2  and  C2_4
REMARK       I    between atoms: C2_4  and  N2_6
REMARK    1  A    between atoms: N2_6  and  N3_8
REMARK       I    between atoms: N3_8  and  C3_10
REMARK    2  A    between atoms: C3_10  and  C4_12
ROOT
HETATM    1  C1  UNL     1      23.453  48.866  67.686  1.00  0.00     0.151 C
HETATM    2  N1  UNL     1      24.551  47.933  67.729  1.00  0.00    -0.346 N
ATOM      3  H1  UNL     1      25.461  48.210  67.361  1.00  0.00     0.163 HD
HETATM    4  C2  UNL     1      24.382  46.634  68.276  1.00  0.00     0.334 C
HETATM    5  O1  UNL     1      23.238  46.306  68.728  1.00  0.00    -0.246 OA
HETATM    6  N2  UNL     1      25.464  45.713  68.320  1.00  0.00    -0.249 N
ATOM      7  H2  UNL     1      26.371  45.999  67.951  1.00  0.00     0.192 HD
ENDROOT
BRANCH   6   8
HETATM    8  N3  UNL     1      25.327  44.429  68.853  1.00  0.00    -0.258 N
HETATM    9  C3  UNL     1      24.984  43.298  68.073  1.00  0.00     0.325 C
HETATM   10  O2  UNL     1      24.787  43.428  66.837  1.00  0.00    -0.261 OA
ATOM     11  H3  UNL     1      25.482  44.300  69.853  1.00  0.00     0.190 HD
BRANCH   9  12
HETATM   12  C4  UNL     1      24.849  41.974  68.654  1.00  0.00     0.324 C
HETATM   13  N4  UNL     1      25.154  41.678  70.004  1.00  0.00    -0.053 NA
HETATM   14  O3  UNL     1      24.440  41.044  67.921  1.00  0.00    -0.266 OA
ENDBRANCH   9  12
ENDBRANCH   6   8
TORSDOF 2
ENDMDL