MODEL 4
REMARK VINA RESULT: -6.167377606      0.786      2.903
REMARK  0 active torsions:
REMARK  status: ('A' for Active; 'I' for Inactive)
ROOT
HETATM    1  N1  UNL     1      26.242  46.532  68.857  1.00  0.00    -0.232 N
ATOM      2  H11 UNL     1      25.652  47.098  69.467  1.00  0.00     0.174 HD
ATOM      3  H12 UNL     1      27.224  46.624  68.595  1.00  0.00     0.174 HD
HETATM    4  C1  UNL     1      25.664  45.516  68.305  1.00  0.00     0.705 C
HETATM    5  N2  UNL     1      26.485  44.728  67.456  1.00  0.00    -0.128 N
ATOM      6  H2  UNL     1      27.299  45.250  67.128  1.00  0.00     0.205 HD
HETATM    7  N3  UNL     1      26.472  43.414  66.949  1.00  0.00    -0.248 N
ATOM      8  H3  UNL     1      27.217  43.263  66.268  1.00  0.00     0.191 HD
HETATM    9  C2  UNL     1      25.687  42.245  67.140  1.00  0.00     0.316 C
HETATM   10  O1  UNL     1      26.206  41.179  66.719  1.00  0.00    -0.262 OA
HETATM   11  C3  UNL     1      24.371  42.066  67.749  1.00  0.00     0.309 C
HETATM   12  O2  UNL     1      23.992  40.851  67.681  1.00  0.00    -0.276 OA
HETATM   13  C4  UNL     1      23.392  42.931  68.409  1.00  0.00     0.316 C
HETATM   14  O3  UNL     1      22.350  42.358  68.775  1.00  0.00    -0.262 OA
HETATM   15  N4  UNL     1      23.374  44.303  68.725  1.00  0.00    -0.248 N
ATOM     16  H4  UNL     1      22.466  44.592  69.089  1.00  0.00     0.191 HD
HETATM   17  N5  UNL     1      24.281  45.388  68.673  1.00  0.00    -0.128 N
ATOM     18  H5  UNL     1      23.861  46.272  68.959  1.00  0.00     0.205 HD
ENDROOT
TORSDOF 0
ENDMDL