MODEL 4
REMARK VINA RESULT: -6.205487816      1.345      1.686
REMARK  2 active torsions:
REMARK  status: ('A' for Active; 'I' for Inactive)
REMARK    1  A    between atoms: C2_5  and  N3_6
REMARK    2  A    between atoms: N3_6  and  N4_8
ROOT
HETATM    1  C1  UNL     1      24.874  48.855  66.910  1.00  0.00     0.183 C
HETATM    2  N1  UNL     1      23.453  48.833  67.203  1.00  0.00    -0.232 N
HETATM    3  N2  UNL     1      22.519  49.693  66.790  1.00  0.00    -0.125 N
ATOM      4  H2  UNL     1      22.690  50.504  66.196  1.00  0.00     0.206 HD
HETATM    5  C2  UNL     1      21.323  49.331  67.273  1.00  0.00     0.715 A
HETATM    6  N7  UNL     1      21.513  48.223  68.002  1.00  0.00    -0.137 N
ATOM      7  H7  UNL     1      20.790  47.704  68.501  1.00  0.00     0.189 HD
HETATM    8  C4  UNL     1      22.829  47.912  67.960  1.00  0.00     0.355 A
HETATM    9  O1  UNL     1      23.412  46.938  68.520  1.00  0.00    -0.244 OA
ENDROOT
BRANCH   5  10
HETATM   10  N3  UNL     1      20.193  49.911  67.093  1.00  0.00    -0.128 N
ATOM     11  H3  UNL     1      20.070  50.517  66.282  1.00  0.00     0.205 HD
BRANCH  10  12
HETATM   12  N4  UNL     1      19.128  49.735  67.978  1.00  0.00    -0.262 N
HETATM   13  C3  UNL     1      17.934  49.458  67.572  1.00  0.00     0.216 C
HETATM   14  N5  UNL     1      17.722  49.335  66.180  1.00  0.00    -0.065 NA
HETATM   15  N6  UNL     1      16.850  49.278  68.475  1.00  0.00    -0.065 NA
ATOM     16  H4  UNL     1      19.299  49.827  68.980  1.00  0.00     0.190 HD
ENDBRANCH  10  12
ENDBRANCH   5  10
TORSDOF 2
ENDMDL