MODEL 4
REMARK VINA RESULT: -6.066203367      5.167      7.024
REMARK  3 active torsions:
REMARK  status: ('A' for Active; 'I' for Inactive)
REMARK    1  A    between atoms: N1_1  and  N2_4
REMARK       I    between atoms: C1_6  and  N4_8
REMARK    2  A    between atoms: N4_8  and  N5_10
REMARK       I    between atoms: N5_10  and  C2_12
REMARK    3  A    between atoms: C2_12  and  C3_14
ROOT
HETATM    1  N2  UNL     1      23.298  48.027  69.379  1.00  0.00    -0.279 N
ATOM      2  H2  UNL     1      22.690  47.826  70.174  1.00  0.00     0.189 HD
HETATM    3  C1  UNL     1      23.674  47.075  68.598  1.00  0.00     0.221 C
HETATM    4  N3  UNL     1      24.520  47.401  67.505  1.00  0.00    -0.061 NA
HETATM    5  N4  UNL     1      23.249  45.726  68.827  1.00  0.00    -0.269 N
ATOM      6  H4  UNL     1      22.267  45.466  68.738  1.00  0.00     0.190 HD
ENDROOT
BRANCH   5   7
HETATM    7  N5  UNL     1      24.205  44.781  69.171  1.00  0.00    -0.260 N
HETATM    8  C2  UNL     1      24.046  43.404  68.924  1.00  0.00     0.325 C
HETATM    9  O1  UNL     1      23.013  42.956  68.373  1.00  0.00    -0.261 OA
ATOM     10  H5  UNL     1      25.062  45.099  69.624  1.00  0.00     0.190 HD
BRANCH   8  11
HETATM   11  C3  UNL     1      25.067  42.437  69.298  1.00  0.00     0.324 C
HETATM   12  N6  UNL     1      24.921  41.520  70.358  1.00  0.00    -0.053 NA
HETATM   13  O2  UNL     1      26.143  42.428  68.624  1.00  0.00    -0.266 OA
ENDBRANCH   8  11
ENDBRANCH   5   7
BRANCH   1  14
HETATM   14  N1  UNL     1      23.721  49.328  69.138  1.00  0.00    -0.343 N
ATOM     15  H12 UNL     1      23.676  50.012  69.893  1.00  0.00     0.176 HD
ATOM     16  H11 UNL     1      24.070  49.586  68.215  1.00  0.00     0.176 HD
ENDBRANCH   1  14
TORSDOF 3
ENDMDL