MODEL 1
REMARK VINA RESULT: -8.542798577      0.000      0.000
REMARK  6 active torsions:
REMARK  status: ('A' for Active; 'I' for Inactive)
REMARK    1  A    between atoms: N1_2  and  S1_4
REMARK    2  A    between atoms: S1_4  and  C3_7
REMARK    3  A    between atoms: C7_11  and  N2_12
REMARK       I    between atoms: N2_12  and  C8_14
REMARK    4  A    between atoms: C8_14  and  C9_16
REMARK    5  A    between atoms: C10_17  and  S2_18
REMARK    6  A    between atoms: S2_18  and  C11_21
ROOT
HETATM    1  N2  UNL     1      -3.698   9.893  20.193  1.00  0.00    -0.324 N
ATOM      2  H2  UNL     1      -2.680   9.946  20.214  1.00  0.00     0.169 HD
HETATM    3  C8  UNL     1      -4.405  10.389  21.298  1.00  0.00     0.246 C
HETATM    4  O3  UNL     1      -5.656  10.356  21.317  1.00  0.00    -0.268 OA
ENDROOT
BRANCH   1   5
HETATM    5  C7  UNL     1      -4.309   9.323  19.051  1.00  0.00     0.036 A
HETATM    6  C6  UNL     1      -4.524   7.944  19.019  1.00  0.00     0.029 A
HETATM    7  C5  UNL     1      -5.132   7.370  17.956  1.00  0.00     0.004 A
HETATM    8  C4  UNL     1      -5.547   8.138  16.892  1.00  0.00     0.025 A
HETATM    9  C3  UNL     1      -5.346   9.491  16.904  1.00  0.00     0.076 A
HETATM   10  C17 UNL     1      -4.722  10.067  18.000  1.00  0.00     0.054 A
BRANCH   9  11
HETATM   11  S1  UNL     1      -5.878  10.478  15.537  1.00  0.00     0.243 S
HETATM   12  O1  UNL     1      -6.307  11.804  16.053  1.00  0.00    -0.206 OA
HETATM   13  O2  UNL     1      -7.009   9.753  14.841  1.00  0.00    -0.206 OA
BRANCH  11  14
HETATM   14  N1  UNL     1      -4.568  10.556  14.440  1.00  0.00    -0.215 NA
HETATM   15  C1  UNL     1      -3.487  11.387  14.917  1.00  0.00     0.129 C
HETATM   16  C2  UNL     1      -4.972  10.886  13.095  1.00  0.00     0.129 C
ENDBRANCH  11  14
ENDBRANCH   9  11
ENDBRANCH   1   5
BRANCH   3  17
HETATM   17  C9  UNL     1      -3.733  10.952  22.446  1.00  0.00     0.086 C
HETATM   18  C10 UNL     1      -2.472  11.279  22.416  1.00  0.00     0.120 C
BRANCH  18  19
HETATM   19  S2  UNL     1      -1.652  11.967  23.820  1.00  0.00     0.197 S
HETATM   20  O4  UNL     1      -0.251  12.363  23.503  1.00  0.00    -0.218 OA
HETATM   21  O5  UNL     1      -2.407  13.173  24.327  1.00  0.00    -0.218 OA
BRANCH  19  22
HETATM   22  C11 UNL     1      -1.599  10.712  25.035  1.00  0.00     0.063 A
HETATM   23  C12 UNL     1      -0.580   9.792  24.973  1.00  0.00     0.025 A
HETATM   24  C13 UNL     1      -0.501   8.782  25.915  1.00  0.00     0.020 A
HETATM   25  C14 UNL     1      -1.451   8.705  26.918  1.00  0.00     0.011 A
HETATM   26 BR1  UNL     1      -1.323   7.305  28.209  1.00  0.00    -0.051 Br
HETATM   27  C15 UNL     1      -2.468   9.626  26.978  1.00  0.00     0.020 A
HETATM   28  C16 UNL     1      -2.538  10.627  26.035  1.00  0.00     0.025 A
ENDBRANCH  19  22
ENDBRANCH  18  19
ENDBRANCH   3  17
TORSDOF 6
ENDMDL