MODEL 4
REMARK VINA RESULT: -7.522490250      3.724      8.688
REMARK  6 active torsions:
REMARK  status: ('A' for Active; 'I' for Inactive)
REMARK    1  A    between atoms: C1_2  and  C2_4
REMARK    2  A    between atoms: C2_4  and  N1_5
REMARK       I    between atoms: N1_5  and  C3_6
REMARK    3  A    between atoms: N1_5  and  C13_23
REMARK    4  A    between atoms: C3_6  and  C4_8
REMARK    5  A    between atoms: C4_8  and  N2_9
REMARK    6  A    between atoms: N3_12  and  C7_13
ROOT
HETATM    1  N2  UNL     1      -4.743  12.355  22.076  1.00  0.00    -0.242 N
HETATM    2  C5  UNL     1      -6.073  12.117  22.403  1.00  0.00     0.104 C
HETATM    3  C6  UNL     1      -6.786  13.352  22.780  1.00  0.00     0.189 C
HETATM    4  N3  UNL     1      -5.883  14.359  23.251  1.00  0.00    -0.254 N
HETATM    5  S1  UNL     1      -4.306  13.831  22.695  1.00  0.00     0.331 S
HETATM    6  O4  UNL     1      -3.432  13.726  23.895  1.00  0.00    -0.181 OA
HETATM    7  O5  UNL     1      -3.739  14.823  21.757  1.00  0.00    -0.181 OA
ENDROOT
BRANCH   1   8
HETATM    8  C4  UNL     1      -4.086  11.740  21.032  1.00  0.00     0.184 C
BRANCH   8   9
HETATM    9  C3  UNL     1      -4.451  10.375  20.685  1.00  0.00     0.265 C
HETATM   10  N1  UNL     1      -5.127  10.039  19.465  1.00  0.00    -0.303 N
HETATM   11  O3  UNL     1      -4.173   9.449  21.467  1.00  0.00    -0.266 OA
BRANCH  10  12
HETATM   12  C2  UNL     1      -5.466  11.008  18.475  1.00  0.00     0.245 C
BRANCH  12  13
HETATM   13  C1  UNL     1      -4.512  11.091  17.343  1.00  0.00     0.192 C
HETATM   14  O1  UNL     1      -3.476  11.801  17.384  1.00  0.00    -0.647 OA
HETATM   15  O2  UNL     1      -4.708  10.382  16.159  1.00  0.00    -0.647 OA
ENDBRANCH  12  13
ENDBRANCH  10  12
BRANCH  10  16
HETATM   16  C13 UNL     1      -5.455   8.668  19.179  1.00  0.00     0.038 A
HETATM   17  C14 UNL     1      -6.751   8.208  19.457  1.00  0.00     0.030 A
HETATM   18  C15 UNL     1      -7.083   6.921  19.197  1.00  0.00     0.002 A
HETATM   19  C16 UNL     1      -6.207   5.998  18.662  1.00  0.00     0.000 A
HETATM   20  C17 UNL     1      -4.940   6.456  18.396  1.00  0.00     0.002 A
HETATM   21  C18 UNL     1      -4.576   7.773  18.652  1.00  0.00     0.030 A
ENDBRANCH  10  16
ENDBRANCH   8   9
ENDBRANCH   1   8
BRANCH   4  22
HETATM   22  C7  UNL     1      -6.113  15.531  23.991  1.00  0.00     0.046 A
HETATM   23  C8  UNL     1      -6.279  15.513  25.358  1.00  0.00     0.031 A
HETATM   24  C9  UNL     1      -6.504  16.654  26.086  1.00  0.00     0.021 A
HETATM   25  C10 UNL     1      -6.570  17.869  25.457  1.00  0.00     0.011 A
HETATM   26 BR1  UNL     1      -6.886  19.473  26.476  1.00  0.00    -0.051 Br
HETATM   27  C11 UNL     1      -6.407  17.918  24.093  1.00  0.00     0.021 A
HETATM   28  C12 UNL     1      -6.183  16.768  23.378  1.00  0.00     0.031 A
ENDBRANCH   4  22
TORSDOF 6
ENDMDL