MODEL 5
REMARK VINA RESULT: -7.828238096      1.139      1.531
REMARK  5 active torsions:
REMARK  status: ('A' for Active; 'I' for Inactive)
REMARK    1  A    between atoms: N1_2  and  S1_4
REMARK    2  A    between atoms: S1_4  and  C3_7
REMARK    3  A    between atoms: C3_7  and  C4_8
REMARK       I    between atoms: C4_8  and  N2_10
REMARK    4  A    between atoms: N2_10  and  C5_12
REMARK    5  A    between atoms: C12_19  and  C13_20
REMARK       I    between atoms: C13_20  and  N3_22
ROOT
HETATM    1  C5  UNL     1      -4.975  11.098  20.670  1.00  0.00     0.092 C
HETATM    2  C6  UNL     1      -4.536   9.728  20.247  1.00  0.00     0.010 C
HETATM    3  C7  UNL     1      -5.407   8.704  20.901  1.00  0.00     0.011 C
HETATM    4  C8  UNL     1      -6.832   8.920  20.441  1.00  0.00    -0.013 C
HETATM    5  C9  UNL     1      -7.355  10.284  20.745  1.00  0.00     0.011 C
HETATM    6  C10 UNL     1      -6.403  11.305  20.212  1.00  0.00     0.010 C
HETATM    7  C11 UNL     1      -6.382  11.145  18.685  1.00  0.00     0.026 C
HETATM    8  C12 UNL     1      -6.047   9.750  18.274  1.00  0.00     0.042 C
HETATM    9  C18 UNL     1      -6.851   8.677  18.956  1.00  0.00     0.024 C
HETATM   10  C19 UNL     1      -4.600   9.524  18.759  1.00  0.00     0.026 C
ENDROOT
BRANCH   1  11
HETATM   11  N2  UNL     1      -4.885  11.183  22.105  1.00  0.00    -0.352 N
HETATM   12  C4  UNL     1      -4.029  12.096  22.759  1.00  0.00     0.269 C
HETATM   13  O2  UNL     1      -3.333  12.847  22.008  1.00  0.00    -0.269 OA
ATOM     14  H2  UNL     1      -5.462  10.561  22.670  1.00  0.00     0.163 HD
BRANCH  12  15
HETATM   15  C3  UNL     1      -3.952  12.167  24.254  1.00  0.00     0.249 C
HETATM   16  C20 UNL     1      -3.592  13.595  24.606  1.00  0.00     0.068 C
HETATM   17  C21 UNL     1      -4.809  14.197  25.229  1.00  0.00     0.031 C
HETATM   18  C22 UNL     1      -5.873  13.300  24.584  1.00  0.00     0.170 C
HETATM   19  O4  UNL     1      -5.296  12.077  24.697  1.00  0.00    -0.356 OA
BRANCH  15  20
HETATM   20  S1  UNL     1      -2.809  10.787  24.843  1.00  0.00     0.206 S
HETATM   21  O1  UNL     1      -2.999  10.947  26.410  1.00  0.00    -0.219 OA
HETATM   22  F1  UNL     1      -2.485  10.192  23.218  1.00  0.00    -0.127 F
BRANCH  20  23
HETATM   23  N1  UNL     1      -0.979  11.097  24.953  1.00  0.00    -0.224 NA
HETATM   24  C1  UNL     1      -0.478  11.617  23.732  1.00  0.00     0.128 C
HETATM   25  C2  UNL     1      -0.312   9.962  25.479  1.00  0.00     0.128 C
ENDBRANCH  20  23
ENDBRANCH  15  20
ENDBRANCH  12  15
ENDBRANCH   1  11
BRANCH   8  26
HETATM   26  C13 UNL     1      -6.091   9.668  16.799  1.00  0.00     0.228 C
HETATM   27  O3  UNL     1      -4.951   9.553  16.220  1.00  0.00    -0.273 OA
HETATM   28  N3  UNL     1      -7.257   9.704  16.009  1.00  0.00    -0.351 N
HETATM   29  C14 UNL     1      -8.658   9.821  16.317  1.00  0.00     0.126 C
HETATM   30  C17 UNL     1      -7.221   9.617  14.545  1.00  0.00     0.126 C
HETATM   31  C15 UNL     1      -9.247   8.744  15.392  1.00  0.00     0.021 C
HETATM   32  C16 UNL     1      -8.526   9.049  14.106  1.00  0.00     0.021 C
ENDBRANCH   8  26
TORSDOF 5
ENDMDL