MODEL 2
REMARK VINA RESULT: -8.161013961      1.393      1.560
REMARK  7 active torsions:
REMARK  status: ('A' for Active; 'I' for Inactive)
REMARK       I    between atoms: C2_2  and  N1_4
REMARK       I    between atoms: N1_4  and  C3_6
REMARK    1  A    between atoms: C3_6  and  C4_8
REMARK    2  A    between atoms: C4_8  and  N2_9
REMARK    3  A    between atoms: N2_9  and  C5_10
REMARK    4  A    between atoms: N2_9  and  S1_16
REMARK    5  A    between atoms: S1_16  and  C11_19
REMARK    6  A    between atoms: C14_22  and  O5_23
REMARK    7  A    between atoms: O5_23  and  C15_24
ROOT
HETATM    1  N2  UNL     1      -6.105  10.159  19.414  1.00  0.00    -0.263 N
ENDROOT
BRANCH   1   2
HETATM    2  C4  UNL     1      -7.370  10.625  19.859  1.00  0.00     0.245 C
BRANCH   2   3
HETATM    3  C3  UNL     1      -7.464  11.098  21.238  1.00  0.00     0.243 C
HETATM    4  N1  UNL     1      -6.940  12.383  21.610  1.00  0.00    -0.297 N
HETATM    5  C2  UNL     1      -7.034  12.837  22.949  1.00  0.00     0.220 C
ATOM      6  H1  UNL     1      -6.497  12.973  20.906  1.00  0.00     0.171 HD
HETATM    7  C1  UNL     1      -6.496  14.159  23.338  1.00  0.00     0.117 C
HETATM    8  O1  UNL     1      -7.570  12.148  23.853  1.00  0.00    -0.274 OA
HETATM    9  O2  UNL     1      -8.008  10.388  22.129  1.00  0.00    -0.271 OA
ENDBRANCH   2   3
ENDBRANCH   1   2
BRANCH   1  10
HETATM   10  C5  UNL     1      -5.915   8.773  19.135  1.00  0.00     0.045 A
HETATM   11  C6  UNL     1      -4.694   8.258  18.860  1.00  0.00     0.030 A
HETATM   12  C7  UNL     1      -4.634   6.882  18.593  1.00  0.00     0.002 A
HETATM   13  C8  UNL     1      -5.747   6.086  18.606  1.00  0.00     0.000 A
HETATM   14  C9  UNL     1      -6.969   6.671  18.894  1.00  0.00     0.002 A
HETATM   15  C10 UNL     1      -7.080   8.011  19.162  1.00  0.00     0.030 A
ENDBRANCH   1  10
BRANCH   1  16
HETATM   16  S1  UNL     1      -4.746  11.200  19.140  1.00  0.00     0.265 S
HETATM   17  O3  UNL     1      -5.224  12.635  18.969  1.00  0.00    -0.200 OA
HETATM   18  O4  UNL     1      -4.062  10.860  17.839  1.00  0.00    -0.200 OA
BRANCH  16  19
HETATM   19  C11 UNL     1      -3.601  11.142  20.437  1.00  0.00     0.081 A
HETATM   20  C12 UNL     1      -3.943  10.518  21.629  1.00  0.00     0.028 A
HETATM   21  C13 UNL     1      -3.047  10.466  22.676  1.00  0.00     0.040 A
HETATM   22  C14 UNL     1      -1.787  11.021  22.599  1.00  0.00     0.096 A
HETATM   23  C17 UNL     1      -1.449  11.641  21.416  1.00  0.00     0.046 A
HETATM   24 BR1  UNL     1       0.278  12.434  21.230  1.00  0.00    -0.048 Br
HETATM   25  C18 UNL     1      -2.324  11.707  20.353  1.00  0.00     0.047 A
BRANCH  22  26
HETATM   26  O5  UNL     1      -0.868  10.982  23.640  1.00  0.00    -0.278 OA
BRANCH  26  27
HETATM   27  C15 UNL     1      -1.175  10.611  24.930  1.00  0.00     0.260 C
HETATM   28  C16 UNL     1      -0.727   9.336  25.551  1.00  0.00     0.126 C
HETATM   29  O6  UNL     1      -1.875  11.398  25.619  1.00  0.00    -0.265 OA
ENDBRANCH  26  27
ENDBRANCH  22  26
ENDBRANCH  16  19
ENDBRANCH   1  16
TORSDOF 7
ENDMDL