MODEL 3
REMARK VINA RESULT: -8.539232405      3.448      4.823
REMARK  7 active torsions:
REMARK  status: ('A' for Active; 'I' for Inactive)
REMARK    1  A    between atoms: C2_2  and  C3_4
REMARK    2  A    between atoms: C3_4  and  C4_6
REMARK    3  A    between atoms: C12_14  and  C13_15
REMARK    4  A    between atoms: C13_15  and  N1_16
REMARK       I    between atoms: N1_16  and  C14_18
REMARK    5  A    between atoms: C14_18  and  C15_20
REMARK    6  A    between atoms: C15_20  and  N2_21
REMARK    7  A    between atoms: N3_25  and  S1_26
ROOT
HETATM    1  C13 UNL     1      -4.268  10.308  19.289  1.00  0.00     0.133 C
ENDROOT
BRANCH   1   2
HETATM    2  C12 UNL     1      -5.055   9.142  18.839  1.00  0.00    -0.013 C
HETATM    3  C4  UNL     1      -6.537   9.325  19.157  1.00  0.00     0.071 C
HETATM    4  C5  UNL     1      -7.327   8.238  18.489  1.00  0.00    -0.002 C
HETATM    5  C6  UNL     1      -6.864   6.892  19.018  1.00  0.00     0.010 C
HETATM    6  C10 UNL     1      -7.217   8.309  17.007  1.00  0.00     0.010 C
HETATM    7  C7  UNL     1      -5.434   6.691  18.663  1.00  0.00    -0.013 C
HETATM    8  C8  UNL     1      -5.274   6.746  17.174  1.00  0.00     0.009 C
HETATM    9  C22 UNL     1      -4.557   7.823  19.235  1.00  0.00     0.016 C
HETATM   10  C9  UNL     1      -5.757   8.073  16.663  1.00  0.00    -0.013 C
HETATM   11  C11 UNL     1      -4.981   9.193  17.283  1.00  0.00     0.016 C
BRANCH   3  12
HETATM   12  C3  UNL     1      -6.784   9.335  20.627  1.00  0.00     0.150 C
HETATM   13  O1  UNL     1      -6.427   8.491  21.417  1.00  0.00    -0.296 OA
BRANCH  12  14
HETATM   14  C2  UNL     1      -7.551  10.503  21.166  1.00  0.00     0.148 C
HETATM   15  C1  UNL     1      -7.921  11.431  20.033  1.00  0.00     0.034 C
HETATM   16 CL1  UNL     1      -9.040   9.993  21.971  1.00  0.00    -0.117 Cl
ENDBRANCH  12  14
ENDBRANCH   3  12
ENDBRANCH   1   2
BRANCH   1  17
HETATM   17  N1  UNL     1      -4.045  10.505  20.674  1.00  0.00    -0.356 N
HETATM   18  C14 UNL     1      -2.913  10.509  21.475  1.00  0.00     0.256 C
HETATM   19  O2  UNL     1      -1.740  10.297  21.035  1.00  0.00    -0.267 OA
ATOM     20  H1  UNL     1      -4.903  10.681  21.196  1.00  0.00     0.162 HD
BRANCH  18  21
HETATM   21  C15 UNL     1      -2.948  10.767  22.942  1.00  0.00     0.164 C
BRANCH  21  22
HETATM   22  N2  UNL     1      -2.920  12.094  23.356  1.00  0.00    -0.364 N
HETATM   23  C16 UNL     1      -3.420  13.106  22.503  1.00  0.00     0.129 C
HETATM   24  C17 UNL     1      -4.948  13.229  22.592  1.00  0.00     0.041 C
HETATM   25  C18 UNL     1      -5.391  13.154  24.049  1.00  0.00     0.137 C
HETATM   26  N3  UNL     1      -4.404  13.815  24.829  1.00  0.00    -0.306 N
HETATM   27  C20 UNL     1      -3.542  12.962  25.569  1.00  0.00     0.179 C
HETATM   28  C21 UNL     1      -2.460  12.445  24.636  1.00  0.00     0.084 C
BRANCH  26  29
HETATM   29  S1  UNL     1      -4.897  15.246  25.572  1.00  0.00     0.225 S
HETATM   30  C19 UNL     1      -6.626  15.366  25.888  1.00  0.00     0.186 C
HETATM   31  O3  UNL     1      -4.183  15.387  26.888  1.00  0.00    -0.206 OA
HETATM   32  O4  UNL     1      -4.420  16.405  24.711  1.00  0.00    -0.206 OA
ENDBRANCH  26  29
ENDBRANCH  21  22
ENDBRANCH  18  21
ENDBRANCH   1  17
TORSDOF 7
ENDMDL