MODEL 4
REMARK VINA RESULT: -9.568876312      3.084      7.357
REMARK  8 active torsions:
REMARK  status: ('A' for Active; 'I' for Inactive)
REMARK    1  A    between atoms: C2_2  and  N1_3
REMARK    2  A    between atoms: C2_2  and  C9_15
REMARK    3  A    between atoms: N1_3  and  S1_5
REMARK    4  A    between atoms: S1_5  and  C3_8
REMARK    5  A    between atoms: C9_15  and  O6_23
REMARK       I    between atoms: N2_16  and  C10_18
REMARK    6  A    between atoms: C10_18  and  C11_20
REMARK    7  A    between atoms: O6_23  and  C12_24
REMARK    8  A    between atoms: C12_24  and  C13_25
ROOT
HETATM    1  C9  UNL     1      -2.160  11.103  23.838  1.00  0.00     0.144 C
HETATM    2  N2  UNL     1      -2.538  11.997  24.642  1.00  0.00    -0.300 N
ATOM      3  H2  UNL     1      -2.119  11.956  25.572  1.00  0.00     0.171 HD
HETATM    4  C10 UNL     1      -3.443  13.031  24.441  1.00  0.00     0.324 C
HETATM    5  O3  UNL     1      -3.180  13.915  23.587  1.00  0.00    -0.260 OA
ENDROOT
BRANCH   1   6
HETATM    6  C2  UNL     1      -2.643  10.987  22.442  1.00  0.00     0.164 C
HETATM    7  C1  UNL     1      -1.655  10.292  21.539  1.00  0.00     0.041 C
BRANCH   6   8
HETATM    8  N1  UNL     1      -3.876  10.282  22.372  1.00  0.00    -0.303 N
ATOM      9  H1  UNL     1      -4.123   9.550  23.038  1.00  0.00     0.173 HD
BRANCH   8  10
HETATM   10  S1  UNL     1      -4.913  10.739  21.107  1.00  0.00     0.259 S
HETATM   11  O1  UNL     1      -4.271  11.678  20.125  1.00  0.00    -0.201 OA
HETATM   12  O2  UNL     1      -6.167  11.408  21.588  1.00  0.00    -0.201 OA
BRANCH  10  13
HETATM   13  C3  UNL     1      -5.437   9.257  20.288  1.00  0.00     0.079 A
HETATM   14  C4  UNL     1      -4.545   8.649  19.432  1.00  0.00     0.026 A
HETATM   15  C5  UNL     1      -4.919   7.503  18.790  1.00  0.00     0.020 A
HETATM   16  C6  UNL     1      -6.161   6.926  18.961  1.00  0.00     0.011 A
HETATM   17 BR1  UNL     1      -6.647   5.325  18.047  1.00  0.00    -0.051 Br
HETATM   18  C7  UNL     1      -7.029   7.570  19.832  1.00  0.00     0.020 A
HETATM   19  C8  UNL     1      -6.676   8.726  20.492  1.00  0.00     0.026 A
ENDBRANCH  10  13
ENDBRANCH   8  10
ENDBRANCH   6   8
ENDBRANCH   1   6
BRANCH   1  20
HETATM   20  O6  UNL     1      -1.238  10.196  24.327  1.00  0.00    -0.333 OA
BRANCH  20  21
HETATM   21  C12 UNL     1      -0.705  10.185  25.601  1.00  0.00     0.215 C
BRANCH  21  22
HETATM   22  C13 UNL     1      -1.233   9.222  26.560  1.00  0.00    -0.034 A
HETATM   23  C14 UNL     1      -2.395   9.460  27.272  1.00  0.00     0.009 A
HETATM   24  C15 UNL     1      -2.887   8.531  28.168  1.00  0.00     0.001 A
HETATM   25  C16 UNL     1      -2.249   7.329  28.399  1.00  0.00     0.000 A
HETATM   26  C17 UNL     1      -1.089   7.085  27.693  1.00  0.00     0.001 A
HETATM   27  C18 UNL     1      -0.594   8.022  26.789  1.00  0.00     0.009 A
ENDBRANCH  21  22
ENDBRANCH  20  21
ENDBRANCH   1  20
BRANCH   4  28
HETATM   28  C11 UNL     1      -4.707  13.173  25.165  1.00  0.00     0.270 C
HETATM   29  O4  UNL     1      -5.665  12.412  24.856  1.00  0.00    -0.640 OA
HETATM   30  O5  UNL     1      -4.915  14.086  26.162  1.00  0.00    -0.640 OA
ENDBRANCH   4  28
TORSDOF 8
ENDMDL