MODEL 4
REMARK VINA RESULT: -8.947768186      1.537      1.831
REMARK  7 active torsions:
REMARK  status: ('A' for Active; 'I' for Inactive)
REMARK    1  A    between atoms: O1_2  and  C2_3
REMARK    2  A    between atoms: C2_3  and  C3_5
REMARK    3  A    between atoms: C3_5  and  N1_6
REMARK    4  A    between atoms: N2_9  and  C6_10
REMARK    5  A    between atoms: C6_10  and  C7_11
REMARK    6  A    between atoms: C7_11  and  N3_12
REMARK       I    between atoms: N3_12  and  C8_14
REMARK    7  A    between atoms: C8_14  and  C9_16
ROOT
HETATM    1  N1  UNL     1      -1.879  10.285  24.726  1.00  0.00    -0.380 N
HETATM    2  C4  UNL     1      -1.652  10.623  23.374  1.00  0.00     0.142 C
HETATM    3  C5  UNL     1      -2.305  11.945  23.030  1.00  0.00     0.143 C
HETATM    4  N2  UNL     1      -3.717  11.769  23.321  1.00  0.00    -0.369 N
HETATM    5  C19 UNL     1      -3.937  11.680  24.706  1.00  0.00     0.230 C
HETATM    6  C20 UNL     1      -3.548  12.909  25.397  1.00  0.00     0.090 C
HETATM    7  N4  UNL     1      -3.240  13.865  25.922  1.00  0.00    -0.195 NA
HETATM    8  C21 UNL     1      -3.135  10.541  25.291  1.00  0.00     0.098 C
ENDROOT
BRANCH   4   9
HETATM    9  C6  UNL     1      -4.563  12.554  22.512  1.00  0.00     0.079 C
BRANCH   9  10
HETATM   10  C7  UNL     1      -4.120  12.514  21.074  1.00  0.00     0.166 C
BRANCH  10  11
HETATM   11  N3  UNL     1      -4.842  11.522  20.288  1.00  0.00    -0.356 N
HETATM   12  C8  UNL     1      -4.309  10.256  19.989  1.00  0.00     0.226 C
HETATM   13  O3  UNL     1      -3.168   9.937  20.394  1.00  0.00    -0.273 OA
ATOM     14  H3  UNL     1      -5.773  11.755  19.941  1.00  0.00     0.162 HD
BRANCH  12  15
HETATM   15  C9  UNL     1      -5.103   9.287  19.186  1.00  0.00     0.043 C
HETATM   16  C10 UNL     1      -4.398   7.956  19.176  1.00  0.00     0.024 C
HETATM   17  C11 UNL     1      -5.125   6.937  18.353  1.00  0.00    -0.012 C
HETATM   18  C12 UNL     1      -6.466   6.694  19.009  1.00  0.00     0.009 C
HETATM   19  C16 UNL     1      -5.310   7.485  16.955  1.00  0.00     0.025 C
HETATM   20  C13 UNL     1      -7.203   7.996  19.091  1.00  0.00    -0.012 C
HETATM   21  C14 UNL     1      -7.447   8.488  17.677  1.00  0.00     0.025 C
HETATM   22  C18 UNL     1      -6.456   9.060  19.828  1.00  0.00     0.024 C
HETATM   23  C15 UNL     1      -6.129   8.755  17.027  1.00  0.00     0.020 C
HETATM   24 BR1  UNL     1      -6.423   9.431  15.231  1.00  0.00    -0.085 Br
HETATM   25  C17 UNL     1      -5.339   9.790  17.793  1.00  0.00     0.040 C
ENDBRANCH  12  15
ENDBRANCH  10  11
ENDBRANCH   9  10
ENDBRANCH   4   9
BRANCH   1  26
HETATM   26  C3  UNL     1      -0.744  10.370  25.597  1.00  0.00     0.233 C
BRANCH  26  27
HETATM   27  C2  UNL     1      -0.537   9.022  26.241  1.00  0.00     0.276 C
HETATM   28  O2  UNL     1      -0.070   8.045  25.604  1.00  0.00    -0.263 OA
BRANCH  27  29
HETATM   29  O1  UNL     1      -0.859   8.818  27.574  1.00  0.00    -0.325 OA
HETATM   30  C1  UNL     1      -1.656   7.780  28.056  1.00  0.00     0.213 C
ENDBRANCH  27  29
ENDBRANCH  26  27
ENDBRANCH   1  26
TORSDOF 7
ENDMDL