MODEL 2
REMARK VINA RESULT: -6.883070988      1.787      2.241
REMARK  8 active torsions:
REMARK  status: ('A' for Active; 'I' for Inactive)
REMARK    1  A    between atoms: N2_5  and  S1_6
REMARK    2  A    between atoms: S1_6  and  N3_9
REMARK    3  A    between atoms: C7_13  and  C8_14
REMARK    4  A    between atoms: C7_13  and  C9_16
REMARK    5  A    between atoms: C9_16  and  N4_17
REMARK    6  A    between atoms: C12_20  and  C13_21
REMARK    7  A    between atoms: C13_21  and  O3_22
REMARK    8  A    between atoms: C13_21  and  C14_24
ROOT
HETATM    1  N3  UNL     1      -4.441  14.248  23.650  1.00  0.00    -0.192 NA
HETATM    2  C4  UNL     1      -4.185  15.579  24.083  1.00  0.00     0.109 C
HETATM    3  C5  UNL     1      -4.705  16.532  23.042  1.00  0.00     0.016 C
HETATM    4  C6  UNL     1      -4.652  15.942  21.631  1.00  0.00     0.016 C
HETATM    5  C7  UNL     1      -5.530  14.727  21.506  1.00  0.00     0.025 C
HETATM    6  C20 UNL     1      -5.731  14.267  22.978  1.00  0.00     0.122 C
ENDROOT
BRANCH   5   7
HETATM    7  C8  UNL     1      -6.944  15.049  21.071  1.00  0.00     0.234 C
HETATM    8  F1  UNL     1      -7.871  14.383  21.885  1.00  0.00    -0.255 F
ENDBRANCH   5   7
BRANCH   5   9
HETATM    9  C9  UNL     1      -4.941  13.575  20.835  1.00  0.00     0.285 C
BRANCH   9  10
HETATM   10  N4  UNL     1      -5.216  12.250  21.206  1.00  0.00     0.089 N
HETATM   11  C10 UNL     1      -6.285  11.844  20.298  1.00  0.00     0.273 C
HETATM   12  C11 UNL     1      -6.722  10.451  20.457  1.00  0.00     0.037 C
HETATM   13  C12 UNL     1      -5.443   9.557  20.270  1.00  0.00     0.018 C
HETATM   14  C18 UNL     1      -4.667   9.882  21.468  1.00  0.00     0.037 C
HETATM   15  C19 UNL     1      -4.142  11.333  21.274  1.00  0.00     0.273 C
BRANCH  13  16
HETATM   16  C13 UNL     1      -5.870   8.180  19.977  1.00  0.00     0.129 C
BRANCH  16  17
HETATM   17  O3  UNL     1      -7.251   8.031  20.349  1.00  0.00    -0.394 OA
ATOM     18  H3  UNL     1      -7.465   7.106  20.374  1.00  0.00     0.210 HD
ENDBRANCH  16  17
BRANCH  16  19
HETATM   19  C14 UNL     1      -5.703   7.660  18.616  1.00  0.00    -0.025 C
HETATM   20  C15 UNL     1      -5.041   6.347  18.406  1.00  0.00     0.017 C
HETATM   21  C16 UNL     1      -7.119   7.510  17.998  1.00  0.00     0.017 C
HETATM   22  C17 UNL     1      -5.033   8.667  17.678  1.00  0.00     0.017 C
ENDBRANCH  16  19
ENDBRANCH  13  16
ENDBRANCH   9  10
ENDBRANCH   5   9
BRANCH   1  23
HETATM   23  S1  UNL     1      -4.488  13.049  24.849  1.00  0.00     0.301 S
HETATM   24  O1  UNL     1      -5.664  12.139  24.516  1.00  0.00    -0.188 OA
HETATM   25  O2  UNL     1      -4.912  13.741  26.142  1.00  0.00    -0.188 OA
BRANCH  23  26
HETATM   26  N2  UNL     1      -3.070  12.194  25.135  1.00  0.00    -0.295 N
HETATM   27  C3  UNL     1      -2.168  12.080  24.054  1.00  0.00     0.166 C
HETATM   28  C2  UNL     1      -1.777  10.655  23.731  1.00  0.00     0.292 C
HETATM   29  N1  UNL     1      -1.208  10.067  24.902  1.00  0.00     0.087 N
HETATM   30  C1  UNL     1       0.143  10.447  25.175  1.00  0.00     0.310 C
HETATM   31  C22 UNL     1      -2.053  10.156  26.043  1.00  0.00     0.292 C
HETATM   32  C21 UNL     1      -3.277  10.986  25.891  1.00  0.00     0.166 C
ENDBRANCH  23  26
ENDBRANCH   1  23
TORSDOF 8
ENDMDL