MODEL 2
REMARK VINA RESULT: -9.316415877      1.139      1.447
REMARK  6 active torsions:
REMARK  status: ('A' for Active; 'I' for Inactive)
REMARK    1  A    between atoms: C2_2  and  C4_4
REMARK    2  A    between atoms: C4_4  and  N1_5
REMARK    3  A    between atoms: C4_4  and  C12_17
REMARK    4  A    between atoms: C12_17  and  C15_20
REMARK       I    between atoms: C15_20  and  N2_22
REMARK       I    between atoms: N2_22  and  C16_24
REMARK    5  A    between atoms: C16_24  and  C17_26
REMARK    6  A    between atoms: N3_29  and  N4_30
ROOT
HETATM    1  C12 UNL     1      -3.462  11.306  21.546  1.00  0.00     0.074 C
HETATM    2  C13 UNL     1      -2.894  10.473  20.478  1.00  0.00     0.031 C
HETATM    3  C14 UNL     1      -3.021  12.769  21.370  1.00  0.00     0.031 C
ENDROOT
BRANCH   1   4
HETATM    4  C4  UNL     1      -4.890  11.238  21.853  1.00  0.00     0.030 C
BRANCH   4   5
HETATM    5  C2  UNL     1      -5.626  12.370  22.446  1.00  0.00     0.026 C
HETATM    6  C1  UNL     1      -7.090  12.084  22.776  1.00  0.00     0.016 C
HETATM    7  C3  UNL     1      -5.087  13.143  23.578  1.00  0.00     0.016 C
ENDBRANCH   4   5
BRANCH   4   8
HETATM    8  N1  UNL     1      -5.712  10.568  20.821  1.00  0.00    -0.207 N
HETATM    9  C5  UNL     1      -6.030   9.157  20.816  1.00  0.00     0.273 C
HETATM   10  O1  UNL     1      -5.831   8.415  21.844  1.00  0.00    -0.266 OA
HETATM   11  C6  UNL     1      -6.576   8.690  19.593  1.00  0.00     0.056 A
HETATM   12  C7  UNL     1      -6.857   7.361  19.225  1.00  0.00     0.018 A
HETATM   13  C11 UNL     1      -6.742   9.598  18.618  1.00  0.00     0.096 A
HETATM   14  C8  UNL     1      -7.265   7.023  17.961  1.00  0.00     0.001 A
HETATM   15  C9  UNL     1      -7.424   7.963  16.977  1.00  0.00     0.002 A
HETATM   16  C10 UNL     1      -7.146   9.272  17.354  1.00  0.00     0.026 A
HETATM   17  S1  UNL     1      -6.476  11.161  19.432  1.00  0.00     0.272 S
HETATM   18  O2  UNL     1      -5.688  12.004  18.527  1.00  0.00    -0.200 OA
HETATM   19  O3  UNL     1      -7.857  11.711  19.609  1.00  0.00    -0.200 OA
ENDBRANCH   4   8
ENDBRANCH   1   4
BRANCH   1  20
HETATM   20  C15 UNL     1      -2.676  10.955  22.792  1.00  0.00     0.238 C
HETATM   21  O4  UNL     1      -3.103  10.190  23.681  1.00  0.00    -0.272 OA
HETATM   22  N2  UNL     1      -1.378  11.484  23.025  1.00  0.00    -0.292 N
HETATM   23  C16 UNL     1      -0.591  11.200  24.145  1.00  0.00     0.258 C
ATOM     24  H2  UNL     1      -0.991  12.116  22.325  1.00  0.00     0.172 HD
HETATM   25  O5  UNL     1       0.545  11.734  24.239  1.00  0.00    -0.267 OA
BRANCH  23  26
HETATM   26  C17 UNL     1      -0.973  10.329  25.231  1.00  0.00     0.035 A
HETATM   27  C18 UNL     1      -2.014  10.681  26.062  1.00  0.00     0.036 A
HETATM   28  C19 UNL     1      -2.405   9.862  27.113  1.00  0.00     0.119 A
HETATM   29  N3  UNL     1      -1.754   8.712  27.319  1.00  0.00    -0.255 N
HETATM   30  C20 UNL     1      -0.724   8.320  26.529  1.00  0.00     0.119 A
HETATM   31  C21 UNL     1      -0.329   9.141  25.472  1.00  0.00     0.036 A
BRANCH  29  32
HETATM   32  N4  UNL     1      -2.096   7.838  28.361  1.00  0.00    -0.159 N
HETATM   33  F1  UNL     1      -1.267   6.879  28.800  1.00  0.00    -0.084 F
ATOM     34  H4  UNL     1      -3.011   7.935  28.802  1.00  0.00     0.222 HD
ENDBRANCH  29  32
ENDBRANCH  23  26
ENDBRANCH   1  20
TORSDOF 6
ENDMDL