MODEL 4
REMARK VINA RESULT: -7.552145649      3.426      5.342
REMARK  6 active torsions:
REMARK  status: ('A' for Active; 'I' for Inactive)
REMARK    1  A    between atoms: N2_5  and  C4_6
REMARK    2  A    between atoms: C4_6  and  C5_7
REMARK       I    between atoms: C5_7  and  N3_9
REMARK    3  A    between atoms: N3_9  and  C6_11
REMARK    4  A    between atoms: C11_16  and  C12_17
REMARK    5  A    between atoms: C12_17  and  S1_18
REMARK    6  A    between atoms: S1_18  and  N4_21
ROOT
HETATM    1  C6  UNL     1      -5.117  10.201  18.692  1.00  0.00     0.095 C
HETATM    2  C7  UNL     1      -4.647   9.684  17.322  1.00  0.00     0.031 C
HETATM    3  C8  UNL     1      -5.325   8.352  17.251  1.00  0.00    -0.004 C
HETATM    4  C9  UNL     1      -4.739   7.511  18.344  1.00  0.00     0.006 C
HETATM    5  C10 UNL     1      -5.384   7.976  19.625  1.00  0.00     0.014 C
HETATM    6  C11 UNL     1      -6.141   9.255  19.169  1.00  0.00     0.002 C
HETATM    7  C19 UNL     1      -6.696   8.699  17.891  1.00  0.00    -0.034 C
HETATM    8  C20 UNL     1      -7.414   9.687  17.014  1.00  0.00     0.016 C
HETATM    9  C21 UNL     1      -7.512   7.464  18.049  1.00  0.00     0.016 C
ENDROOT
BRANCH   1  10
HETATM   10  N3  UNL     1      -3.950  10.356  19.501  1.00  0.00    -0.354 N
HETATM   11  C5  UNL     1      -3.385  11.622  19.766  1.00  0.00     0.246 C
HETATM   12  O1  UNL     1      -3.928  12.636  19.271  1.00  0.00    -0.272 OA
ATOM     13  H3  UNL     1      -3.512   9.526  19.900  1.00  0.00     0.162 HD
BRANCH  11  14
HETATM   14  C4  UNL     1      -2.181  11.808  20.601  1.00  0.00     0.374 C
BRANCH  14  15
HETATM   15  N2  UNL     1      -1.986  10.694  21.517  1.00  0.00     0.100 N
HETATM   16  C3  UNL     1      -2.842  10.838  22.655  1.00  0.00     0.303 C
HETATM   17  C2  UNL     1      -2.156  10.523  23.964  1.00  0.00     0.302 C
HETATM   18  N1  UNL     1      -0.955  11.277  24.172  1.00  0.00     0.087 N
HETATM   19  C1  UNL     1      -0.124  10.555  25.104  1.00  0.00     0.310 C
HETATM   20  C23 UNL     1      -0.274  11.634  22.966  1.00  0.00     0.302 C
HETATM   21  C22 UNL     1      -0.574  10.664  21.858  1.00  0.00     0.303 C
ENDBRANCH  14  15
ENDBRANCH  11  14
ENDBRANCH   1  10
BRANCH   6  22
HETATM   22  C12 UNL     1      -7.032   9.630  20.240  1.00  0.00     0.170 C
BRANCH  22  23
HETATM   23  S1  UNL     1      -7.185  11.224  20.856  1.00  0.00     0.212 S
HETATM   24  O2  UNL     1      -7.523  12.294  19.830  1.00  0.00    -0.211 OA
HETATM   25  O3  UNL     1      -6.036  11.632  21.707  1.00  0.00    -0.211 OA
BRANCH  23  26
HETATM   26  N4  UNL     1      -8.602  11.297  21.903  1.00  0.00    -0.207 NA
HETATM   27  C13 UNL     1      -9.304  10.062  21.971  1.00  0.00     0.107 C
HETATM   28  C14 UNL     1     -10.722  10.399  22.459  1.00  0.00     0.019 C
HETATM   29  C15 UNL     1     -10.624  11.495  23.500  1.00  0.00     0.045 C
HETATM   30  C16 UNL     1     -10.218  12.774  22.828  1.00  0.00     0.112 C
HETATM   31  C17 UNL     1      -9.277  13.596  23.696  1.00  0.00     0.053 C
HETATM   32  F1  UNL     1     -11.281  13.551  22.435  1.00  0.00    -0.242 F
HETATM   33  C18 UNL     1      -9.424  12.420  21.573  1.00  0.00     0.150 C
ENDBRANCH  23  26
ENDBRANCH  22  23
ENDBRANCH   6  22
TORSDOF 6
ENDMDL