MODEL 1
REMARK VINA RESULT: -5.550241207      0.000      0.000
REMARK  2 active torsions:
REMARK  status: ('A' for Active; 'I' for Inactive)
REMARK    1  A    between atoms: N1_2  and  C2_4
REMARK    2  A    between atoms: C4_11  and  N4_12
ROOT
HETATM    1  C2  UNL     1      24.711  44.440  69.144  1.00  0.00     0.161 C
HETATM    2  N2  UNL     1      23.589  43.940  69.712  1.00  0.00    -0.291 N
ATOM      3  H2  UNL     1      23.656  42.941  69.905  1.00  0.00     0.172 HD
HETATM    4  C3  UNL     1      22.407  44.462  70.078  1.00  0.00     0.340 C
HETATM    5  O1  UNL     1      21.516  43.595  70.267  1.00  0.00    -0.246 OA
HETATM    6  N3  UNL     1      21.905  45.710  70.307  1.00  0.00    -0.141 N
ATOM      7  H3  UNL     1      20.957  45.705  70.687  1.00  0.00     0.189 HD
HETATM    8  C4  UNL     1      22.410  46.953  70.133  1.00  0.00     0.682 C
HETATM    9  N5  UNL     1      23.645  47.459  69.990  1.00  0.00    -0.153 N
ATOM     10  H5  UNL     1      23.679  48.463  70.169  1.00  0.00     0.187 HD
HETATM   11  C5  UNL     1      24.858  46.950  69.664  1.00  0.00     0.313 C
HETATM   12  O2  UNL     1      25.806  47.771  69.769  1.00  0.00    -0.263 OA
HETATM   13  C6  UNL     1      25.288  45.689  69.232  1.00  0.00     0.283 C
HETATM   14  O3  UNL     1      26.461  45.699  68.834  1.00  0.00    -0.278 OA
ENDROOT
BRANCH   1  15
HETATM   15  N1  UNL     1      25.340  43.602  68.399  1.00  0.00    -0.377 N
HETATM   16  C1  UNL     1      24.580  42.602  67.685  1.00  0.00     0.148 C
ATOM     17  H1  UNL     1      26.355  43.643  68.314  1.00  0.00     0.160 HD
ENDBRANCH   1  15
BRANCH   8  18
HETATM   18  N4  UNL     1      21.516  47.874  70.091  1.00  0.00    -0.234 N
ATOM     19  H42 UNL     1      20.625  47.548  70.464  1.00  0.00     0.174 HD
ATOM     20  H41 UNL     1      21.851  48.754  69.699  1.00  0.00     0.174 HD
ENDBRANCH   8  18
TORSDOF 2
ENDMDL