MODEL 3
REMARK VINA RESULT: -6.268378988      2.010      4.080
REMARK  0 active torsions:
REMARK  status: ('A' for Active; 'I' for Inactive)
REMARK       I    between atoms: N6_16  and  C5_17
ROOT
HETATM    1  N1  UNL     1      23.816  43.217  71.750  1.00  0.00    -0.385 N
ATOM      2  H11 UNL     1      24.529  43.946  71.782  1.00  0.00     0.157 HD
ATOM      3  H12 UNL     1      23.745  42.893  72.715  1.00  0.00     0.157 HD
HETATM    4  C1  UNL     1      23.157  42.804  70.724  1.00  0.00     0.139 C
HETATM    5  N2  UNL     1      22.163  41.788  70.680  1.00  0.00    -0.317 N
ATOM      6  H2  UNL     1      22.028  41.061  71.383  1.00  0.00     0.170 HD
HETATM    7  C2  UNL     1      21.445  41.934  69.592  1.00  0.00     0.192 C
HETATM    8  N3  UNL     1      20.339  41.112  69.171  1.00  0.00    -0.063 NA
HETATM    9  N4  UNL     1      21.915  43.053  68.846  1.00  0.00    -0.322 N
ATOM     10  H4  UNL     1      21.416  43.581  68.131  1.00  0.00     0.165 HD
HETATM   11  C3  UNL     1      23.259  43.273  69.333  1.00  0.00     0.273 C
HETATM   12  C4  UNL     1      24.330  42.680  68.524  1.00  0.00     0.295 C
HETATM   13  O1  UNL     1      24.592  41.552  68.074  1.00  0.00    -0.266 OA
HETATM   14  N5  UNL     1      24.919  43.962  68.495  1.00  0.00    -0.257 N
ATOM     15  H5  UNL     1      25.810  44.318  68.149  1.00  0.00     0.190 HD
HETATM   16  N6  UNL     1      23.820  44.560  69.119  1.00  0.00    -0.195 N
HETATM   17  C5  UNL     1      23.509  45.923  69.374  1.00  0.00     0.352 C
HETATM   18  N7  UNL     1      22.281  46.199  70.045  1.00  0.00    -0.038 NA
HETATM   19  O2  UNL     1      24.256  46.872  69.039  1.00  0.00    -0.249 OA
ENDROOT
TORSDOF 0
ENDMDL