MODEL 5
REMARK VINA RESULT: -6.742107932      3.095      5.545
REMARK  0 active torsions:
REMARK  status: ('A' for Active; 'I' for Inactive)
REMARK       I    between atoms: C1_4  and  N3_6
ROOT
HETATM    1  N1  UNL     1      23.000  41.326  69.167  1.00  0.00    -0.373 N
ATOM      2  H11 UNL     1      22.886  41.758  68.250  1.00  0.00     0.158 HD
ATOM      3  H12 UNL     1      22.454  40.494  69.393  1.00  0.00     0.158 HD
HETATM    4  C1  UNL     1      23.826  41.854  69.991  1.00  0.00     0.187 C
HETATM    5  N2  UNL     1      23.984  41.255  71.265  1.00  0.00    -0.064 NA
HETATM    6  N3  UNL     1      24.574  42.994  69.681  1.00  0.00    -0.312 N
ATOM      7  H3  UNL     1      25.540  42.848  69.390  1.00  0.00     0.170 HD
HETATM    8  C2  UNL     1      24.159  44.199  69.729  1.00  0.00     0.178 A
HETATM    9  N4  UNL     1      22.828  44.394  70.131  1.00  0.00    -0.279 N
ATOM     10  H4  UNL     1      22.352  43.531  70.393  1.00  0.00     0.189 HD
HETATM   11  N5  UNL     1      22.016  45.542  70.246  1.00  0.00    -0.261 N
ATOM     12  H5  UNL     1      21.045  45.384  70.516  1.00  0.00     0.190 HD
HETATM   13  C3  UNL     1      22.401  46.898  70.027  1.00  0.00     0.314 A
HETATM   14  O1  UNL     1      21.476  47.729  70.245  1.00  0.00    -0.262 OA
HETATM   15  C4  UNL     1      23.680  47.435  69.599  1.00  0.00     0.294 A
HETATM   16  O2  UNL     1      23.718  48.678  69.476  1.00  0.00    -0.278 OA
HETATM   17  C5  UNL     1      24.894  46.695  69.306  1.00  0.00     0.281 A
HETATM   18  O3  UNL     1      25.866  47.391  68.962  1.00  0.00    -0.279 OA
HETATM   19  C6  UNL     1      25.128  45.231  69.358  1.00  0.00     0.271 A
HETATM   20  O4  UNL     1      26.270  44.820  69.056  1.00  0.00    -0.280 OA
ENDROOT
TORSDOF 0
ENDMDL