MODEL 5
REMARK VINA RESULT: -5.609063583      1.741      1.741
REMARK  2 active torsions:
REMARK  status: ('A' for Active; 'I' for Inactive)
REMARK    1  A    between atoms: C1_2  and  N2_4
REMARK    2  A    between atoms: N2_4  and  C2_6
ROOT
HETATM    1  C2  UNL     1      23.396  44.640  69.723  1.00  0.00     0.191 A
HETATM    2  N3  UNL     1      22.480  44.353  70.671  1.00  0.00    -0.277 N
ATOM      3  H3  UNL     1      21.743  45.028  70.877  1.00  0.00     0.189 HD
HETATM    4  N4  UNL     1      22.521  43.207  71.340  1.00  0.00    -0.250 N
ATOM      5  H4  UNL     1      21.812  43.022  72.050  1.00  0.00     0.192 HD
HETATM    6  C3  UNL     1      23.468  42.287  71.108  1.00  0.00     0.341 A
HETATM    7  O1  UNL     1      23.521  41.203  71.729  1.00  0.00    -0.245 OA
HETATM    8  N5  UNL     1      24.416  42.525  70.164  1.00  0.00    -0.271 N
ATOM      9  H5  UNL     1      25.146  41.839  69.970  1.00  0.00     0.174 HD
HETATM   10  C4  UNL     1      24.368  43.689  69.490  1.00  0.00     0.295 A
HETATM   11  O2  UNL     1      25.237  43.921  68.614  1.00  0.00    -0.264 OA
ENDROOT
BRANCH   1  12
HETATM   12  N2  UNL     1      23.371  45.761  69.055  1.00  0.00    -0.316 N
ATOM     13  H2  UNL     1      23.537  45.760  68.049  1.00  0.00     0.169 HD
BRANCH  12  14
HETATM   14  C1  UNL     1      23.115  46.966  69.723  1.00  0.00     0.186 C
HETATM   15  N1  UNL     1      21.809  47.248  70.186  1.00  0.00    -0.070 NA
HETATM   16  S1  UNL     1      24.363  48.010  69.943  1.00  0.00    -0.044 SA
ENDBRANCH  12  14
ENDBRANCH   1  12
TORSDOF 2
ENDMDL