MODEL 2
REMARK VINA RESULT: -6.778408276      2.117      3.830
REMARK  1 active torsions:
REMARK  status: ('A' for Active; 'I' for Inactive)
REMARK    1  A    between atoms: N1_1  and  C1_5
ROOT
HETATM    1  C1  UNL     1      22.046  43.447  71.181  1.00  0.00     0.371 C
HETATM    2  N2  UNL     1      22.041  43.473  72.595  1.00  0.00    -0.274 N
ATOM      3  H2  UNL     1      21.767  44.131  73.324  1.00  0.00     0.170 HD
HETATM    4  C2  UNL     1      22.602  42.144  72.538  1.00  0.00     0.331 C
HETATM    5  O1  UNL     1      22.651  41.266  73.431  1.00  0.00    -0.247 OA
HETATM    6  N3  UNL     1      23.001  42.302  71.190  1.00  0.00    -0.210 N
HETATM    7  C3  UNL     1      23.517  42.308  69.871  1.00  0.00     0.286 C
HETATM    8  N4  UNL     1      24.824  41.790  69.652  1.00  0.00    -0.290 N
ATOM      9  H4  UNL     1      25.710  41.812  70.155  1.00  0.00     0.169 HD
HETATM   10  C4  UNL     1      24.364  41.232  68.433  1.00  0.00     0.323 C
HETATM   11  O2  UNL     1      24.894  40.829  67.344  1.00  0.00    -0.247 OA
HETATM   12  N5  UNL     1      23.053  41.322  68.959  1.00  0.00    -0.290 N
ATOM     13  H5  UNL     1      22.158  40.873  68.766  1.00  0.00     0.169 HD
HETATM   14  C5  UNL     1      23.435  43.717  69.388  1.00  0.00     0.294 C
HETATM   15  O3  UNL     1      23.839  44.124  68.281  1.00  0.00    -0.266 OA
HETATM   16  N6  UNL     1      22.813  44.436  70.454  1.00  0.00    -0.288 N
ATOM     17  H6  UNL     1      22.893  45.431  70.660  1.00  0.00     0.168 HD
ENDROOT
BRANCH   1  18
HETATM   18  N1  UNL     1      20.814  43.135  70.506  1.00  0.00    -0.013 N
ATOM     19  H13 UNL     1      20.920  43.334  69.511  1.00  0.00     0.281 HD
ATOM     20  H12 UNL     1      20.690  42.122  70.489  1.00  0.00     0.281 HD
ATOM     21  H11 UNL     1      19.958  43.570  70.846  1.00  0.00     0.281 HD
ENDBRANCH   1  18
TORSDOF 1
ENDMDL