MODEL 2
REMARK VINA RESULT: -6.768657701      0.088      2.199
REMARK  2 active torsions:
REMARK  status: ('A' for Active; 'I' for Inactive)
REMARK    1  A    between atoms: N1_1  and  N2_4
REMARK       I    between atoms: N2_4  and  C1_6
REMARK       I    between atoms: C1_6  and  N3_8
REMARK    2  A    between atoms: N3_8  and  C2_10
ROOT
HETATM    1  C2  UNL     1      19.903  48.764  68.740  1.00  0.00     0.694 A
HETATM    2  N4  UNL     1      20.048  49.219  67.493  1.00  0.00    -0.141 N
ATOM      3  H4  UNL     1      20.956  49.117  67.040  1.00  0.00     0.189 HD
HETATM    4  C3  UNL     1      19.044  49.807  66.805  1.00  0.00     0.342 A
HETATM    5  O2  UNL     1      19.262  50.211  65.627  1.00  0.00    -0.246 OA
HETATM    6  N5  UNL     1      17.840  49.943  67.402  1.00  0.00    -0.260 N
ATOM      7  H5  UNL     1      17.068  50.385  66.904  1.00  0.00     0.175 HD
HETATM    8  C4  UNL     1      17.667  49.489  68.670  1.00  0.00     0.342 A
HETATM    9  O3  UNL     1      16.524  49.628  69.210  1.00  0.00    -0.246 OA
HETATM   10  N6  UNL     1      18.697  48.910  69.316  1.00  0.00    -0.141 N
ATOM     11  H6  UNL     1      18.558  48.573  70.269  1.00  0.00     0.189 HD
ENDROOT
BRANCH   1  12
HETATM   12  N3  UNL     1      20.866  48.195  69.411  1.00  0.00    -0.140 N
HETATM   13  C1  UNL     1      22.177  48.756  69.436  1.00  0.00     0.352 C
HETATM   14  N2  UNL     1      22.674  49.453  70.569  1.00  0.00    -0.258 N
HETATM   15  O1  UNL     1      22.883  48.610  68.414  1.00  0.00    -0.245 OA
ATOM     16  H2  UNL     1      22.098  49.570  71.403  1.00  0.00     0.191 HD
ATOM     17  H3  UNL     1      20.678  47.336  69.926  1.00  0.00     0.189 HD
BRANCH  14  18
HETATM   18  N1  UNL     1      23.952  49.967  70.517  1.00  0.00    -0.341 N
ATOM     19  H12 UNL     1      24.642  49.548  69.893  1.00  0.00     0.177 HD
ATOM     20  H11 UNL     1      24.180  50.764  71.111  1.00  0.00     0.177 HD
ENDBRANCH  14  18
ENDBRANCH   1  12
TORSDOF 2
ENDMDL