MODEL 5
REMARK VINA RESULT: -5.537047888      2.983      3.615
REMARK  5 active torsions:
REMARK  status: ('A' for Active; 'I' for Inactive)
REMARK    1  A    between atoms: N1_1  and  N2_4
REMARK    2  A    between atoms: N2_4  and  C1_6
REMARK    3  A    between atoms: C2_13  and  N6_14
REMARK    4  A    between atoms: N6_14  and  S1_16
REMARK    5  A    between atoms: S1_16  and  N7_17
ROOT
HETATM    1  C1  UNL     1      22.668  43.899  69.824  1.00  0.00     0.182 A
HETATM    2  N3  UNL     1      22.261  43.412  68.639  1.00  0.00    -0.267 N
ATOM      3  H3  UNL     1      22.706  43.616  67.744  1.00  0.00     0.190 HD
HETATM    4  N4  UNL     1      21.206  42.634  68.792  1.00  0.00    -0.239 N
ATOM      5  H4  UNL     1      20.707  42.144  68.050  1.00  0.00     0.208 HD
HETATM    6  N5  UNL     1      20.913  42.605  70.079  1.00  0.00    -0.267 N
ATOM      7  H5  UNL     1      20.144  42.082  70.497  1.00  0.00     0.190 HD
HETATM    8  C2  UNL     1      21.793  43.375  70.753  1.00  0.00     0.179 A
ENDROOT
BRANCH   8   9
HETATM    9  N6  UNL     1      21.856  43.612  72.014  1.00  0.00    -0.249 N
ATOM     10  H6  UNL     1      21.353  44.406  72.409  1.00  0.00     0.182 HD
BRANCH   9  11
HETATM   11  S1  UNL     1      22.790  42.591  73.035  1.00  0.00     0.318 S
HETATM   12  O1  UNL     1      24.240  42.862  72.756  1.00  0.00    -0.183 OA
HETATM   13  O2  UNL     1      22.545  41.142  72.762  1.00  0.00    -0.183 OA
BRANCH  11  14
HETATM   14  N7  UNL     1      22.464  42.873  74.697  1.00  0.00    -0.311 N
ATOM     15  H72 UNL     1      21.772  42.344  75.227  1.00  0.00     0.170 HD
ATOM     16  H71 UNL     1      23.041  43.623  75.078  1.00  0.00     0.170 HD
ENDBRANCH  11  14
ENDBRANCH   9  11
ENDBRANCH   8   9
BRANCH   1  17
HETATM   17  N2  UNL     1      23.660  44.688  70.061  1.00  0.00    -0.288 N
ATOM     18  H2  UNL     1      23.488  45.688  70.164  1.00  0.00     0.188 HD
BRANCH  17  19
HETATM   19  N1  UNL     1      24.959  44.208  70.181  1.00  0.00    -0.343 N
ATOM     20  H12 UNL     1      25.583  44.297  69.378  1.00  0.00     0.176 HD
ATOM     21  H11 UNL     1      25.291  43.776  71.044  1.00  0.00     0.176 HD
ENDBRANCH  17  19
ENDBRANCH   1  17
TORSDOF 5
ENDMDL