MODEL 4
REMARK VINA RESULT: -6.661139177      3.132      5.107
REMARK  2 active torsions:
REMARK  status: ('A' for Active; 'I' for Inactive)
REMARK       I    between atoms: C1_4  and  N2_5
REMARK       I    between atoms: C1_4  and  N5_18
REMARK    1  A    between atoms: N2_5  and  C2_7
REMARK    2  A    between atoms: N5_18  and  N6_20
ROOT
HETATM    1  C2  UNL     1      23.307  44.602  69.953  1.00  0.00     0.125 C
HETATM    2  C3  UNL     1      24.597  44.346  69.538  1.00  0.00     0.054 C
HETATM    3  C4  UNL     1      25.611  45.270  69.351  1.00  0.00     0.078 C
HETATM    4  C5  UNL     1      25.513  46.645  69.408  1.00  0.00     0.249 C
HETATM    5  O1  UNL     1      26.601  47.266  69.491  1.00  0.00    -0.268 OA
HETATM    6  N3  UNL     1      24.412  47.422  69.388  1.00  0.00    -0.275 N
ATOM      7  H3  UNL     1      24.549  48.413  69.185  1.00  0.00     0.173 HD
HETATM    8  C6  UNL     1      23.154  47.015  69.611  1.00  0.00     0.328 C
HETATM    9  O2  UNL     1      22.203  47.804  69.373  1.00  0.00    -0.247 OA
HETATM   10  N4  UNL     1      22.724  45.810  70.082  1.00  0.00    -0.294 N
ATOM     11  H4  UNL     1      21.846  45.825  70.600  1.00  0.00     0.172 HD
ENDROOT
BRANCH   1  12
HETATM   12  N2  UNL     1      22.639  43.552  70.231  1.00  0.00    -0.176 N
HETATM   13  C1  UNL     1      22.053  42.676  69.302  1.00  0.00     0.691 C
HETATM   14  N1  UNL     1      20.785  42.601  69.220  1.00  0.00    -0.233 N
HETATM   15  N5  UNL     1      22.864  41.887  68.468  1.00  0.00    -0.139 N
ATOM     16  H12 UNL     1      20.196  43.173  69.825  1.00  0.00     0.174 HD
ATOM     17  H11 UNL     1      20.358  41.966  68.546  1.00  0.00     0.174 HD
ATOM     18  H5  UNL     1      22.895  42.067  67.464  1.00  0.00     0.205 HD
ATOM     19  H2  UNL     1      22.520  43.327  71.218  1.00  0.00     0.186 HD
BRANCH  15  20
HETATM   20  N6  UNL     1      23.621  40.864  69.012  1.00  0.00    -0.331 N
ATOM     21  H62 UNL     1      24.545  41.077  69.388  1.00  0.00     0.177 HD
ATOM     22  H61 UNL     1      23.250  39.915  69.032  1.00  0.00     0.177 HD
ENDBRANCH  15  20
ENDBRANCH   1  12
TORSDOF 2
ENDMDL