MODEL 5
REMARK VINA RESULT: -6.195959353      1.472      2.719
REMARK  0 active torsions:
REMARK  status: ('A' for Active; 'I' for Inactive)
REMARK       I    between atoms: C1_2  and  N2_4
ROOT
HETATM    1  N1  UNL     1      23.739  41.199  70.913  1.00  0.00    -0.040 NA
HETATM    2  C1  UNL     1      23.403  42.042  69.826  1.00  0.00     0.334 C
HETATM    3  O1  UNL     1      23.715  41.745  68.633  1.00  0.00    -0.251 OA
HETATM    4  N2  UNL     1      22.713  43.239  70.030  1.00  0.00    -0.292 N
ATOM      5  H2  UNL     1      21.716  43.143  70.224  1.00  0.00     0.172 HD
HETATM    6  C2  UNL     1      23.151  44.425  70.007  1.00  0.00     0.182 C
HETATM    7  N3  UNL     1      22.262  45.437  70.241  1.00  0.00    -0.290 N
ATOM      8  H3  UNL     1      21.413  45.184  70.746  1.00  0.00     0.172 HD
HETATM    9  C3  UNL     1      22.378  46.722  69.884  1.00  0.00     0.329 C
HETATM   10  O2  UNL     1      21.411  47.442  70.283  1.00  0.00    -0.246 OA
HETATM   11  N4  UNL     1      23.335  47.351  69.188  1.00  0.00    -0.260 N
ATOM     12  H4  UNL     1      23.125  48.293  68.857  1.00  0.00     0.175 HD
HETATM   13  C4  UNL     1      24.563  46.844  68.882  1.00  0.00     0.331 C
HETATM   14  O3  UNL     1      25.319  47.627  68.263  1.00  0.00    -0.246 OA
HETATM   15  N5  UNL     1      25.079  45.634  69.146  1.00  0.00    -0.272 N
ATOM     16  H5  UNL     1      26.045  45.491  68.852  1.00  0.00     0.174 HD
HETATM   17  C5  UNL     1      24.493  44.587  69.747  1.00  0.00     0.293 C
HETATM   18  O4  UNL     1      25.263  43.653  70.114  1.00  0.00    -0.264 OA
ENDROOT
TORSDOF 0
ENDMDL