MODEL 1
REMARK VINA RESULT: -8.880022027      0.000      0.000
REMARK  12 active torsions:
REMARK  status: ('A' for Active; 'I' for Inactive)
REMARK    1  A    between atoms: C4_4  and  C5_5
REMARK    2  A    between atoms: C5_5  and  O1_6
REMARK    3  A    between atoms: O1_6  and  C6_7
REMARK    4  A    between atoms: C6_7  and  C7_8
REMARK    5  A    between atoms: C7_8  and  C8_9
REMARK    6  A    between atoms: N1_10  and  C9_12
REMARK    7  A    between atoms: C9_12  and  C10_13
REMARK    8  A    between atoms: C9_12  and  C13_16
REMARK    9  A    between atoms: C18_21  and  N2_22
REMARK   10  A    between atoms: C24_29  and  O3_30
REMARK   11  A    between atoms: C25_32  and  O4_33
REMARK   12  A    between atoms: C26_35  and  O5_36
ROOT
HETATM    1  C13 UNL     1      16.138  16.797  30.845  1.00  0.00     0.033 A
HETATM    2  C14 UNL     1      15.789  15.944  29.690  1.00  0.00     0.018 A
HETATM    3  C15 UNL     1      15.169  14.664  30.146  1.00  0.00     0.002 A
HETATM    4  C16 UNL     1      15.058  14.754  31.625  1.00  0.00     0.008 A
HETATM    5  C17 UNL     1      15.644  16.073  32.066  1.00  0.00     0.028 A
HETATM    6  C18 UNL     1      16.535  15.995  33.245  1.00  0.00     0.129 C
HETATM    7  C24 UNL     1      17.990  16.204  32.991  1.00  0.00     0.173 C
HETATM    8  C25 UNL     1      18.409  15.938  31.584  1.00  0.00     0.178 C
HETATM    9  C26 UNL     1      17.644  17.003  30.798  1.00  0.00     0.164 C
ENDROOT
BRANCH   1  10
HETATM   10  C9  UNL     1      15.555  18.198  30.824  1.00  0.00     0.001 C
BRANCH  10  11
HETATM   11  N1  UNL     1      16.392  19.267  31.131  1.00  0.00    -0.375 N
HETATM   12  C8  UNL     1      16.902  19.629  32.338  1.00  0.00     0.062 C
ATOM     13  H1  UNL     1      16.658  19.859  30.344  1.00  0.00     0.164 HD
BRANCH  12  14
HETATM   14  C7  UNL     1      17.385  21.066  32.348  1.00  0.00     0.071 C
BRANCH  14  15
HETATM   15  C6  UNL     1      16.981  21.914  31.215  1.00  0.00     0.173 C
BRANCH  15  16
HETATM   16  O1  UNL     1      15.907  22.739  31.633  1.00  0.00    -0.387 OA
BRANCH  16  17
HETATM   17  C5  UNL     1      14.783  22.606  30.852  1.00  0.00     0.195 C
BRANCH  17  18
HETATM   18  C4  UNL     1      14.974  23.152  29.478  1.00  0.00     0.001 C
HETATM   19  C2  UNL     1      14.977  22.445  28.368  1.00  0.00    -0.089 C
HETATM   20  C1  UNL     1      14.793  20.971  28.286  1.00  0.00     0.042 C
HETATM   21  C3  UNL     1      15.170  23.160  27.073  1.00  0.00     0.042 C
ENDBRANCH  17  18
ENDBRANCH  16  17
ENDBRANCH  15  16
ENDBRANCH  14  15
ENDBRANCH  12  14
ENDBRANCH  10  11
BRANCH  10  22
HETATM   22  C10 UNL     1      14.175  18.308  31.403  1.00  0.00     0.024 C
HETATM   23  C11 UNL     1      13.721  19.564  32.012  1.00  0.00     0.016 C
HETATM   24  C12 UNL     1      13.263  18.159  30.143  1.00  0.00     0.016 C
ENDBRANCH  10  22
ENDBRANCH   1  10
BRANCH   9  25
HETATM   25  O5  UNL     1      18.151  16.982  29.514  1.00  0.00    -0.392 OA
ATOM     26  H5  UNL     1      18.158  16.112  29.132  1.00  0.00     0.210 HD
ENDBRANCH   9  25
BRANCH   6  27
HETATM   27  N2  UNL     1      16.200  14.851  34.063  1.00  0.00    -0.317 N
HETATM   28  C19 UNL     1      16.735  13.642  33.990  1.00  0.00     0.095 A
HETATM   29  C20 UNL     1      16.369  12.612  34.826  1.00  0.00     0.017 A
HETATM   30  C21 UNL     1      15.400  12.785  35.809  1.00  0.00     0.007 A
HETATM   31  C22 UNL     1      14.841  14.044  35.885  1.00  0.00     0.074 A
HETATM   32  C23 UNL     1      15.241  15.026  35.034  1.00  0.00     0.247 A
HETATM   33  O2  UNL     1      14.710  16.165  35.131  1.00  0.00    -0.268 OA
ENDBRANCH   6  27
BRANCH   8  34
HETATM   34  O4  UNL     1      18.333  14.707  31.076  1.00  0.00    -0.390 OA
ATOM     35  H4  UNL     1      18.733  13.974  31.528  1.00  0.00     0.210 HD
ENDBRANCH   8  34
BRANCH   7  36
HETATM   36  O3  UNL     1      18.851  15.725  33.966  1.00  0.00    -0.391 OA
ATOM     37  H3  UNL     1      19.588  15.212  33.654  1.00  0.00     0.210 HD
ENDBRANCH   7  36
TORSDOF 12
ENDMDL