MODEL 2
REMARK VINA RESULT: -8.232976590      1.614      1.911
REMARK  13 active torsions:
REMARK  status: ('A' for Active; 'I' for Inactive)
REMARK    1  A    between atoms: C2_2  and  C3_3
REMARK    2  A    between atoms: C3_3  and  C4_4
REMARK    3  A    between atoms: C4_4  and  O1_5
REMARK    4  A    between atoms: C8_10  and  O2_11
REMARK    5  A    between atoms: C10_14  and  C11_15
REMARK    6  A    between atoms: C11_15  and  C12_16
REMARK    7  A    between atoms: C12_16  and  C13_17
REMARK    8  A    between atoms: C13_17  and  C14_18
REMARK    9  A    between atoms: C14_18  and  C15_19
REMARK   10  A    between atoms: C15_19  and  C16_20
REMARK   11  A    between atoms: C16_20  and  O3_21
REMARK   12  A    between atoms: C23_30  and  O5_31
REMARK   13  A    between atoms: C23_30  and  C24_33
ROOT
HETATM    1  C3  UNL     1      17.964  15.294  32.865  1.00  0.00     0.103 C
HETATM    2  C5  UNL     1      18.702  16.531  32.454  1.00  0.00     0.083 C
HETATM    3  C6  UNL     1      17.813  17.764  32.424  1.00  0.00    -0.042 A
HETATM    4  C7  UNL     1      18.503  18.669  33.203  1.00  0.00     0.044 A
HETATM    5  C8  UNL     1      17.999  19.928  33.356  1.00  0.00     0.066 A
HETATM    6  C9  UNL     1      16.823  20.305  32.746  1.00  0.00     0.044 A
HETATM    7  C10 UNL     1      16.139  19.357  31.957  1.00  0.00    -0.046 A
HETATM    8  C17 UNL     1      16.615  18.092  31.787  1.00  0.00    -0.010 A
HETATM    9  C18 UNL     1      15.648  17.438  30.898  1.00  0.00     0.100 A
HETATM   10  C19 UNL     1      16.477  16.782  29.831  1.00  0.00     0.059 A
HETATM   11  C20 UNL     1      15.804  15.907  30.736  1.00  0.00     0.024 A
HETATM   12  C21 UNL     1      14.788  15.165  29.843  1.00  0.00     0.022 C
HETATM   13  C22 UNL     1      15.759  15.415  32.066  1.00  0.00     0.178 C
HETATM   14  O4  UNL     1      16.678  15.654  33.002  1.00  0.00    -0.364 OA
HETATM   15  C23 UNL     1      14.427  15.877  32.716  1.00  0.00     0.165 C
HETATM   16  C26 UNL     1      13.603  16.655  31.767  1.00  0.00     0.217 C
HETATM   17  O7  UNL     1      14.325  17.510  30.938  1.00  0.00    -0.371 OA
ENDROOT
BRANCH   7  18
HETATM   18  C11 UNL     1      14.890  19.887  31.331  1.00  0.00     0.039 C
BRANCH  18  19
HETATM   19  C12 UNL     1      15.035  21.391  31.009  1.00  0.00     0.005 C
BRANCH  19  20
HETATM   20  C13 UNL     1      15.162  21.561  29.489  1.00  0.00     0.000 C
BRANCH  20  21
HETATM   21  C14 UNL     1      14.555  20.373  28.780  1.00  0.00     0.002 C
BRANCH  21  22
HETATM   22  C15 UNL     1      13.056  20.454  28.652  1.00  0.00     0.026 C
BRANCH  22  23
HETATM   23  C16 UNL     1      12.461  19.060  28.447  1.00  0.00     0.164 C
BRANCH  23  24
HETATM   24  O3  UNL     1      11.269  19.185  27.702  1.00  0.00    -0.401 OA
ATOM     25  H3  UNL     1      11.466  19.640  26.891  1.00  0.00     0.209 HD
ENDBRANCH  23  24
ENDBRANCH  22  23
ENDBRANCH  21  22
ENDBRANCH  20  21
ENDBRANCH  19  20
ENDBRANCH  18  19
ENDBRANCH   7  18
BRANCH   5  26
HETATM   26  O2  UNL     1      18.673  20.892  34.146  1.00  0.00    -0.361 OA
ATOM     27  H2  UNL     1      18.276  21.734  34.332  1.00  0.00     0.217 HD
ENDBRANCH   5  26
BRANCH   1  28
HETATM   28  C2  UNL     1      18.257  14.164  31.950  1.00  0.00     0.003 C
HETATM   29  C1  UNL     1      17.761  12.974  32.231  1.00  0.00     0.010 C
ENDBRANCH   1  28
BRANCH   1  30
HETATM   30  C4  UNL     1      18.419  14.833  34.267  1.00  0.00     0.206 C
BRANCH  30  31
HETATM   31  O1  UNL     1      17.346  14.753  35.126  1.00  0.00    -0.398 OA
ATOM     32  H1  UNL     1      17.551  14.197  35.868  1.00  0.00     0.209 HD
ENDBRANCH  30  31
ENDBRANCH   1  30
BRANCH  15  33
HETATM   33  O5  UNL     1      14.714  16.704  33.847  1.00  0.00    -0.377 OA
ATOM     34  H5  UNL     1      13.916  17.130  34.136  1.00  0.00     0.211 HD
ENDBRANCH  15  33
BRANCH  15  35
HETATM   35  C24 UNL     1      13.630  14.772  33.279  1.00  0.00     0.162 C
HETATM   36  C25 UNL     1      13.993  14.243  34.670  1.00  0.00     0.094 C
HETATM   37  O6  UNL     1      12.690  14.201  32.771  1.00  0.00    -0.295 OA
ENDBRANCH  15  35
TORSDOF 13
ENDMDL