MODEL 1
REMARK VINA RESULT: -9.122655388      0.000      0.000
REMARK  13 active torsions:
REMARK  status: ('A' for Active; 'I' for Inactive)
REMARK    1  A    between atoms: C2_2  and  C3_3
REMARK    2  A    between atoms: C2_2  and  C21_29
REMARK    3  A    between atoms: C4_4  and  C5_5
REMARK    4  A    between atoms: N1_11  and  C9_12
REMARK    5  A    between atoms: C9_12  and  C10_13
REMARK    6  A    between atoms: C10_13  and  C11_14
REMARK    7  A    between atoms: C11_14  and  O3_15
REMARK    8  A    between atoms: C11_14  and  C12_17
REMARK    9  A    between atoms: C12_17  and  C13_18
REMARK   10  A    between atoms: C18_24  and  O5_25
REMARK   11  A    between atoms: C22_30  and  O6_31
REMARK   12  A    between atoms: C22_30  and  C23_33
REMARK   13  A    between atoms: C23_33  and  O7_36
ROOT
HETATM    1  C5  UNL     1      15.323  13.680  35.296  1.00  0.00     0.033 C
HETATM    2  C6  UNL     1      15.216  14.578  34.314  1.00  0.00     0.064 C
HETATM    3  O1  UNL     1      15.184  15.933  34.681  1.00  0.00    -0.281 OA
HETATM    4  C7  UNL     1      14.648  16.865  33.790  1.00  0.00     0.301 C
HETATM    5  O2  UNL     1      14.394  18.008  34.195  1.00  0.00    -0.262 OA
HETATM    6  C8  UNL     1      14.422  16.422  32.433  1.00  0.00     0.364 C
HETATM    7  N1  UNL     1      14.534  17.410  31.390  1.00  0.00     0.113 N
HETATM    8  C16 UNL     1      14.643  16.546  30.199  1.00  0.00     0.355 C
HETATM    9  C17 UNL     1      15.090  15.200  30.645  1.00  0.00     0.192 C
HETATM   10  O4  UNL     1      15.161  14.179  30.010  1.00  0.00    -0.293 OA
HETATM   11  C18 UNL     1      15.441  15.374  32.067  1.00  0.00     0.169 C
HETATM   12  C19 UNL     1      15.136  14.148  32.902  1.00  0.00     0.084 C
HETATM   13  C20 UNL     1      16.100  13.018  32.605  1.00  0.00     0.020 C
ENDROOT
BRANCH   1  14
HETATM   14  C4  UNL     1      15.400  14.118  36.664  1.00  0.00    -0.001 C
HETATM   15  C3  UNL     1      14.787  13.702  37.694  1.00  0.00    -0.018 C
BRANCH  15  16
HETATM   16  C2  UNL     1      13.806  12.682  37.974  1.00  0.00     0.029 C
HETATM   17  C1  UNL     1      12.438  12.836  37.420  1.00  0.00     0.018 C
BRANCH  16  18
HETATM   18  C21 UNL     1      13.780  12.489  39.473  1.00  0.00     0.016 C
HETATM   19  C22 UNL     1      13.834  11.292  40.011  1.00  0.00     0.073 C
BRANCH  19  20
HETATM   20  O6  UNL     1      13.917  10.185  39.164  1.00  0.00    -0.362 OA
ATOM     21  H6  UNL     1      13.292  10.110  38.452  1.00  0.00     0.217 HD
ENDBRANCH  19  20
BRANCH  19  22
HETATM   22  C23 UNL     1      13.805  11.149  41.476  1.00  0.00     0.098 C
HETATM   23  C24 UNL     1      12.461  10.692  41.982  1.00  0.00     0.053 C
HETATM   24  C25 UNL     1      14.098  12.493  42.125  1.00  0.00     0.053 C
BRANCH  22  25
HETATM   25  O7  UNL     1      14.760  10.242  41.924  1.00  0.00    -0.384 OA
ATOM     26  H7  UNL     1      14.896   9.539  41.300  1.00  0.00     0.211 HD
ENDBRANCH  22  25
ENDBRANCH  19  22
ENDBRANCH  16  18
ENDBRANCH  15  16
ENDBRANCH   1  14
BRANCH  11  27
HETATM   27  O5  UNL     1      16.747  15.751  32.209  1.00  0.00    -0.378 OA
ATOM     28  H5  UNL     1      17.037  16.443  31.627  1.00  0.00     0.211 HD
ENDBRANCH  11  27
BRANCH   7  29
HETATM   29  C9  UNL     1      15.655  18.262  31.503  1.00  0.00     0.277 C
BRANCH  29  30
HETATM   30  C10 UNL     1      15.440  19.744  31.531  1.00  0.00     0.062 C
BRANCH  30  31
HETATM   31  C11 UNL     1      14.121  20.281  31.156  1.00  0.00     0.120 C
BRANCH  31  32
HETATM   32  O3  UNL     1      13.228  20.259  32.267  1.00  0.00    -0.396 OA
ATOM     33  H3  UNL     1      12.496  20.848  32.125  1.00  0.00     0.210 HD
ENDBRANCH  31  32
BRANCH  31  34
HETATM   34  C12 UNL     1      14.161  21.667  30.607  1.00  0.00     0.035 C
BRANCH  34  35
HETATM   35  C13 UNL     1      14.173  21.859  29.140  1.00  0.00    -0.020 C
HETATM   36  C14 UNL     1      14.067  20.552  28.373  1.00  0.00     0.009 C
HETATM   37  C15 UNL     1      15.164  22.827  28.587  1.00  0.00     0.009 C
ENDBRANCH  34  35
ENDBRANCH  31  34
ENDBRANCH  30  31
ENDBRANCH  29  30
ENDBRANCH   7  29
TORSDOF 13
ENDMDL