MODEL 5
REMARK VINA RESULT: -8.739232184      2.864      6.651
REMARK  14 active torsions:
REMARK  status: ('A' for Active; 'I' for Inactive)
REMARK    1  A    between atoms: C2_2  and  C3_3
REMARK    2  A    between atoms: C3_3  and  C4_4
REMARK    3  A    between atoms: C4_4  and  O2_6
REMARK    4  A    between atoms: O2_6  and  C5_7
REMARK    5  A    between atoms: C5_7  and  C6_8
REMARK    6  A    between atoms: C6_8  and  C7_10
REMARK    7  A    between atoms: C7_10  and  C8_11
REMARK    8  A    between atoms: C8_11  and  C9_12
REMARK    9  A    between atoms: C21_24  and  O4_25
REMARK   10  A    between atoms: C22_27  and  C23_28
REMARK   11  A    between atoms: C23_28  and  O5_29
REMARK   12  A    between atoms: C23_28  and  C24_31
REMARK   13  A    between atoms: C24_31  and  O6_32
REMARK   14  A    between atoms: C25_34  and  O7_36
ROOT
HETATM    1  C9  UNL     1      14.564  14.627  33.053  1.00  0.00     0.004 C
HETATM    2  C10 UNL     1      14.763  15.908  32.273  1.00  0.00     0.006 C
HETATM    3  C11 UNL     1      13.594  16.797  32.115  1.00  0.00     0.039 C
HETATM    4  C12 UNL     1      14.018  18.055  31.442  1.00  0.00    -0.087 C
HETATM    5  C13 UNL     1      12.965  19.103  31.732  1.00  0.00     0.043 C
HETATM    6  C14 UNL     1      14.996  18.535  30.692  1.00  0.00    -0.024 C
HETATM    7  C15 UNL     1      16.242  18.028  30.103  1.00  0.00     0.028 C
HETATM    8  C16 UNL     1      17.120  17.251  31.061  1.00  0.00     0.009 C
HETATM    9  C17 UNL     1      16.842  15.784  30.978  1.00  0.00    -0.000 C
HETATM   10  C18 UNL     1      15.335  15.569  30.941  1.00  0.00    -0.004 C
HETATM   11  C19 UNL     1      15.090  14.058  30.773  1.00  0.00     0.014 C
HETATM   12  C20 UNL     1      15.276  13.614  32.165  1.00  0.00     0.036 C
HETATM   13  C21 UNL     1      16.553  14.059  32.831  1.00  0.00     0.100 C
HETATM   14  C22 UNL     1      17.428  14.927  32.042  1.00  0.00     0.059 C
HETATM   15  C25 UNL     1      15.714  14.482  33.982  1.00  0.00     0.094 C
HETATM   16  C26 UNL     1      15.590  13.456  35.080  1.00  0.00     0.050 C
ENDROOT
BRANCH   1  17
HETATM   17  C8  UNL     1      13.182  14.382  33.374  1.00  0.00     0.021 C
BRANCH  17  18
HETATM   18  C7  UNL     1      12.431  13.193  32.934  1.00  0.00     0.081 C
BRANCH  18  19
HETATM   19  C6  UNL     1      11.980  12.362  34.128  1.00  0.00     0.150 C
HETATM   20  O3  UNL     1      11.633  11.207  34.031  1.00  0.00    -0.296 OA
BRANCH  19  21
HETATM   21  C5  UNL     1      11.970  13.001  35.463  1.00  0.00     0.256 C
BRANCH  21  22
HETATM   22  O2  UNL     1      12.358  12.139  36.500  1.00  0.00    -0.314 OA
BRANCH  22  23
HETATM   23  C4  UNL     1      12.534  12.485  37.823  1.00  0.00     0.259 C
HETATM   24  O1  UNL     1      11.540  12.853  38.489  1.00  0.00    -0.265 OA
BRANCH  23  25
HETATM   25  C3  UNL     1      13.891  12.411  38.413  1.00  0.00     0.111 C
BRANCH  25  26
HETATM   26  C2  UNL     1      14.495  13.805  38.534  1.00  0.00     0.005 C
HETATM   27  C1  UNL     1      14.557  14.233  39.967  1.00  0.00     0.005 C
ENDBRANCH  25  26
ENDBRANCH  23  25
ENDBRANCH  22  23
ENDBRANCH  21  22
ENDBRANCH  19  21
ENDBRANCH  18  19
ENDBRANCH  17  18
ENDBRANCH   1  17
BRANCH  15  28
HETATM   28  O7  UNL     1      16.024  15.705  34.575  1.00  0.00    -0.386 OA
ATOM     29  H7  UNL     1      15.314  15.996  35.135  1.00  0.00     0.210 HD
ENDBRANCH  15  28
BRANCH  13  30
HETATM   30  O4  UNL     1      17.232  12.854  33.197  1.00  0.00    -0.386 OA
ATOM     31  H4  UNL     1      17.954  12.773  32.585  1.00  0.00     0.210 HD
ENDBRANCH  13  30
BRANCH  14  32
HETATM   32  C23 UNL     1      18.463  15.577  32.897  1.00  0.00     0.149 C
BRANCH  32  33
HETATM   33  O5  UNL     1      19.571  16.026  32.143  1.00  0.00    -0.393 OA
ATOM     34  H5  UNL     1      19.427  16.890  31.776  1.00  0.00     0.210 HD
ENDBRANCH  32  33
BRANCH  32  35
HETATM   35  C24 UNL     1      19.144  14.674  33.908  1.00  0.00     0.196 C
BRANCH  35  36
HETATM   36  O6  UNL     1      20.164  13.930  33.258  1.00  0.00    -0.398 OA
ATOM     37  H6  UNL     1      19.866  13.037  33.129  1.00  0.00     0.209 HD
ENDBRANCH  35  36
ENDBRANCH  32  35
ENDBRANCH  14  32
TORSDOF 14
ENDMDL