MODEL 5
REMARK VINA RESULT: -9.728153288      1.448      2.590
REMARK  10 active torsions:
REMARK  status: ('A' for Active; 'I' for Inactive)
REMARK    1  A    between atoms: C2_2  and  C3_3
REMARK    2  A    between atoms: C2_2  and  C19_37
REMARK    3  A    between atoms: C3_3  and  N1_4
REMARK    4  A    between atoms: N1_4  and  C4_6
REMARK    5  A    between atoms: C5_9  and  N3_10
REMARK    6  A    between atoms: N5_17  and  C8_18
REMARK    7  A    between atoms: C11_22  and  C12_23
REMARK    8  A    between atoms: C12_23  and  C13_24
REMARK    9  A    between atoms: C13_24  and  C14_25
REMARK   10  A    between atoms: C19_37  and  C20_38
ROOT
HETATM    1  C4  UNL     1      17.678  14.487  33.829  1.00  0.00     0.681 A
HETATM    2  N2  UNL     1      18.959  14.138  33.671  1.00  0.00    -0.175 N
ATOM      3  H2  UNL     1      19.386  13.501  34.344  1.00  0.00     0.186 HD
HETATM    4  C5  UNL     1      19.702  14.602  32.651  1.00  0.00     0.145 A
HETATM    5  C6  UNL     1      19.126  15.464  31.740  1.00  0.00     0.123 A
HETATM    6  N4  UNL     1      19.568  16.093  30.639  1.00  0.00    -0.346 N
ATOM      7  H4  UNL     1      20.505  16.043  30.238  1.00  0.00     0.167 HD
HETATM    8  C7  UNL     1      18.541  16.791  30.177  1.00  0.00     0.186 A
HETATM    9  N5  UNL     1      17.443  16.642  30.939  1.00  0.00    -0.313 N
HETATM   10  C18 UNL     1      17.804  15.802  31.932  1.00  0.00     0.155 A
HETATM   11  N8  UNL     1      17.076  15.333  32.951  1.00  0.00    -0.174 N
ATOM     12  H8  UNL     1      16.098  15.603  33.067  1.00  0.00     0.186 HD
ENDROOT
BRANCH   9  13
HETATM   13  C8  UNL     1      16.203  17.248  30.694  1.00  0.00     0.186 C
HETATM   14  C9  UNL     1      14.988  16.386  30.769  1.00  0.00     0.201 C
HETATM   15  O1  UNL     1      13.979  16.978  30.012  1.00  0.00    -0.388 OA
HETATM   16  C10 UNL     1      13.986  18.356  30.075  1.00  0.00     0.179 C
HETATM   17  C11 UNL     1      14.459  18.899  31.396  1.00  0.00     0.082 C
HETATM   18  C17 UNL     1      15.901  18.461  31.530  1.00  0.00     0.158 C
HETATM   19  O2  UNL     1      16.692  19.028  32.225  1.00  0.00    -0.295 OA
BRANCH  17  20
HETATM   20  C12 UNL     1      14.359  20.394  31.370  1.00  0.00     0.020 C
BRANCH  20  21
HETATM   21  C13 UNL     1      13.472  20.956  30.312  1.00  0.00     0.059 C
BRANCH  21  22
HETATM   22  C14 UNL     1      14.332  21.702  29.351  1.00  0.00     0.025 A
HETATM   23  C15 UNL     1      14.893  22.961  29.550  1.00  0.00     0.113 A
HETATM   24  N6  UNL     1      15.615  23.312  28.450  1.00  0.00    -0.360 N
HETATM   25  C16 UNL     1      15.509  22.295  27.584  1.00  0.00     0.180 A
ATOM     26  H6  UNL     1      16.135  24.178  28.313  1.00  0.00     0.166 HD
HETATM   27  N7  UNL     1      14.742  21.335  28.124  1.00  0.00    -0.355 N
ATOM     28  H7  UNL     1      14.505  20.454  27.669  1.00  0.00     0.166 HD
ENDBRANCH  21  22
ENDBRANCH  20  21
ENDBRANCH  17  20
ENDBRANCH   9  13
BRANCH   4  29
HETATM   29  N3  UNL     1      20.937  14.279  32.484  1.00  0.00    -0.383 N
ATOM     30  H32 UNL     1      21.404  13.759  33.228  1.00  0.00     0.157 HD
ATOM     31  H31 UNL     1      21.463  14.519  31.643  1.00  0.00     0.157 HD
ENDBRANCH   4  29
BRANCH   1  32
HETATM   32  N1  UNL     1      16.959  14.063  34.781  1.00  0.00    -0.226 N
ATOM     33  H1  UNL     1      16.947  14.597  35.650  1.00  0.00     0.177 HD
BRANCH  32  34
HETATM   34  C3  UNL     1      16.172  12.888  34.704  1.00  0.00     0.142 C
BRANCH  34  35
HETATM   35  C2  UNL     1      14.902  12.965  35.535  1.00  0.00     0.000 C
HETATM   36  C1  UNL     1      13.820  13.733  34.801  1.00  0.00     0.011 C
BRANCH  35  37
HETATM   37  C19 UNL     1      15.253  13.658  36.836  1.00  0.00     0.010 C
BRANCH  37  38
HETATM   38  C20 UNL     1      14.158  13.486  37.865  1.00  0.00    -0.014 C
HETATM   39  C21 UNL     1      13.878  12.043  38.187  1.00  0.00     0.005 C
HETATM   40  C22 UNL     1      13.032  12.192  39.452  1.00  0.00     0.000 C
HETATM   41  C23 UNL     1      13.632  13.400  40.170  1.00  0.00     0.000 C
HETATM   42  C24 UNL     1      14.644  13.995  39.208  1.00  0.00     0.005 C
ENDBRANCH  37  38
ENDBRANCH  35  37
ENDBRANCH  34  35
ENDBRANCH  32  34
ENDBRANCH   1  32
TORSDOF 10
ENDMDL