MODEL 1
REMARK VINA RESULT: -9.503068498      0.000      0.000
REMARK  12 active torsions:
REMARK  status: ('A' for Active; 'I' for Inactive)
REMARK    1  A    between atoms: C2_2  and  C3_4
REMARK    2  A    between atoms: C3_4  and  O2_5
REMARK    3  A    between atoms: C3_4  and  C4_7
REMARK    4  A    between atoms: C4_7  and  N1_8
REMARK    5  A    between atoms: N1_8  and  C5_11
REMARK    6  A    between atoms: C5_11  and  O3_12
REMARK    7  A    between atoms: C5_11  and  C6_14
REMARK    8  A    between atoms: C6_14  and  C7_15
REMARK    9  A    between atoms: C6_14  and  N2_19
REMARK   10  A    between atoms: C7_15  and  C8_16
REMARK       I    between atoms: N2_19  and  C11_21
REMARK   11  A    between atoms: C11_21  and  O5_23
REMARK   12  A    between atoms: O5_23  and  C12_24
ROOT
HETATM    1  N2  UNL     1      17.262  18.490  31.579  1.00  0.00    -0.328 N
ATOM      2  H2  UNL     1      16.595  17.928  31.050  1.00  0.00     0.165 HD
HETATM    3  C11 UNL     1      18.598  18.053  31.568  1.00  0.00     0.361 C
HETATM    4  O4  UNL     1      19.458  18.694  32.200  1.00  0.00    -0.238 OA
ENDROOT
BRANCH   1   5
HETATM    5  C6  UNL     1      16.737  19.640  32.254  1.00  0.00     0.143 C
BRANCH   5   6
HETATM    6  C5  UNL     1      17.380  20.923  31.727  1.00  0.00     0.341 C
BRANCH   6   7
HETATM    7  N1  UNL     1      16.435  21.980  31.542  1.00  0.00    -0.044 N
ATOM      8  H12 UNL     1      16.682  22.784  32.120  1.00  0.00     0.280 HD
ATOM      9  H11 UNL     1      15.538  21.734  31.960  1.00  0.00     0.280 HD
BRANCH   7  10
HETATM   10  C4  UNL     1      16.256  22.383  30.174  1.00  0.00     0.274 C
BRANCH  10  11
HETATM   11  C3  UNL     1      14.847  22.970  30.022  1.00  0.00     0.212 C
BRANCH  11  12
HETATM   12  C2  UNL     1      13.994  22.048  29.231  1.00  0.00     0.153 C
HETATM   13  C1  UNL     1      14.563  20.845  28.606  1.00  0.00     0.093 C
HETATM   14  O1  UNL     1      12.800  22.270  29.083  1.00  0.00    -0.296 OA
ENDBRANCH  11  12
BRANCH  11  15
HETATM   15  O2  UNL     1      14.291  23.114  31.290  1.00  0.00    -0.386 OA
ATOM     16  H2  UNL     1      14.417  24.011  31.578  1.00  0.00     0.210 HD
ENDBRANCH  11  15
ENDBRANCH  10  11
ENDBRANCH   7  10
ENDBRANCH   6   7
BRANCH   6  17
HETATM   17  O3  UNL     1      18.406  21.333  32.548  1.00  0.00    -0.368 OA
ATOM     18  H3  UNL     1      18.370  20.874  33.379  1.00  0.00     0.212 HD
ENDBRANCH   6  17
ENDBRANCH   5   6
BRANCH   5  19
HETATM   19  C7  UNL     1      15.250  19.676  32.084  1.00  0.00     0.033 C
BRANCH  19  20
HETATM   20  C8  UNL     1      14.581  18.345  32.183  1.00  0.00    -0.021 C
HETATM   21  C9  UNL     1      14.352  17.940  33.611  1.00  0.00     0.009 C
HETATM   22  C10 UNL     1      13.222  18.390  31.502  1.00  0.00     0.009 C
ENDBRANCH  19  20
ENDBRANCH   5  19
ENDBRANCH   1   5
BRANCH   3  23
HETATM   23  O5  UNL     1      19.049  16.942  30.897  1.00  0.00    -0.296 OA
BRANCH  23  24
HETATM   24  C12 UNL     1      18.840  15.639  31.326  1.00  0.00     0.166 C
HETATM   25  C13 UNL     1      20.099  14.989  31.868  1.00  0.00     0.204 C
HETATM   26  O6  UNL     1      19.762  14.490  33.137  1.00  0.00    -0.358 OA
HETATM   27  C14 UNL     1      18.411  14.145  33.029  1.00  0.00     0.267 C
HETATM   28  O7  UNL     1      17.842  13.987  34.279  1.00  0.00    -0.350 OA
HETATM   29  C24 UNL     1      17.878  15.420  32.404  1.00  0.00     0.077 C
HETATM   30  C15 UNL     1      16.463  13.900  34.219  1.00  0.00     0.061 C
HETATM   31  C16 UNL     1      15.896  14.959  35.126  1.00  0.00     0.046 C
HETATM   32  C17 UNL     1      16.083  12.545  34.802  1.00  0.00     0.046 C
HETATM   33  C18 UNL     1      16.014  13.943  32.835  1.00  0.00     0.025 C
HETATM   34  C19 UNL     1      14.557  14.073  32.535  1.00  0.00     0.013 C
HETATM   35  C23 UNL     1      16.468  15.218  32.094  1.00  0.00     0.008 C
HETATM   36  C20 UNL     1      14.645  14.152  30.999  1.00  0.00    -0.009 A
HETATM   37  C21 UNL     1      14.701  15.438  30.304  1.00  0.00     0.010 A
HETATM   38  C22 UNL     1      16.028  14.843  30.741  1.00  0.00    -0.005 A
ENDBRANCH  23  24
ENDBRANCH   3  23
TORSDOF 12
ENDMDL