MODEL 3
REMARK VINA RESULT: -8.840362178      1.488      1.709
REMARK  13 active torsions:
REMARK  status: ('A' for Active; 'I' for Inactive)
REMARK    1  A    between atoms: O1_1  and  C1_3
REMARK    2  A    between atoms: C1_3  and  C2_4
REMARK    3  A    between atoms: C2_4  and  C3_5
REMARK    4  A    between atoms: C3_5  and  C4_6
REMARK    5  A    between atoms: C4_6  and  C5_7
REMARK    6  A    between atoms: C5_7  and  C6_8
REMARK    7  A    between atoms: C6_8  and  O2_9
REMARK    8  A    between atoms: O2_9  and  C7_10
REMARK    9  A    between atoms: C9_12  and  O3_13
REMARK   10  A    between atoms: C12_18  and  O5_19
REMARK   11  A    between atoms: N1_28  and  C20_29
REMARK   12  A    between atoms: C20_29  and  C21_30
REMARK   13  A    between atoms: C26_35  and  O6_36
ROOT
HETATM    1  C7  UNL     1      13.957  17.797  31.688  1.00  0.00     0.155 C
HETATM    2  C8  UNL     1      13.952  16.681  32.707  1.00  0.00     0.076 C
HETATM    3  C9  UNL     1      15.380  16.242  32.812  1.00  0.00     0.103 C
HETATM    4  C10 UNL     1      15.842  16.486  31.365  1.00  0.00     0.195 C
HETATM    5  O4  UNL     1      17.171  16.214  31.137  1.00  0.00    -0.337 OA
HETATM    6  C11 UNL     1      17.835  15.324  31.977  1.00  0.00     0.110 A
HETATM    7  C12 UNL     1      19.187  15.081  31.908  1.00  0.00     0.099 A
HETATM    8  C13 UNL     1      19.759  14.178  32.793  1.00  0.00     0.040 A
HETATM    9  C14 UNL     1      19.001  13.510  33.752  1.00  0.00     0.011 A
HETATM   10  C15 UNL     1      17.647  13.767  33.806  1.00  0.00    -0.046 A
HETATM   11  C16 UNL     1      17.125  14.650  32.929  1.00  0.00    -0.002 A
HETATM   12  C17 UNL     1      15.653  14.830  33.097  1.00  0.00     0.057 C
HETATM   13  C18 UNL     1      14.919  13.814  32.294  1.00  0.00     0.050 C
HETATM   14  C19 UNL     1      13.867  13.252  33.235  1.00  0.00     0.274 C
HETATM   15  N1  UNL     1      14.159  13.758  34.564  1.00  0.00     0.095 N
HETATM   16  C24 UNL     1      15.467  14.339  34.509  1.00  0.00     0.243 C
HETATM   17  C25 UNL     1      16.545  13.271  34.697  1.00  0.00     0.076 C
HETATM   18  C26 UNL     1      15.431  17.937  31.244  1.00  0.00     0.179 C
ENDROOT
BRANCH   1  19
HETATM   19  O2  UNL     1      13.472  19.000  32.137  1.00  0.00    -0.383 OA
BRANCH  19  20
HETATM   20  C6  UNL     1      12.544  19.441  31.178  1.00  0.00     0.168 C
BRANCH  20  21
HETATM   21  C5  UNL     1      12.816  20.835  30.707  1.00  0.00     0.026 C
BRANCH  21  22
HETATM   22  C4  UNL     1      13.993  21.410  31.436  1.00  0.00     0.002 C
BRANCH  22  23
HETATM   23  C3  UNL     1      14.898  22.200  30.517  1.00  0.00     0.002 C
BRANCH  23  24
HETATM   24  C2  UNL     1      16.239  22.463  31.207  1.00  0.00     0.026 C
BRANCH  24  25
HETATM   25  C1  UNL     1      16.805  21.168  31.754  1.00  0.00     0.164 C
BRANCH  25  26
HETATM   26  O1  UNL     1      18.097  21.309  32.220  1.00  0.00    -0.401 OA
ATOM     27  H1  UNL     1      18.184  21.058  33.132  1.00  0.00     0.209 HD
ENDBRANCH  25  26
ENDBRANCH  24  25
ENDBRANCH  23  24
ENDBRANCH  22  23
ENDBRANCH  21  22
ENDBRANCH  20  21
ENDBRANCH  19  20
ENDBRANCH   1  19
BRANCH  18  28
HETATM   28  O6  UNL     1      15.511  18.412  29.958  1.00  0.00    -0.390 OA
ATOM     29  H6  UNL     1      16.368  18.236  29.586  1.00  0.00     0.210 HD
ENDBRANCH  18  28
BRANCH   3  30
HETATM   30  O3  UNL     1      16.057  17.075  33.678  1.00  0.00    -0.386 OA
ATOM     31  H3  UNL     1      16.919  16.718  33.855  1.00  0.00     0.210 HD
ENDBRANCH   3  30
BRANCH  15  32
HETATM   32  C20 UNL     1      13.975  12.754  35.570  1.00  0.00     0.277 C
BRANCH  32  33
HETATM   33  C21 UNL     1      13.600  13.300  36.905  1.00  0.00     0.014 A
HETATM   34  C22 UNL     1      14.624  13.653  37.918  1.00  0.00     0.007 A
HETATM   35  C23 UNL     1      13.877  12.381  38.094  1.00  0.00     0.007 A
ENDBRANCH  32  33
ENDBRANCH  15  32
BRANCH   7  36
HETATM   36  O5  UNL     1      19.927  15.744  30.961  1.00  0.00    -0.358 OA
ATOM     37  H5  UNL     1      20.801  15.429  30.763  1.00  0.00     0.217 HD
ENDBRANCH   7  36
TORSDOF 13
ENDMDL