MODEL 2
REMARK VINA RESULT: -7.578750219      1.125      1.475
REMARK  14 active torsions:
REMARK  status: ('A' for Active; 'I' for Inactive)
REMARK    1  A    between atoms: C2_2  and  C3_3
REMARK    2  A    between atoms: C3_3  and  C5_5
REMARK    3  A    between atoms: C5_5  and  N1_6
REMARK    4  A    between atoms: C5_5  and  C11_15
REMARK       I    between atoms: N1_6  and  C6_8
REMARK    5  A    between atoms: C6_8  and  O2_10
REMARK    6  A    between atoms: O2_10  and  C7_11
REMARK       I    between atoms: C11_15  and  N2_17
REMARK    7  A    between atoms: N2_17  and  C12_19
REMARK    8  A    between atoms: C12_19  and  C13_20
REMARK    9  A    between atoms: C12_19  and  C20_33
REMARK       I    between atoms: C13_20  and  N3_22
REMARK   10  A    between atoms: N3_22  and  C14_24
REMARK   11  A    between atoms: C14_24  and  C15_25
REMARK   12  A    between atoms: C14_24  and  C18_28
REMARK   13  A    between atoms: C18_28  and  O5_29
REMARK   14  A    between atoms: C18_28  and  O6_31
ROOT
HETATM    1  C11 UNL     1      13.392  13.824  33.624  1.00  0.00     0.241 C
HETATM    2  O3  UNL     1      12.344  13.606  32.924  1.00  0.00    -0.271 OA
HETATM    3  N2  UNL     1      14.316  14.809  33.182  1.00  0.00    -0.345 N
ATOM      4  H2  UNL     1      15.156  14.999  33.728  1.00  0.00     0.163 HD
ENDROOT
BRANCH   3   5
HETATM    5  C12 UNL     1      14.064  15.556  31.941  1.00  0.00     0.184 C
BRANCH   5   6
HETATM    6  C13 UNL     1      14.008  16.996  32.221  1.00  0.00     0.241 C
HETATM    7  O4  UNL     1      14.309  17.369  33.408  1.00  0.00    -0.271 OA
HETATM    8  N3  UNL     1      13.657  18.028  31.336  1.00  0.00    -0.350 N
ATOM      9  H3  UNL     1      13.406  17.786  30.377  1.00  0.00     0.163 HD
BRANCH   8  10
HETATM   10  C14 UNL     1      13.634  19.438  31.734  1.00  0.00     0.142 C
BRANCH  10  11
HETATM   11  C15 UNL     1      14.789  20.158  31.164  1.00  0.00     0.005 C
HETATM   12  C16 UNL     1      15.155  19.696  29.773  1.00  0.00     0.012 C
HETATM   13  C17 UNL     1      16.028  20.168  31.998  1.00  0.00     0.012 C
ENDBRANCH  10  11
BRANCH  10  14
HETATM   14  C18 UNL     1      12.285  19.994  31.358  1.00  0.00     0.279 C
BRANCH  14  15
HETATM   15  O5  UNL     1      11.355  19.903  32.392  1.00  0.00    -0.369 OA
ATOM     16  H5  UNL     1      10.625  20.502  32.286  1.00  0.00     0.212 HD
ENDBRANCH  14  15
BRANCH  14  17
HETATM   17  O6  UNL     1      12.325  21.230  30.766  1.00  0.00    -0.364 OA
HETATM   18  C19 UNL     1      11.800  21.237  29.497  1.00  0.00     0.204 C
ENDBRANCH  14  17
ENDBRANCH  10  14
ENDBRANCH   8  10
ENDBRANCH   5   6
BRANCH   5  19
HETATM   19  C20 UNL     1      15.185  15.241  30.977  1.00  0.00    -0.022 C
HETATM   20  C21 UNL     1      14.874  15.816  29.617  1.00  0.00     0.017 C
HETATM   21  C22 UNL     1      16.502  15.859  31.509  1.00  0.00     0.017 C
HETATM   22  C23 UNL     1      15.472  13.789  30.841  1.00  0.00     0.017 C
ENDBRANCH   5  19
ENDBRANCH   3   5
BRANCH   1  23
HETATM   23  C5  UNL     1      13.598  13.054  34.852  1.00  0.00     0.182 C
BRANCH  23  24
HETATM   24  C3  UNL     1      14.829  13.489  35.622  1.00  0.00     0.013 C
HETATM   25  C4  UNL     1      14.744  13.204  37.082  1.00  0.00     0.012 C
BRANCH  24  26
HETATM   26  C2  UNL     1      16.083  12.855  35.073  1.00  0.00     0.002 C
HETATM   27  C1  UNL     1      17.069  13.964  34.771  1.00  0.00     0.005 C
ENDBRANCH  24  26
ENDBRANCH  23  24
BRANCH  23  28
HETATM   28  N1  UNL     1      12.433  12.961  35.683  1.00  0.00    -0.323 N
HETATM   29  C6  UNL     1      11.598  11.815  35.790  1.00  0.00     0.362 C
HETATM   30  O1  UNL     1      11.880  10.792  35.118  1.00  0.00    -0.238 OA
ATOM     31  H1  UNL     1      12.184  13.780  36.238  1.00  0.00     0.165 HD
BRANCH  29  32
HETATM   32  O2  UNL     1      10.503  11.797  36.603  1.00  0.00    -0.294 OA
BRANCH  32  33
HETATM   33  C7  UNL     1       9.236  12.326  36.280  1.00  0.00     0.061 C
HETATM   34  C8  UNL     1       9.159  13.813  36.358  1.00  0.00     0.046 C
HETATM   35  C9  UNL     1       8.285  11.759  37.339  1.00  0.00     0.046 C
HETATM   36  C10 UNL     1       8.722  11.874  34.938  1.00  0.00     0.046 C
ENDBRANCH  32  33
ENDBRANCH  29  32
ENDBRANCH  23  28
ENDBRANCH   1  23
TORSDOF 14
ENDMDL