MODEL 3
REMARK VINA RESULT: -9.315954814      2.620      5.397
REMARK  14 active torsions:
REMARK  status: ('A' for Active; 'I' for Inactive)
REMARK    1  A    between atoms: C2_2  and  C3_3
REMARK    2  A    between atoms: C4_4  and  C5_5
REMARK    3  A    between atoms: C5_5  and  C6_6
REMARK    4  A    between atoms: C6_6  and  C8_8
REMARK    5  A    between atoms: C9_10  and  C10_11
REMARK    6  A    between atoms: C10_11  and  C11_12
REMARK    7  A    between atoms: C11_12  and  C13_14
REMARK    8  A    between atoms: C13_14  and  O2_15
REMARK    9  A    between atoms: C14_17  and  C15_18
REMARK   10  A    between atoms: C15_18  and  O3_20
REMARK   11  A    between atoms: O3_20  and  C17_21
REMARK   12  A    between atoms: C19_23  and  O4_24
REMARK   13  A    between atoms: C20_26  and  O5_27
REMARK   14  A    between atoms: C24_32  and  O6_33
ROOT
HETATM    1  C15 UNL     1      14.542  15.898  31.279  1.00  0.00     0.143 C
HETATM    2  C16 UNL     1      14.842  15.595  29.820  1.00  0.00     0.044 C
ENDROOT
BRANCH   1   3
HETATM    3  C14 UNL     1      15.687  15.370  32.065  1.00  0.00     0.036 C
HETATM    4  C13 UNL     1      15.752  15.482  33.389  1.00  0.00     0.046 C
BRANCH   4   5
HETATM    5  C11 UNL     1      16.879  14.964  34.182  1.00  0.00     0.041 C
HETATM    6  C12 UNL     1      17.630  13.835  33.556  1.00  0.00     0.017 C
BRANCH   5   7
HETATM    7  C10 UNL     1      16.492  14.553  35.589  1.00  0.00     0.038 C
BRANCH   7   8
HETATM    8  C9  UNL     1      15.511  13.466  35.649  1.00  0.00    -0.019 C
HETATM    9  C2  UNL     1      14.767  13.093  36.658  1.00  0.00    -0.066 C
HETATM   10  C1  UNL     1      13.809  11.945  36.529  1.00  0.00     0.048 C
BRANCH   9  11
HETATM   11  C3  UNL     1      14.814  13.750  37.954  1.00  0.00     0.002 C
HETATM   12  C4  UNL     1      14.090  13.293  38.970  1.00  0.00    -0.025 C
BRANCH  12  13
HETATM   13  C5  UNL     1      14.167  13.991  40.272  1.00  0.00     0.038 C
BRANCH  13  14
HETATM   14  C6  UNL     1      13.733  12.990  41.343  1.00  0.00     0.046 C
HETATM   15  C7  UNL     1      14.942  12.576  42.128  1.00  0.00     0.017 C
BRANCH  14  16
HETATM   16  C8  UNL     1      12.691  13.584  42.225  1.00  0.00     0.235 C
HETATM   17  O1  UNL     1      12.313  14.707  41.942  1.00  0.00    -0.306 OA
ENDBRANCH  14  16
ENDBRANCH  13  14
ENDBRANCH  12  13
ENDBRANCH   9  11
ENDBRANCH   7   8
ENDBRANCH   5   7
ENDBRANCH   4   5
BRANCH   4  18
HETATM   18  O2  UNL     1      14.693  16.120  34.014  1.00  0.00    -0.365 OA
ATOM     19  H2  UNL     1      14.191  15.670  34.683  1.00  0.00     0.217 HD
ENDBRANCH   4  18
ENDBRANCH   1   3
BRANCH   1  20
HETATM   20  O3  UNL     1      14.498  17.267  31.517  1.00  0.00    -0.369 OA
BRANCH  20  21
HETATM   21  C17 UNL     1      14.372  18.029  30.371  1.00  0.00     0.195 C
HETATM   22  C18 UNL     1      12.958  18.324  29.994  1.00  0.00     0.074 C
HETATM   23  C19 UNL     1      13.011  19.148  28.700  1.00  0.00     0.150 C
HETATM   24  C20 UNL     1      13.538  20.531  28.960  1.00  0.00     0.163 C
HETATM   25  C21 UNL     1      14.506  20.588  30.113  1.00  0.00     0.054 C
HETATM   26  C22 UNL     1      13.817  21.128  31.320  1.00  0.00     0.023 C
HETATM   27  C25 UNL     1      15.596  21.563  29.742  1.00  0.00     0.051 C
HETATM   28  C26 UNL     1      15.136  19.279  30.395  1.00  0.00     0.167 C
HETATM   29  C23 UNL     1      14.629  22.282  31.847  1.00  0.00     0.033 C
HETATM   30  C24 UNL     1      15.811  22.456  30.937  1.00  0.00     0.119 C
HETATM   31  O7  UNL     1      16.347  19.200  30.664  1.00  0.00    -0.294 OA
BRANCH  23  32
HETATM   32  O4  UNL     1      11.724  19.144  28.169  1.00  0.00    -0.393 OA
ATOM     33  H4  UNL     1      11.520  18.242  27.956  1.00  0.00     0.210 HD
ENDBRANCH  23  32
BRANCH  24  34
HETATM   34  O5  UNL     1      14.080  21.019  27.772  1.00  0.00    -0.392 OA
ATOM     35  H5  UNL     1      14.815  21.579  27.991  1.00  0.00     0.210 HD
ENDBRANCH  24  34
BRANCH  30  36
HETATM   36  O6  UNL     1      17.018  22.123  31.533  1.00  0.00    -0.396 OA
ATOM     37  H6  UNL     1      17.246  21.206  31.436  1.00  0.00     0.210 HD
ENDBRANCH  30  36
ENDBRANCH  20  21
ENDBRANCH   1  20
TORSDOF 14
ENDMDL