MODEL 5
REMARK VINA RESULT: -8.262385727      1.824      3.272
REMARK  15 active torsions:
REMARK  status: ('A' for Active; 'I' for Inactive)
REMARK    1  A    between atoms: C2_2  and  C3_3
REMARK    2  A    between atoms: C3_3  and  C5_5
REMARK    3  A    between atoms: C5_5  and  C6_6
REMARK    4  A    between atoms: C6_6  and  C7_7
REMARK    5  A    between atoms: C7_7  and  O7_35
REMARK    6  A    between atoms: C8_8  and  C9_9
REMARK    7  A    between atoms: C10_10  and  C11_11
REMARK    8  A    between atoms: C11_11  and  C12_12
REMARK    9  A    between atoms: C12_12  and  C14_14
REMARK   10  A    between atoms: C14_14  and  C20_21
REMARK   11  A    between atoms: C21_23  and  O3_24
REMARK   12  A    between atoms: C22_26  and  O4_27
REMARK   13  A    between atoms: C23_29  and  O5_30
REMARK   14  A    between atoms: C24_32  and  O6_33
REMARK   15  A    between atoms: O7_35  and  C25_36
ROOT
HETATM    1  C14 UNL     1      15.573  18.184  31.417  1.00  0.00     0.020 C
HETATM    2  C15 UNL     1      16.889  18.415  31.740  1.00  0.00     0.002 C
HETATM    3  C16 UNL     1      17.997  17.494  32.030  1.00  0.00     0.044 C
HETATM    4  C17 UNL     1      19.246  18.388  31.788  1.00  0.00     0.012 C
HETATM    5  C18 UNL     1      18.828  19.678  32.385  1.00  0.00     0.084 C
HETATM    6  C19 UNL     1      17.339  19.739  32.168  1.00  0.00     0.156 C
HETATM    7  O1  UNL     1      16.697  20.812  32.366  1.00  0.00    -0.293 OA
ENDROOT
BRANCH   1   8
HETATM    8  C12 UNL     1      15.240  16.770  31.395  1.00  0.00    -0.003 C
HETATM    9  C13 UNL     1      14.786  16.851  33.202  1.00  0.00     0.059 C
BRANCH   8  10
HETATM   10  C11 UNL     1      14.968  15.637  31.384  1.00  0.00    -0.120 C
BRANCH  10  11
HETATM   11  C10 UNL     1      14.812  14.230  31.342  1.00  0.00     0.056 C
HETATM   12  C9  UNL     1      15.565  13.214  31.573  1.00  0.00     0.011 C
BRANCH  12  13
HETATM   13  C8  UNL     1      16.917  13.105  31.992  1.00  0.00     0.033 C
HETATM   14  C7  UNL     1      17.343  12.962  33.264  1.00  0.00     0.056 C
BRANCH  14  15
HETATM   15  C6  UNL     1      16.369  12.894  34.384  1.00  0.00     0.069 C
BRANCH  15  16
HETATM   16  C5  UNL     1      16.254  14.108  35.269  1.00  0.00     0.044 C
BRANCH  16  17
HETATM   17  C3  UNL     1      14.936  13.916  36.017  1.00  0.00    -0.068 C
HETATM   18  C4  UNL     1      13.801  13.770  35.311  1.00  0.00     0.019 C
BRANCH  17  19
HETATM   19  C2  UNL     1      14.895  13.756  37.432  1.00  0.00    -0.004 C
HETATM   20  C1  UNL     1      14.102  12.982  38.154  1.00  0.00     0.012 C
ENDBRANCH  17  19
ENDBRANCH  16  17
ENDBRANCH  15  16
ENDBRANCH  14  15
BRANCH  14  21
HETATM   21  O7  UNL     1      18.654  12.875  33.668  1.00  0.00    -0.290 OA
BRANCH  21  22
HETATM   22  C25 UNL     1      19.586  13.837  33.711  1.00  0.00     0.403 C
HETATM   23  O8  UNL     1      20.040  14.437  32.740  1.00  0.00    -0.276 OA
ENDBRANCH  21  22
ENDBRANCH  14  21
ENDBRANCH  12  13
ENDBRANCH  10  11
ENDBRANCH   8  10
ENDBRANCH   1   8
BRANCH   1  24
HETATM   24  C20 UNL     1      14.791  19.179  30.701  1.00  0.00     0.093 C
HETATM   25  O2  UNL     1      14.083  18.887  29.590  1.00  0.00    -0.319 OA
HETATM   26  C21 UNL     1      13.464  20.072  29.169  1.00  0.00     0.294 C
HETATM   27  C22 UNL     1      12.198  20.199  29.952  1.00  0.00     0.205 C
HETATM   28  C23 UNL     1      12.569  20.280  31.389  1.00  0.00     0.186 C
HETATM   29  C24 UNL     1      14.002  20.053  31.690  1.00  0.00     0.207 C
BRANCH  26  30
HETATM   30  O3  UNL     1      13.240  20.155  27.817  1.00  0.00    -0.368 OA
ATOM     31  H3  UNL     1      12.456  19.711  27.516  1.00  0.00     0.212 HD
ENDBRANCH  26  30
BRANCH  27  32
HETATM   32  O4  UNL     1      11.541  21.355  29.601  1.00  0.00    -0.388 OA
ATOM     33  H4  UNL     1      10.603  21.235  29.687  1.00  0.00     0.210 HD
ENDBRANCH  27  32
BRANCH  28  34
HETATM   34  O5  UNL     1      11.721  19.428  32.071  1.00  0.00    -0.390 OA
ATOM     35  H5  UNL     1      12.269  18.792  32.516  1.00  0.00     0.210 HD
ENDBRANCH  28  34
BRANCH  29  36
HETATM   36  O6  UNL     1      14.045  19.451  32.961  1.00  0.00    -0.386 OA
ATOM     37  H6  UNL     1      14.281  18.537  32.858  1.00  0.00     0.210 HD
ENDBRANCH  29  36
ENDBRANCH   1  24
TORSDOF 15
ENDMDL