MODEL 1
REMARK VINA RESULT: -5.793296009      0.000      0.000
REMARK  4 active torsions:
REMARK  status: ('A' for Active; 'I' for Inactive)
REMARK    1  A    between atoms: C2_2  and  N1_4
REMARK    2  A    between atoms: C2_2  and  C4_8
REMARK    3  A    between atoms: C4_8  and  N2_9
REMARK    4  A    between atoms: C4_8  and  C7_17
REMARK       I    between atoms: C5_11  and  N4_13
REMARK       I    between atoms: C7_17  and  N6_19
ROOT
HETATM    1  N2  UNL     1     106.828  36.199  82.518  1.00  0.00    -0.348 N
ATOM      2  H2  UNL     1     106.756  35.735  83.423  1.00  0.00     0.163 HD
HETATM    3  C5  UNL     1     107.781  37.041  82.321  1.00  0.00     0.198 C
HETATM    4  N3  UNL     1     108.696  37.290  83.381  1.00  0.00    -0.063 NA
HETATM    5  N4  UNL     1     107.967  37.738  81.103  1.00  0.00    -0.268 N
ATOM      6  H4  UNL     1     107.566  38.671  81.004  1.00  0.00     0.180 HD
HETATM    7  C6  UNL     1     108.681  37.192  80.032  1.00  0.00     0.184 C
HETATM    8  N5  UNL     1     109.273  36.736  79.143  1.00  0.00    -0.172 NA
ENDROOT
BRANCH   1   9
HETATM    9  C4  UNL     1     105.844  35.889  81.477  1.00  0.00     0.212 C
BRANCH   9  10
HETATM   10  C2  UNL     1     104.656  35.322  82.191  1.00  0.00     0.145 C
HETATM   11  C1  UNL     1     103.794  36.382  82.809  1.00  0.00     0.048 C
HETATM   12  C3  UNL     1     105.028  34.202  83.094  1.00  0.00     0.048 C
BRANCH  10  13
HETATM   13  N1  UNL     1     103.822  34.719  81.128  1.00  0.00    -0.069 N
ATOM     14  H13 UNL     1     103.308  33.891  81.427  1.00  0.00     0.275 HD
ATOM     15  H12 UNL     1     103.008  35.279  80.875  1.00  0.00     0.275 HD
ATOM     16  H11 UNL     1     104.462  34.549  80.352  1.00  0.00     0.275 HD
ENDBRANCH  10  13
ENDBRANCH   9  10
BRANCH   9  17
HETATM   17  C7  UNL     1     106.406  35.070  80.422  1.00  0.00     0.255 C
HETATM   18  O1  UNL     1     105.863  35.215  79.270  1.00  0.00    -0.270 OA
HETATM   19  N6  UNL     1     107.455  34.154  80.512  1.00  0.00    -0.262 N
HETATM   20  C8  UNL     1     107.903  33.421  79.399  1.00  0.00     0.184 C
ATOM     21  H6  UNL     1     107.912  34.012  81.413  1.00  0.00     0.181 HD
HETATM   22  N7  UNL     1     108.271  32.826  78.459  1.00  0.00    -0.172 NA
ENDBRANCH   9  17
ENDBRANCH   1   9
TORSDOF 4
ENDMDL