MODEL 4
REMARK VINA RESULT: -4.926645517      0.951      2.369
REMARK  2 active torsions:
REMARK  status: ('A' for Active; 'I' for Inactive)
REMARK    1  A    between atoms: C4_7  and  C5_8
REMARK    2  A    between atoms: C5_8  and  N2_9
ROOT
HETATM    1  C1  UNL     1     108.325  34.700  78.087  1.00  0.00     0.259 C
HETATM    2  C2  UNL     1     108.182  33.773  79.290  1.00  0.00     0.259 C
HETATM    3  N1  UNL     1     107.114  34.292  80.097  1.00  0.00    -0.072 N
ATOM      4  H11 UNL     1     106.406  33.575  80.253  1.00  0.00     0.277 HD
ATOM      5  H12 UNL     1     106.565  34.969  79.568  1.00  0.00     0.277 HD
HETATM    6  C3  UNL     1     107.534  34.854  81.342  1.00  0.00     0.267 C
HETATM    7  C4  UNL     1     107.013  36.292  81.386  1.00  0.00     0.239 C
HETATM    8  N4  UNL     1     107.929  37.070  80.566  1.00  0.00    -0.066 N
ATOM      9  H41 UNL     1     108.867  36.670  80.589  1.00  0.00     0.277 HD
ATOM     10  H42 UNL     1     108.122  37.975  80.995  1.00  0.00     0.277 HD
HETATM   11  C10 UNL     1     107.473  37.230  79.219  1.00  0.00     0.260 C
HETATM   12  C11 UNL     1     108.633  37.077  78.246  1.00  0.00     0.259 C
HETATM   13  N5  UNL     1     109.247  35.777  78.338  1.00  0.00    -0.072 N
ATOM     14  H51 UNL     1     110.058  35.713  77.722  1.00  0.00     0.277 HD
ATOM     15  H52 UNL     1     109.712  35.657  79.238  1.00  0.00     0.277 HD
ENDROOT
BRANCH   7  16
HETATM   16  C5  UNL     1     107.047  36.837  82.792  1.00  0.00     0.307 C
BRANCH  16  17
HETATM   17  N2  UNL     1     105.766  36.787  83.447  1.00  0.00     0.093 N
HETATM   18  C6  UNL     1     104.758  36.935  82.393  1.00  0.00     0.300 C
HETATM   19  C7  UNL     1     103.363  36.951  82.967  1.00  0.00     0.262 C
HETATM   20  N3  UNL     1     103.116  35.871  83.868  1.00  0.00    -0.072 N
HETATM   21  C8  UNL     1     104.173  35.615  84.799  1.00  0.00     0.262 C
ATOM     22  H32 UNL     1     102.236  36.018  84.363  1.00  0.00     0.277 HD
ATOM     23  H31 UNL     1     102.888  35.022  83.350  1.00  0.00     0.277 HD
HETATM   24  C9  UNL     1     105.512  35.505  84.067  1.00  0.00     0.300 C
ENDBRANCH  16  17
ENDBRANCH   7  16
TORSDOF 2
ENDMDL