MODEL 3
REMARK VINA RESULT: -5.478793133      1.184      1.549
REMARK  4 active torsions:
REMARK  status: ('A' for Active; 'I' for Inactive)
REMARK    1  A    between atoms: N1_2  and  C2_4
REMARK    2  A    between atoms: C2_4  and  N2_6
REMARK    3  A    between atoms: N2_6  and  N3_8
REMARK       I    between atoms: N3_8  and  C3_9
REMARK       I    between atoms: C3_9  and  N4_11
REMARK    4  A    between atoms: N4_11  and  C4_13
ROOT
HETATM    1  N3  UNL     1     108.734  32.732  78.288  1.00  0.00    -0.263 NA
HETATM    2  C3  UNL     1     107.855  33.634  78.733  1.00  0.00     0.415 C
HETATM    3  O1  UNL     1     107.190  34.425  78.000  1.00  0.00    -0.228 OA
HETATM    4  N4  UNL     1     107.596  33.715  80.176  1.00  0.00    -0.280 N
ATOM      5  H4  UNL     1     108.084  33.142  80.863  1.00  0.00     0.169 HD
ENDROOT
BRANCH   1   6
HETATM    6  N2  UNL     1     109.601  31.843  77.844  1.00  0.00    -0.204 N
ATOM      7  H2  UNL     1     110.588  31.966  78.066  1.00  0.00     0.204 HD
BRANCH   6   8
HETATM    8  C2  UNL     1     109.208  30.716  77.067  1.00  0.00     0.196 C
HETATM    9  S1  UNL     1     110.110  29.368  77.066  1.00  0.00    -0.039 SA
BRANCH   8  10
HETATM   10  N1  UNL     1     108.030  30.772  76.290  1.00  0.00    -0.370 N
HETATM   11  C1  UNL     1     107.958  30.370  74.919  1.00  0.00     0.148 C
ATOM     12  H1  UNL     1     107.180  31.120  76.733  1.00  0.00     0.161 HD
ENDBRANCH   8  10
ENDBRANCH   6   8
ENDBRANCH   1   6
BRANCH   4  13
HETATM   13  C4  UNL     1     106.552  34.714  80.543  1.00  0.00     0.433 C
HETATM   14  N5  UNL     1     107.017  36.043  80.526  1.00  0.00    -0.029 N
HETATM   15  C5  UNL     1     106.582  36.655  81.775  1.00  0.00     0.263 C
ATOM     16  H52 UNL     1     108.022  36.115  80.370  1.00  0.00     0.282 HD
ATOM     17  H51 UNL     1     106.722  36.562  79.699  1.00  0.00     0.282 HD
HETATM   18  C6  UNL     1     106.108  35.497  82.592  1.00  0.00     0.200 C
HETATM   19  O2  UNL     1     106.303  34.384  81.868  1.00  0.00    -0.342 OA
ENDBRANCH   4  13
TORSDOF 4
ENDMDL