MODEL 4
REMARK VINA RESULT: -5.106515348      2.061      5.684
REMARK  2 active torsions:
REMARK  status: ('A' for Active; 'I' for Inactive)
REMARK    1  A    between atoms: C2_2  and  C3_3
REMARK    2  A    between atoms: C3_3  and  N1_4
ROOT
HETATM    1  N1  UNL     1     107.525  35.486  80.955  1.00  0.00    -0.290 NA
HETATM    2  C4  UNL     1     106.423  35.798  80.030  1.00  0.00     0.122 C
HETATM    3  C5  UNL     1     105.098  35.270  80.496  1.00  0.00     0.247 C
HETATM    4  N2  UNL     1     104.041  36.261  80.521  1.00  0.00    -0.073 N
ATOM      5  H21 UNL     1     103.553  36.314  79.627  1.00  0.00     0.277 HD
ATOM      6  H22 UNL     1     104.414  37.209  80.550  1.00  0.00     0.277 HD
HETATM    7  C6  UNL     1     103.114  36.007  81.634  1.00  0.00     0.250 C
HETATM    8  C7  UNL     1     102.942  37.258  82.424  1.00  0.00     0.163 C
HETATM    9  N3  UNL     1     103.828  37.390  83.553  1.00  0.00    -0.125 NA
HETATM   10  N4  UNL     1     104.246  36.180  84.099  1.00  0.00    -0.137 N
ATOM     11  H4  UNL     1     103.535  35.458  84.213  1.00  0.00     0.201 HD
HETATM   12  C8  UNL     1     105.560  35.850  84.513  1.00  0.00     0.683 C
HETATM   13  N5  UNL     1     105.711  35.287  85.695  1.00  0.00    -0.234 N
ATOM     14  H51 UNL     1     106.656  35.049  85.993  1.00  0.00     0.174 HD
ATOM     15  H52 UNL     1     104.853  35.132  86.225  1.00  0.00     0.174 HD
HETATM   16  N6  UNL     1     106.751  36.065  83.776  1.00  0.00    -0.224 N
ATOM     17  H6  UNL     1     107.535  35.441  83.970  1.00  0.00     0.177 HD
HETATM   18  C9  UNL     1     106.959  37.085  82.778  1.00  0.00     0.153 C
HETATM   19  C10 UNL     1     107.905  36.705  81.693  1.00  0.00     0.115 C
ENDROOT
BRANCH   1  20
HETATM   20  C3  UNL     1     108.694  35.206  80.164  1.00  0.00     0.059 C
BRANCH  20  21
HETATM   21  C2  UNL     1     108.922  35.979  78.961  1.00  0.00     0.001 C
HETATM   22  C1  UNL     1     109.589  37.083  78.767  1.00  0.00     0.012 C
ENDBRANCH  20  21
ENDBRANCH   1  20
TORSDOF 2
ENDMDL