MODEL 2
REMARK VINA RESULT: -5.809146109      3.432      4.481
REMARK  7 active torsions:
REMARK  status: ('A' for Active; 'I' for Inactive)
REMARK    1  A    between atoms: C2_2  and  O1_3
REMARK    2  A    between atoms: O1_3  and  C3_4
REMARK       I    between atoms: C3_4  and  N1_6
REMARK    3  A    between atoms: N1_6  and  N2_8
REMARK    4  A    between atoms: N2_8  and  C4_10
REMARK    5  A    between atoms: C4_10  and  N3_12
REMARK    6  A    between atoms: N3_12  and  N4_14
REMARK       I    between atoms: N4_14  and  C5_16
REMARK    7  A    between atoms: C5_16  and  C6_18
ROOT
HETATM    1  C4  UNL     1     108.137  35.978  80.500  1.00  0.00     0.205 C
HETATM    2  S1  UNL     1     108.896  36.761  79.249  1.00  0.00    -0.038 SA
ENDROOT
BRANCH   1   3
HETATM    3  N2  UNL     1     107.667  34.656  80.312  1.00  0.00    -0.271 N
ATOM      4  H2  UNL     1     106.697  34.415  80.516  1.00  0.00     0.189 HD
BRANCH   3   5
HETATM    5  N1  UNL     1     108.545  33.704  79.846  1.00  0.00    -0.243 N
HETATM    6  C3  UNL     1     108.365  33.168  78.541  1.00  0.00     0.379 C
HETATM    7  O2  UNL     1     107.414  33.568  77.822  1.00  0.00    -0.237 OA
ATOM      8  H1  UNL     1     109.318  33.386  80.431  1.00  0.00     0.192 HD
BRANCH   6   9
HETATM    9  O1  UNL     1     109.209  32.207  78.023  1.00  0.00    -0.303 OA
BRANCH   9  10
HETATM   10  C2  UNL     1     108.795  31.121  77.241  1.00  0.00     0.176 C
HETATM   11  C1  UNL     1     109.645  29.891  77.509  1.00  0.00     0.034 C
ENDBRANCH   9  10
ENDBRANCH   6   9
ENDBRANCH   3   5
ENDBRANCH   1   3
BRANCH   1  12
HETATM   12  N3  UNL     1     108.001  36.699  81.706  1.00  0.00    -0.272 N
ATOM     13  H3  UNL     1     108.829  36.923  82.258  1.00  0.00     0.189 HD
BRANCH  12  14
HETATM   14  N4  UNL     1     106.753  37.104  82.146  1.00  0.00    -0.263 N
HETATM   15  C5  UNL     1     105.991  36.281  83.000  1.00  0.00     0.274 C
HETATM   16  O3  UNL     1     106.483  35.170  83.361  1.00  0.00    -0.265 OA
ATOM     17  H4  UNL     1     106.381  38.007  81.850  1.00  0.00     0.190 HD
BRANCH  15  18
HETATM   18  C6  UNL     1     104.680  36.633  83.480  1.00  0.00     0.157 C
HETATM   19  N5  UNL     1     104.300  36.349  84.650  1.00  0.00    -0.404 N
ATOM     20  H52 UNL     1     104.952  35.856  85.260  1.00  0.00     0.155 HD
ATOM     21  H51 UNL     1     103.371  36.597  84.991  1.00  0.00     0.155 HD
ENDBRANCH  15  18
ENDBRANCH  12  14
ENDBRANCH   1  12
TORSDOF 7
ENDMDL