MODEL 4
REMARK VINA RESULT: -5.829070211      4.915      5.699
REMARK  3 active torsions:
REMARK  status: ('A' for Active; 'I' for Inactive)
REMARK    1  A    between atoms: C2_2  and  C3_3
REMARK    2  A    between atoms: C3_3  and  C4_4
REMARK       I    between atoms: C4_4  and  N1_6
REMARK    3  A    between atoms: N1_6  and  N2_8
REMARK       I    between atoms: N2_8  and  C5_10
REMARK       I    between atoms: C5_10  and  N3_12
ROOT
HETATM    1  N2  UNL     1     107.631  34.714  79.857  1.00  0.00    -0.247 N
ATOM      2  H2  UNL     1     107.541  35.600  79.360  1.00  0.00     0.192 HD
HETATM    3  C5  UNL     1     106.728  34.405  80.903  1.00  0.00     0.358 C
HETATM    4  O2  UNL     1     106.867  33.310  81.499  1.00  0.00    -0.243 OA
HETATM    5  N3  UNL     1     105.713  35.348  81.225  1.00  0.00    -0.204 N
HETATM    6  C6  UNL     1     104.806  35.023  82.317  1.00  0.00     0.207 C
HETATM    7  N4  UNL     1     104.295  36.197  82.903  1.00  0.00    -0.363 N
ATOM      8  H4  UNL     1     104.333  36.342  83.912  1.00  0.00     0.165 HD
HETATM    9  C7  UNL     1     103.731  37.164  82.050  1.00  0.00     0.079 C
HETATM   10  C8  UNL     1     104.243  37.089  80.633  1.00  0.00     0.180 C
HETATM   11  N5  UNL     1     105.565  36.538  80.539  1.00  0.00    -0.124 NA
ENDROOT
BRANCH   1  12
HETATM   12  N1  UNL     1     108.644  33.819  79.497  1.00  0.00    -0.266 N
HETATM   13  C4  UNL     1     108.488  33.016  78.347  1.00  0.00     0.236 C
HETATM   14  O1  UNL     1     107.455  33.101  77.663  1.00  0.00    -0.272 OA
ATOM     15  H1  UNL     1     109.491  33.747  80.062  1.00  0.00     0.190 HD
BRANCH  13  16
HETATM   16  C3  UNL     1     109.562  32.084  77.971  1.00  0.00     0.104 C
BRANCH  16  17
HETATM   17  C2  UNL     1     108.934  30.966  77.158  1.00  0.00     0.005 C
HETATM   18  C1  UNL     1     109.663  29.673  77.466  1.00  0.00     0.005 C
ENDBRANCH  16  17
ENDBRANCH  13  16
ENDBRANCH   1  12
TORSDOF 3
ENDMDL