MODEL 3
REMARK VINA RESULT: -5.107443243      1.532      1.829
REMARK  2 active torsions:
REMARK  status: ('A' for Active; 'I' for Inactive)
REMARK       I    between atoms: C1_2  and  N1_3
REMARK    1  A    between atoms: C1_2  and  C5_11
REMARK    2  A    between atoms: N1_3  and  C2_5
ROOT
HETATM    1  C5  UNL     1     108.271  33.850  79.373  1.00  0.00     0.212 C
HETATM    2  C6  UNL     1     106.965  34.072  80.049  1.00  0.00     0.090 C
HETATM    3  N3  UNL     1     106.882  34.417  81.401  1.00  0.00    -0.395 N
ATOM      4  H3  UNL     1     107.057  33.690  82.095  1.00  0.00     0.159 HD
HETATM    5  C7  UNL     1     106.570  35.719  81.863  1.00  0.00     0.162 C
HETATM    6  C8  UNL     1     107.702  36.684  82.087  1.00  0.00     0.075 C
HETATM    7  N4  UNL     1     107.974  37.693  81.148  1.00  0.00    -0.396 N
ATOM      8  H4  UNL     1     107.530  38.609  81.218  1.00  0.00     0.159 HD
HETATM    9  C9  UNL     1     108.928  37.389  80.049  1.00  0.00     0.162 C
HETATM   10  C10 UNL     1     108.604  36.018  79.751  1.00  0.00     0.076 C
HETATM   11  N5  UNL     1     108.942  35.068  78.828  1.00  0.00    -0.384 N
ATOM     12  H5  UNL     1     109.507  35.165  77.984  1.00  0.00     0.159 HD
ENDROOT
BRANCH   1  13
HETATM   13  C1  UNL     1     108.224  32.852  78.281  1.00  0.00     0.247 C
HETATM   14  O1  UNL     1     107.348  32.939  77.374  1.00  0.00    -0.271 OA
HETATM   15  N1  UNL     1     109.147  31.790  78.224  1.00  0.00    -0.331 N
ATOM     16  H1  UNL     1     109.864  31.700  78.944  1.00  0.00     0.164 HD
BRANCH  15  17
HETATM   17  C2  UNL     1     109.079  30.835  77.157  1.00  0.00     0.288 C
HETATM   18  C3  UNL     1     110.360  30.697  76.339  1.00  0.00     0.082 C
HETATM   19  C4  UNL     1     109.941  29.235  76.286  1.00  0.00     0.238 C
HETATM   20  N2  UNL     1     109.244  29.447  77.544  1.00  0.00    -0.054 N
ATOM     21  H22 UNL     1     109.680  29.199  78.432  1.00  0.00     0.279 HD
ATOM     22  H21 UNL     1     108.440  28.875  77.800  1.00  0.00     0.279 HD
ENDBRANCH  15  17
ENDBRANCH   1  13
TORSDOF 2
ENDMDL