MODEL 5
REMARK VINA RESULT: -5.268643921      6.370      7.705
REMARK  2 active torsions:
REMARK  status: ('A' for Active; 'I' for Inactive)
REMARK    1  A    between atoms: N1_2  and  N2_3
REMARK       I    between atoms: N2_3  and  C2_5
REMARK       I    between atoms: C2_5  and  N3_7
REMARK    2  A    between atoms: N3_7  and  N4_9
ROOT
HETATM    1  N4  UNL     1     108.051  38.482  77.307  1.00  0.00    -0.128 N
ATOM      2  H4  UNL     1     107.839  39.137  78.060  1.00  0.00     0.205 HD
HETATM    3  C3  UNL     1     108.048  38.908  76.092  1.00  0.00     0.699 A
HETATM    4  N5  UNL     1     108.296  38.226  74.959  1.00  0.00    -0.190 N
ATOM      5  H5  UNL     1     108.534  37.237  74.894  1.00  0.00     0.184 HD
HETATM    6  C4  UNL     1     108.176  39.088  73.918  1.00  0.00     0.072 A
HETATM    7  C5  UNL     1     107.846  40.311  74.452  1.00  0.00     0.142 A
HETATM    8  N6  UNL     1     107.768  40.196  75.791  1.00  0.00    -0.173 N
ATOM      9  H6  UNL     1     107.542  40.939  76.453  1.00  0.00     0.186 HD
HETATM   10  N7  UNL     1     107.701  41.273  73.392  1.00  0.00    -0.369 N
HETATM   11  C6  UNL     1     107.862  42.687  73.574  1.00  0.00     0.151 C
HETATM   12  C7  UNL     1     107.379  40.474  72.229  1.00  0.00     0.130 C
HETATM   13  C8  UNL     1     108.254  39.257  72.446  1.00  0.00     0.081 C
ENDROOT
BRANCH   1  14
HETATM   14  N3  UNL     1     108.334  37.157  77.627  1.00  0.00    -0.236 N
HETATM   15  C2  UNL     1     108.224  36.688  78.957  1.00  0.00     0.350 C
HETATM   16  N2  UNL     1     108.520  35.335  79.243  1.00  0.00    -0.255 N
HETATM   17  O1  UNL     1     107.866  37.470  79.877  1.00  0.00    -0.244 OA
ATOM     18  H2  UNL     1     108.810  34.693  78.505  1.00  0.00     0.187 HD
ATOM     19  H3  UNL     1     108.625  36.514  76.890  1.00  0.00     0.192 HD
BRANCH  16  20
HETATM   20  N1  UNL     1     108.398  34.900  80.587  1.00  0.00    -0.142 NA
HETATM   21  C1  UNL     1     107.281  33.983  80.636  1.00  0.00     0.159 C
ENDBRANCH  16  20
ENDBRANCH   1  14
TORSDOF 2
ENDMDL