MODEL 4
REMARK VINA RESULT: -5.811664124      2.062      2.659
REMARK  2 active torsions:
REMARK  status: ('A' for Active; 'I' for Inactive)
REMARK    1  A    between atoms: C2_2  and  N1_4
REMARK       I    between atoms: N1_4  and  C4_6
REMARK       I    between atoms: C4_6  and  N6_18
REMARK    2  A    between atoms: N2_7  and  C5_9
ROOT
HETATM    1  N1  UNL     1     108.962  34.094  78.960  1.00  0.00    -0.222 N
ATOM      2  H1  UNL     1     109.944  34.043  78.687  1.00  0.00     0.178 HD
HETATM    3  C4  UNL     1     108.556  35.194  79.758  1.00  0.00     0.686 C
HETATM    4  N2  UNL     1     107.804  35.075  80.791  1.00  0.00    -0.182 N
ATOM      5  H2  UNL     1     107.502  34.129  81.021  1.00  0.00     0.181 HD
HETATM    6  N6  UNL     1     109.025  36.477  79.362  1.00  0.00    -0.126 N
ATOM      7  H6  UNL     1     109.860  36.841  79.821  1.00  0.00     0.197 HD
HETATM    8  C8  UNL     1     108.425  37.265  78.396  1.00  0.00     0.196 C
HETATM    9  N7  UNL     1     107.922  37.916  77.567  1.00  0.00    -0.171 NA
ENDROOT
BRANCH   1  10
HETATM   10  C2  UNL     1     108.092  33.051  78.512  1.00  0.00     0.091 C
HETATM   11  C1  UNL     1     108.853  31.906  77.878  1.00  0.00     0.032 C
HETATM   12  C3  UNL     1     107.060  33.511  77.515  1.00  0.00     0.032 C
ENDBRANCH   1  10
BRANCH   4  13
HETATM   13  C5  UNL     1     107.346  36.099  81.645  1.00  0.00     0.213 C
HETATM   14  C6  UNL     1     108.359  37.080  82.114  1.00  0.00     0.086 C
HETATM   15  N3  UNL     1     106.787  35.463  82.850  1.00  0.00    -0.083 NA
HETATM   16  N4  UNL     1     105.457  35.218  82.555  1.00  0.00    -0.252 N
HETATM   17  C7  UNL     1     105.058  36.012  81.431  1.00  0.00     0.334 C
ATOM     18  H4  UNL     1     104.853  34.570  83.061  1.00  0.00     0.187 HD
HETATM   19  O1  UNL     1     103.925  35.999  80.863  1.00  0.00    -0.246 OA
HETATM   20  N5  UNL     1     106.196  36.801  81.099  1.00  0.00    -0.300 N
ATOM     21  H5  UNL     1     106.203  37.681  80.583  1.00  0.00     0.168 HD
ENDBRANCH   4  13
TORSDOF 2
ENDMDL