MODEL 3
REMARK VINA RESULT: -8.557005988      4.290      9.659
REMARK  18 active torsions:
REMARK  status: ('A' for Active; 'I' for Inactive)
REMARK    1  A    between atoms: O1_2  and  C2_3
REMARK    2  A    between atoms: C2_3  and  C3_5
REMARK    3  A    between atoms: C5_8  and  O4_9
REMARK    4  A    between atoms: C9_18  and  O8_19
REMARK    5  A    between atoms: C9_18  and  N1_21
REMARK    6  A    between atoms: N1_21  and  C10_24
REMARK    7  A    between atoms: C10_24  and  S2_25
REMARK    8  A    between atoms: S2_25  and  C11_26
REMARK    9  A    between atoms: C11_26  and  C12_27
REMARK   10  A    between atoms: C12_27  and  C13_28
REMARK   11  A    between atoms: C12_27  and  C15_32
REMARK   12  A    between atoms: C13_28  and  O10_30
REMARK   13  A    between atoms: C15_32  and  O12_34
REMARK   14  A    between atoms: O12_34  and  C16_35
REMARK   15  A    between atoms: C18_37  and  O13_38
REMARK   16  A    between atoms: C18_37  and  C19_40
REMARK   17  A    between atoms: C21_45  and  O16_46
REMARK   18  A    between atoms: C21_45  and  C22_48
ROOT
HETATM    1  S2  UNL     1      49.216  31.119 -10.590  1.00  0.00    -0.140 SA
ENDROOT
BRANCH   1   2
HETATM    2  C10 UNL     1      50.833  30.733  -9.864  1.00  0.00     0.310 C
BRANCH   2   3
HETATM    3  N1  UNL     1      50.853  29.384  -9.433  1.00  0.00    -0.025 N
ATOM      4  H12 UNL     1      50.133  28.846  -9.917  1.00  0.00     0.282 HD
ATOM      5  H11 UNL     1      50.511  29.312  -8.475  1.00  0.00     0.282 HD
BRANCH   3   6
HETATM    6  C9  UNL     1      52.135  28.731  -9.559  1.00  0.00     0.311 C
HETATM    7  C3  UNL     1      52.760  29.131 -10.814  1.00  0.00     0.106 C
HETATM    8  C4  UNL     1      53.741  30.009 -10.841  1.00  0.00     0.156 C
HETATM    9  O3  UNL     1      54.187  30.570  -9.670  1.00  0.00    -0.327 OA
HETATM   10  C5  UNL     1      54.079  29.884  -8.460  1.00  0.00     0.318 C
HETATM   11  C6  UNL     1      53.006  28.852  -8.379  1.00  0.00     0.276 C
HETATM   12  O5  UNL     1      52.213  29.026  -7.212  1.00  0.00    -0.355 OA
HETATM   13  S1  UNL     1      53.744  27.281  -7.863  1.00  0.00     0.189 S
HETATM   14  C7  UNL     1      52.996  28.971  -6.115  1.00  0.00     0.185 C
HETATM   15  C8  UNL     1      53.942  27.798  -6.139  1.00  0.00     0.170 C
HETATM   16  O6  UNL     1      52.788  26.154  -7.951  1.00  0.00    -0.224 OA
HETATM   17  O7  UNL     1      55.040  27.031  -8.520  1.00  0.00    -0.224 OA
BRANCH   7  18
HETATM   18  C2  UNL     1      52.343  28.579 -12.121  1.00  0.00     0.295 C
HETATM   19  O2  UNL     1      53.155  28.540 -13.074  1.00  0.00    -0.259 OA
BRANCH  18  20
HETATM   20  O1  UNL     1      51.047  28.101 -12.302  1.00  0.00    -0.323 OA
HETATM   21  C1  UNL     1      50.897  26.921 -13.106  1.00  0.00     0.213 C
ENDBRANCH  18  20
ENDBRANCH   7  18
BRANCH  10  22
HETATM   22  O4  UNL     1      55.344  29.378  -8.154  1.00  0.00    -0.367 OA
ATOM     23  H4  UNL     1      55.849  30.089  -7.775  1.00  0.00     0.212 HD
ENDBRANCH  10  22
BRANCH   6  24
HETATM   24  O8  UNL     1      51.818  27.351  -9.716  1.00  0.00    -0.358 OA
ATOM     25  H8  UNL     1      51.033  27.212  -9.201  1.00  0.00     0.213 HD
ENDBRANCH   6  24
ENDBRANCH   3   6
ENDBRANCH   2   3
ENDBRANCH   1   2
BRANCH   1  26
HETATM   26  C11 UNL     1      49.095  32.893 -10.812  1.00  0.00     0.100 C
BRANCH  26  27
HETATM   27  C12 UNL     1      47.874  33.510 -10.157  1.00  0.00     0.194 C
BRANCH  27  28
HETATM   28  C13 UNL     1      47.106  34.300 -11.184  1.00  0.00     0.273 C
HETATM   29  O9  UNL     1      47.612  34.511 -12.311  1.00  0.00    -0.264 OA
BRANCH  28  30
HETATM   30  O10 UNL     1      45.849  34.806 -10.919  1.00  0.00    -0.326 OA
HETATM   31  C14 UNL     1      44.709  34.338 -11.615  1.00  0.00     0.213 C
ENDBRANCH  28  30
ENDBRANCH  27  28
BRANCH  27  32
HETATM   32  C15 UNL     1      48.394  34.402  -9.091  1.00  0.00     0.278 C
HETATM   33  O11 UNL     1      48.050  34.235  -7.886  1.00  0.00    -0.264 OA
BRANCH  32  34
HETATM   34  O12 UNL     1      49.259  35.422  -9.391  1.00  0.00    -0.278 OA
BRANCH  34  35
HETATM   35  C16 UNL     1      49.960  36.143  -8.438  1.00  0.00     0.112 C
HETATM   36  C17 UNL     1      49.366  37.083  -7.734  1.00  0.00     0.060 C
HETATM   37  C18 UNL     1      50.034  37.896  -6.703  1.00  0.00     0.174 C
HETATM   38  C20 UNL     1      50.723  37.076  -5.634  1.00  0.00     0.131 C
HETATM   39  S3  UNL     1      51.774  35.853  -6.439  1.00  0.00    -0.110 SA
HETATM   40  C21 UNL     1      51.395  35.856  -8.207  1.00  0.00     0.245 C
BRANCH  37  41
HETATM   41  O13 UNL     1      50.940  38.801  -7.227  1.00  0.00    -0.374 OA
ATOM     42  H13 UNL     1      51.842  38.596  -7.010  1.00  0.00     0.211 HD
ENDBRANCH  37  41
BRANCH  37  43
HETATM   43  C19 UNL     1      48.993  38.705  -5.983  1.00  0.00     0.214 C
HETATM   44  O14 UNL     1      48.419  38.154  -5.013  1.00  0.00    -0.645 OA
HETATM   45  O15 UNL     1      48.660  39.983  -6.336  1.00  0.00    -0.645 OA
ENDBRANCH  37  43
BRANCH  40  46
HETATM   46  O16 UNL     1      52.206  36.776  -8.897  1.00  0.00    -0.365 OA
ATOM     47  H16 UNL     1      52.619  36.365  -9.647  1.00  0.00     0.212 HD
ENDBRANCH  40  46
BRANCH  40  48
HETATM   48  C22 UNL     1      51.791  34.503  -8.722  1.00  0.00     0.227 C
HETATM   49  O17 UNL     1      51.781  33.571  -7.892  1.00  0.00    -0.645 OA
HETATM   50  O18 UNL     1      52.152  34.267 -10.027  1.00  0.00    -0.645 OA
ENDBRANCH  40  48
ENDBRANCH  34  35
ENDBRANCH  32  34
ENDBRANCH  27  32
ENDBRANCH  26  27
ENDBRANCH   1  26
TORSDOF 18
ENDMDL