MODEL 1
REMARK VINA RESULT: -9.173723725      0.000      0.000
REMARK  14 active torsions:
REMARK  status: ('A' for Active; 'I' for Inactive)
REMARK    1  A    between atoms: C4_4  and  N1_5
REMARK    2  A    between atoms: C6_9  and  C7_10
REMARK    3  A    between atoms: C8_15  and  C9_16
REMARK    4  A    between atoms: C9_16  and  N5_17
REMARK    5  A    between atoms: N5_17  and  S1_19
REMARK    6  A    between atoms: S1_19  and  N6_20
REMARK    7  A    between atoms: C10_28  and  O4_30
REMARK    8  A    between atoms: C12_32  and  O5_33
REMARK    9  A    between atoms: C14_37  and  C15_38
REMARK   10  A    between atoms: C15_38  and  C16_39
REMARK   11  A    between atoms: C16_39  and  N8_40
REMARK       I    between atoms: N8_40  and  C17_42
REMARK   12  A    between atoms: C17_42  and  C18_44
REMARK   13  A    between atoms: C19_45  and  O8_46
REMARK   14  A    between atoms: N10_52  and  C21_53
ROOT
HETATM    1  C21 UNL     1      40.377  30.872 -16.644  1.00  0.00     0.258 C
HETATM    2  C22 UNL     1      41.306  31.847 -17.232  1.00  0.00     0.079 C
HETATM    3  N11 UNL     1      42.026  32.632 -17.703  1.00  0.00    -0.196 NA
ENDROOT
BRANCH   1   4
HETATM    4  N10 UNL     1      39.182  30.695 -17.412  1.00  0.00    -0.278 N
HETATM    5  C18 UNL     1      38.011  31.375 -17.348  1.00  0.00     0.159 A
HETATM    6  C19 UNL     1      37.141  30.825 -18.271  1.00  0.00     0.177 A
HETATM    7  N9  UNL     1      37.808  29.807 -18.888  1.00  0.00    -0.287 N
HETATM    8  C20 UNL     1      39.032  29.734 -18.369  1.00  0.00     0.330 A
ATOM      9  H9  UNL     1      37.434  29.206 -19.621  1.00  0.00     0.172 HD
HETATM   10  O9  UNL     1      39.940  28.904 -18.699  1.00  0.00    -0.246 OA
BRANCH   5  11
HETATM   11  C17 UNL     1      37.790  32.490 -16.443  1.00  0.00     0.272 C
HETATM   12  N8  UNL     1      38.193  33.788 -16.763  1.00  0.00    -0.355 N
ATOM     13  H8  UNL     1      38.658  33.951 -17.656  1.00  0.00     0.162 HD
HETATM   14  O7  UNL     1      37.230  32.305 -15.344  1.00  0.00    -0.266 OA
BRANCH  12  15
HETATM   15  C16 UNL     1      37.973  34.934 -15.858  1.00  0.00     0.125 C
BRANCH  15  16
HETATM   16  C15 UNL     1      39.141  35.803 -15.770  1.00  0.00     0.054 C
BRANCH  16  17
HETATM   17  C14 UNL     1      40.366  35.234 -15.114  1.00  0.00     0.149 C
HETATM   18  C13 UNL     1      40.929  36.131 -14.037  1.00  0.00     0.203 C
HETATM   19  O6  UNL     1      42.300  35.922 -13.930  1.00  0.00    -0.348 OA
HETATM   20  C12 UNL     1      42.692  35.718 -12.609  1.00  0.00     0.227 C
HETATM   21  C2  UNL     1      42.414  34.307 -12.201  1.00  0.00     0.121 C
HETATM   22  C10 UNL     1      44.171  35.974 -12.427  1.00  0.00     0.137 C
HETATM   23  C1  UNL     1      41.510  34.190 -11.001  1.00  0.00     0.052 C
HETATM   24  C3  UNL     1      43.781  33.770 -11.750  1.00  0.00     0.075 C
HETATM   25  O11 UNL     1      42.022  33.582 -13.284  1.00  0.00    -0.351 OA
HETATM   26  C4  UNL     1      44.540  35.021 -11.339  1.00  0.00     0.169 C
HETATM   27  C23 UNL     1      40.658  33.556 -13.518  1.00  0.00     0.339 C
HETATM   28  O10 UNL     1      40.279  33.923 -14.769  1.00  0.00    -0.359 OA
HETATM   29  C11 UNL     1      44.381  37.389 -11.954  1.00  0.00     0.054 C
BRANCH  20  30
HETATM   30  O5  UNL     1      42.016  36.562 -11.723  1.00  0.00    -0.361 OA
ATOM     31  H5  UNL     1      41.844  37.380 -12.174  1.00  0.00     0.213 HD
ENDBRANCH  20  30
BRANCH  26  32
HETATM   32  N1  UNL     1      45.938  34.684 -11.295  1.00  0.00    -0.226 N
HETATM   33  N2  UNL     1      46.571  34.171 -12.363  1.00  0.00    -0.293 N
HETATM   34  C5  UNL     1      47.840  33.963 -12.023  1.00  0.00     0.144 A
ATOM     35  H2  UNL     1      46.153  33.976 -13.272  1.00  0.00     0.187 HD
HETATM   36  C6  UNL     1      48.008  34.355 -10.712  1.00  0.00     0.119 A
HETATM   37  N7  UNL     1      46.814  34.793 -10.296  1.00  0.00    -0.278 N
ATOM     38  H7  UNL     1      46.608  35.153  -9.364  1.00  0.00     0.189 HD
BRANCH  36  39
HETATM   39  C7  UNL     1      49.251  34.296  -9.941  1.00  0.00     0.194 A
HETATM   40  N3  UNL     1      50.351  33.607 -10.206  1.00  0.00    -0.276 N
HETATM   41  N4  UNL     1      51.229  33.850  -9.236  1.00  0.00    -0.280 N
ATOM     42  H3  UNL     1      50.499  32.998 -11.011  1.00  0.00     0.189 HD
HETATM   43  C8  UNL     1      50.665  34.697  -8.364  1.00  0.00     0.159 A
ATOM     44  H4  UNL     1      52.169  33.460  -9.168  1.00  0.00     0.189 HD
HETATM   45  O3  UNL     1      49.478  34.944  -8.819  1.00  0.00    -0.274 OA
BRANCH  43  46
HETATM   46  C9  UNL     1      51.292  35.239  -7.125  1.00  0.00     0.219 C
BRANCH  46  47
HETATM   47  N5  UNL     1      50.921  36.643  -6.974  1.00  0.00    -0.295 N
ATOM     48  H5  UNL     1      51.358  37.430  -7.454  1.00  0.00     0.174 HD
BRANCH  47  49
HETATM   49  S1  UNL     1      49.617  36.747  -5.844  1.00  0.00     0.313 S
HETATM   50  O1  UNL     1      49.663  35.481  -5.004  1.00  0.00    -0.183 OA
HETATM   51  O2  UNL     1      49.768  37.891  -4.900  1.00  0.00    -0.183 OA
BRANCH  49  52
HETATM   52  N6  UNL     1      48.098  36.811  -6.686  1.00  0.00    -0.312 N
ATOM     53  H62 UNL     1      47.331  37.435  -6.434  1.00  0.00     0.170 HD
ATOM     54  H61 UNL     1      48.093  36.140  -7.454  1.00  0.00     0.170 HD
ENDBRANCH  49  52
ENDBRANCH  47  49
ENDBRANCH  46  47
ENDBRANCH  43  46
ENDBRANCH  36  39
ENDBRANCH  26  32
BRANCH  22  55
HETATM   55  O4  UNL     1      44.885  35.761 -13.601  1.00  0.00    -0.382 OA
ATOM     56  H4  UNL     1      44.351  35.404 -14.301  1.00  0.00     0.210 HD
ENDBRANCH  22  55
ENDBRANCH  16  17
ENDBRANCH  15  16
ENDBRANCH  12  15
ENDBRANCH   5  11
BRANCH   6  57
HETATM   57  O8  UNL     1      35.840  31.191 -18.557  1.00  0.00    -0.344 OA
ATOM     58  H8  UNL     1      35.105  30.637 -18.795  1.00  0.00     0.219 HD
ENDBRANCH   6  57
ENDBRANCH   1   4
TORSDOF 14
ENDMDL