MODEL 1
REMARK VINA RESULT: -8.691187945      0.000      0.000
REMARK  15 active torsions:
REMARK  status: ('A' for Active; 'I' for Inactive)
REMARK    1  A    between atoms: C3_3  and  C4_7
REMARK    2  A    between atoms: C4_7  and  O1_8
REMARK    3  A    between atoms: O1_8  and  N2_9
REMARK    4  A    between atoms: C5_11  and  S1_12
REMARK    5  A    between atoms: C5_11  and  C25_53
REMARK    6  A    between atoms: S1_12  and  S2_13
REMARK    7  A    between atoms: S2_13  and  C6_14
REMARK    8  A    between atoms: C8_19  and  N4_20
REMARK    9  A    between atoms: C12_28  and  C13_29
REMARK   10  A    between atoms: C14_30  and  C15_31
REMARK   11  A    between atoms: C17_37  and  C18_38
REMARK   12  A    between atoms: C18_38  and  O6_40
REMARK   13  A    between atoms: C24_50  and  O7_51
REMARK   14  A    between atoms: C25_53  and  O8_54
REMARK   15  A    between atoms: C25_53  and  N10_56
ROOT
HETATM    1  C1  UNL     1      53.116  27.277  -0.961  1.00  0.00     0.019 C
HETATM    2  C2  UNL     1      53.555  27.475  -2.070  1.00  0.00    -0.062 C
HETATM    3  C3  UNL     1      54.067  27.718  -3.385  1.00  0.00     0.082 C
HETATM    4  N1  UNL     1      55.131  27.094  -3.745  1.00  0.00    -0.394 N
ATOM      5  H11 UNL     1      55.497  27.267  -4.681  1.00  0.00     0.156 HD
ATOM      6  H12 UNL     1      55.619  26.438  -3.135  1.00  0.00     0.156 HD
ENDROOT
BRANCH   3   7
HETATM    7  C4  UNL     1      53.358  28.670  -4.270  1.00  0.00     0.267 C
BRANCH   7   8
HETATM    8  O1  UNL     1      54.299  29.425  -5.006  1.00  0.00    -0.273 OA
BRANCH   8   9
HETATM    9  N2  UNL     1      54.293  29.545  -6.354  1.00  0.00    -0.259 N
HETATM   10  C5  UNL     1      55.326  29.827  -7.069  1.00  0.00     0.135 C
ATOM     11  H2  UNL     1      53.406  29.401  -6.838  1.00  0.00     0.195 HD
BRANCH  10  12
HETATM   12  S1  UNL     1      55.143  29.946  -8.817  1.00  0.00    -0.037 SA
BRANCH  12  13
HETATM   13  S2  UNL     1      53.460  28.831  -9.442  1.00  0.00    -0.082 SA
BRANCH  13  14
HETATM   14  C6  UNL     1      52.506  29.821 -10.615  1.00  0.00     0.117 C
HETATM   15  C7  UNL     1      51.317  28.983 -11.026  1.00  0.00     0.253 C
HETATM   16  N3  UNL     1      50.143  29.773 -10.862  1.00  0.00    -0.050 N
HETATM   17  C8  UNL     1      50.446  30.850  -9.951  1.00  0.00     0.326 C
ATOM     18  H32 UNL     1      49.766  30.105 -11.750  1.00  0.00     0.279 HD
ATOM     19  H31 UNL     1      49.338  29.223 -10.566  1.00  0.00     0.279 HD
HETATM   20  C24 UNL     1      51.921  30.997  -9.866  1.00  0.00     0.185 C
BRANCH  17  21
HETATM   21  N4  UNL     1      49.744  32.075 -10.291  1.00  0.00    -0.249 N
HETATM   22  C9  UNL     1      48.913  32.347 -11.285  1.00  0.00     0.333 A
HETATM   23  O2  UNL     1      48.562  31.520 -12.181  1.00  0.00    -0.246 OA
HETATM   24  N5  UNL     1      48.476  33.637 -11.228  1.00  0.00    -0.286 N
HETATM   25  C10 UNL     1      47.559  34.270 -12.157  1.00  0.00     0.163 C
HETATM   26  C11 UNL     1      49.056  34.205 -10.151  1.00  0.00     0.157 A
HETATM   27  N6  UNL     1      49.011  35.426  -9.593  1.00  0.00    -0.336 N
HETATM   28  C23 UNL     1      49.841  33.233  -9.572  1.00  0.00     0.159 A
HETATM   29  C12 UNL     1      49.701  35.735  -8.496  1.00  0.00     0.085 A
ATOM     30  H6  UNL     1      48.428  36.142 -10.026  1.00  0.00     0.168 HD
HETATM   31  C21 UNL     1      50.498  34.784  -7.892  1.00  0.00     0.036 A
HETATM   32  C22 UNL     1      51.287  35.064  -6.664  1.00  0.00     0.070 C
HETATM   33  N9  UNL     1      50.533  33.557  -8.467  1.00  0.00    -0.341 N
ATOM     34  H9  UNL     1      51.117  32.839  -8.036  1.00  0.00     0.167 HD
BRANCH  29  35
HETATM   35  C13 UNL     1      49.611  37.082  -7.918  1.00  0.00     0.093 C
HETATM   36  C14 UNL     1      50.417  38.122  -8.043  1.00  0.00     0.145 C
HETATM   37  N7  UNL     1      49.917  39.223  -7.286  1.00  0.00    -0.286 N
HETATM   38  C16 UNL     1      49.546  40.443  -6.694  1.00  0.00     0.236 C
HETATM   39  C20 UNL     1      49.090  38.577  -6.236  1.00  0.00     0.208 C
HETATM   40  O5  UNL     1      50.052  41.583  -6.644  1.00  0.00    -0.272 OA
HETATM   41  C17 UNL     1      48.274  39.843  -6.129  1.00  0.00     0.149 C
HETATM   42  N8  UNL     1      48.540  37.515  -7.042  1.00  0.00    -0.363 N
ATOM     43  H8  UNL     1      47.591  37.143  -7.004  1.00  0.00     0.162 HD
BRANCH  36  44
HETATM   44  C15 UNL     1      51.642  38.224  -8.809  1.00  0.00     0.229 C
HETATM   45  O3  UNL     1      52.194  39.307  -9.060  1.00  0.00    -0.643 OA
HETATM   46  O4  UNL     1      52.280  37.075  -9.320  1.00  0.00    -0.643 OA
ENDBRANCH  36  44
BRANCH  41  47
HETATM   47  C18 UNL     1      47.963  40.320  -4.749  1.00  0.00     0.131 C
HETATM   48  C19 UNL     1      47.274  41.656  -4.747  1.00  0.00     0.040 C
BRANCH  47  49
HETATM   49  O6  UNL     1      47.086  39.394  -4.162  1.00  0.00    -0.395 OA
ATOM     50  H6  UNL     1      47.328  38.528  -4.469  1.00  0.00     0.210 HD
ENDBRANCH  47  49
ENDBRANCH  41  47
ENDBRANCH  29  35
ENDBRANCH  17  21
BRANCH  20  51
HETATM   51  O7  UNL     1      52.366  31.023  -8.533  1.00  0.00    -0.390 OA
ATOM     52  H7  UNL     1      52.232  31.879  -8.143  1.00  0.00     0.210 HD
ENDBRANCH  20  51
ENDBRANCH  13  14
ENDBRANCH  12  13
ENDBRANCH  10  12
BRANCH  10  53
HETATM   53  C25 UNL     1      56.615  30.039  -6.398  1.00  0.00     0.378 C
BRANCH  53  54
HETATM   54  O8  UNL     1      57.442  30.884  -7.175  1.00  0.00    -0.365 OA
ATOM     55  H8  UNL     1      57.845  31.548  -6.627  1.00  0.00     0.212 HD
ENDBRANCH  53  54
BRANCH  53  56
HETATM   56  N10 UNL     1      57.354  28.865  -6.077  1.00  0.00    -0.047 N
HETATM   57  C26 UNL     1      57.039  27.746  -6.950  1.00  0.00     0.270 C
ATOM     58 2H10 UNL     1      58.356  29.055  -6.071  1.00  0.00     0.280 HD
ATOM     59 1H10 UNL     1      57.228  28.611  -5.097  1.00  0.00     0.280 HD
ENDBRANCH  53  56
ENDBRANCH  10  53
ENDBRANCH   8   9
ENDBRANCH   7   8
ENDBRANCH   3   7
TORSDOF 15
ENDMDL