MODEL 4
REMARK VINA RESULT: -7.505473742      1.851      2.685
REMARK  13 active torsions:
REMARK  status: ('A' for Active; 'I' for Inactive)
REMARK    1  A    between atoms: S1_2  and  C2_3
REMARK    2  A    between atoms: N1_7  and  O2_9
REMARK    3  A    between atoms: C5_11  and  S2_12
REMARK    4  A    between atoms: S2_12  and  C6_13
REMARK    5  A    between atoms: C7_14  and  C8_15
REMARK    6  A    between atoms: C10_23  and  C11_24
REMARK       I    between atoms: N4_26  and  C13_28
REMARK    7  A    between atoms: C13_28  and  C14_30
REMARK    8  A    between atoms: C14_30  and  C15_31
REMARK    9  A    between atoms: C14_30  and  O7_34
REMARK   10  A    between atoms: C15_31  and  O6_32
REMARK   11  A    between atoms: O7_34  and  C16_35
REMARK   12  A    between atoms: C16_35  and  C17_36
REMARK   13  A    between atoms: C21_52  and  O10_53
ROOT
HETATM    1  C6  UNL     1      49.976  32.787 -10.207  1.00  0.00     0.104 C
HETATM    2  C7  UNL     1      50.724  33.557  -9.361  1.00  0.00     0.154 C
HETATM    3  N2  UNL     1      50.007  34.635  -8.824  1.00  0.00    -0.256 N
HETATM    4  C9  UNL     1      50.772  35.158  -7.800  1.00  0.00     0.104 C
HETATM    5  N3  UNL     1      51.717  35.709  -8.268  1.00  0.00    -0.387 N
ATOM      6  H31 UNL     1      52.281  36.096  -7.511  1.00  0.00     0.157 HD
ATOM      7  H32 UNL     1      52.022  35.770  -9.239  1.00  0.00     0.157 HD
HETATM    8  C10 UNL     1      50.313  35.067  -6.336  1.00  0.00     0.191 C
HETATM    9  C18 UNL     1      48.845  34.805  -6.292  1.00  0.00     0.239 C
HETATM   10  O8  UNL     1      48.432  34.889  -5.090  1.00  0.00    -0.272 OA
HETATM   11  N9  UNL     1      47.746  34.490  -7.172  1.00  0.00    -0.321 N
ATOM     12  H9  UNL     1      46.820  34.785  -6.865  1.00  0.00     0.169 HD
HETATM   13  C19 UNL     1      47.811  33.845  -8.362  1.00  0.00     0.130 C
HETATM   14  C20 UNL     1      48.671  34.976  -9.102  1.00  0.00     0.281 C
HETATM   15  O9  UNL     1      48.095  35.810  -9.689  1.00  0.00    -0.265 OA
HETATM   16  C21 UNL     1      47.412  33.243  -9.522  1.00  0.00     0.275 C
HETATM   17  N10 UNL     1      48.533  32.986 -10.458  1.00  0.00    -0.351 N
ATOM     18  H10 UNL     1      48.263  32.939 -11.441  1.00  0.00     0.163 HD
ENDROOT
BRANCH   8  19
HETATM   19  C11 UNL     1      50.615  36.332  -5.689  1.00  0.00     0.006 C
HETATM   20  C12 UNL     1      52.055  36.737  -5.540  1.00  0.00     0.064 C
HETATM   21  N4  UNL     1      49.701  37.112  -5.240  1.00  0.00    -0.331 N
HETATM   22  C13 UNL     1      49.955  38.346  -4.607  1.00  0.00     0.253 C
ATOM     23  H4  UNL     1      48.729  36.821  -5.347  1.00  0.00     0.168 HD
HETATM   24  O5  UNL     1      50.932  38.529  -3.854  1.00  0.00    -0.270 OA
BRANCH  22  25
HETATM   25  C14 UNL     1      49.022  39.478  -4.841  1.00  0.00     0.237 C
BRANCH  25  26
HETATM   26  C15 UNL     1      47.790  39.391  -3.993  1.00  0.00     0.205 C
BRANCH  26  27
HETATM   27  O6  UNL     1      46.909  38.418  -4.465  1.00  0.00    -0.398 OA
ATOM     28  H6  UNL     1      47.229  37.541  -4.287  1.00  0.00     0.209 HD
ENDBRANCH  26  27
ENDBRANCH  25  26
BRANCH  25  29
HETATM   29  O7  UNL     1      48.662  39.602  -6.164  1.00  0.00    -0.367 OA
BRANCH  29  30
HETATM   30  C16 UNL     1      49.253  40.649  -6.828  1.00  0.00     0.248 C
BRANCH  30  31
HETATM   31  C17 UNL     1      50.331  40.060  -7.697  1.00  0.00     0.137 A
HETATM   32  N5  UNL     1      51.491  40.649  -7.960  1.00  0.00    -0.270 N
HETATM   33  N6  UNL     1      52.176  39.836  -8.753  1.00  0.00    -0.227 N
ATOM     34  H5  UNL     1      51.799  41.558  -7.616  1.00  0.00     0.190 HD
HETATM   35  N7  UNL     1      51.486  38.749  -9.002  1.00  0.00    -0.227 N
ATOM     36  H6  UNL     1      53.108  40.030  -9.118  1.00  0.00     0.210 HD
HETATM   37  N8  UNL     1      50.337  38.892  -8.342  1.00  0.00    -0.270 N
ATOM     38  H7  UNL     1      51.770  37.958  -9.581  1.00  0.00     0.210 HD
ATOM     39  H8  UNL     1      49.577  38.211  -8.333  1.00  0.00     0.190 HD
ENDBRANCH  30  31
ENDBRANCH  29  30
ENDBRANCH  25  29
ENDBRANCH  22  25
ENDBRANCH   8  19
BRANCH   2  40
HETATM   40  C8  UNL     1      52.017  33.131  -9.180  1.00  0.00     0.230 C
HETATM   41  O3  UNL     1      52.869  33.357 -10.124  1.00  0.00    -0.643 OA
HETATM   42  O4  UNL     1      52.704  32.455  -8.165  1.00  0.00    -0.643 OA
ENDBRANCH   2  40
BRANCH   1  43
HETATM   43  S2  UNL     1      50.674  31.391 -10.984  1.00  0.00    -0.086 SA
BRANCH  43  44
HETATM   44  C5  UNL     1      50.433  29.919 -10.010  1.00  0.00     0.195 C
HETATM   45  C4  UNL     1      51.758  29.231  -9.921  1.00  0.00     0.164 C
HETATM   46  O1  UNL     1      52.084  28.568 -11.063  1.00  0.00    -0.303 OA
HETATM   47  N1  UNL     1      52.486  29.283  -8.860  1.00  0.00    -0.249 N
HETATM   48  C2  UNL     1      51.076  27.805 -11.639  1.00  0.00     0.163 C
HETATM   49  C3  UNL     1      51.070  28.071 -13.142  1.00  0.00     0.072 C
HETATM   50  S3  UNL     1      49.563  28.612 -10.978  1.00  0.00    -0.096 SA
ATOM     51  H1  UNL     1      53.377  28.788  -8.876  1.00  0.00     0.196 HD
BRANCH  48  52
HETATM   52  S1  UNL     1      51.130  26.062 -11.259  1.00  0.00    -0.124 SA
HETATM   53  C1  UNL     1      52.570  25.754 -10.166  1.00  0.00     0.093 C
ENDBRANCH  48  52
BRANCH  47  54
HETATM   54  O2  UNL     1      52.161  29.944  -7.720  1.00  0.00    -0.288 OA
ATOM     55  H2  UNL     1      52.778  30.224  -7.054  1.00  0.00     0.244 HD
ENDBRANCH  47  54
ENDBRANCH  43  44
ENDBRANCH   1  43
BRANCH  16  56
HETATM   56  O10 UNL     1      46.465  33.957 -10.290  1.00  0.00    -0.371 OA
ATOM     57  H10 UNL     1      46.573  34.901 -10.306  1.00  0.00     0.212 HD
ENDBRANCH  16  56
TORSDOF 13
ENDMDL