MODEL 2
REMARK VINA RESULT: -9.661245699      0.988      1.137
REMARK  16 active torsions:
REMARK  status: ('A' for Active; 'I' for Inactive)
REMARK       I    between atoms: C2_2  and  N1_4
REMARK    1  A    between atoms: N1_4  and  C3_6
REMARK    2  A    between atoms: C3_6  and  C4_7
REMARK    3  A    between atoms: C3_6  and  C25_54
REMARK    4  A    between atoms: C4_7  and  N2_8
REMARK    5  A    between atoms: C5_13  and  C6_14
REMARK    6  A    between atoms: C6_14  and  C7_16
REMARK    7  A    between atoms: C11_24  and  O5_25
REMARK    8  A    between atoms: N7_31  and  C14_32
REMARK    9  A    between atoms: C14_32  and  C15_33
REMARK   10  A    between atoms: C15_33  and  C16_35
REMARK   11  A    between atoms: C16_35  and  N8_36
REMARK   12  A    between atoms: C16_35  and  C22_45
REMARK       I    between atoms: N8_36  and  C17_38
REMARK   13  A    between atoms: C17_38  and  O8_40
REMARK   14  A    between atoms: O8_40  and  C18_41
REMARK   15  A    between atoms: C23_48  and  O11_49
REMARK   16  A    between atoms: C24_51  and  O12_52
ROOT
HETATM    1  C7  UNL     1      48.009  34.922  -9.907  1.00  0.00     0.135 C
HETATM    2  N5  UNL     1      47.385  35.591  -9.011  1.00  0.00    -0.259 N
ATOM      3  H5  UNL     1      46.455  35.930  -9.255  1.00  0.00     0.194 HD
HETATM    4  O3  UNL     1      47.834  35.889  -7.787  1.00  0.00    -0.258 OA
HETATM    5  C8  UNL     1      49.139  35.592  -7.364  1.00  0.00     0.171 C
HETATM    6  C9  UNL     1      49.017  34.920  -6.023  1.00  0.00     0.216 C
HETATM    7  O4  UNL     1      49.863  35.505  -5.130  1.00  0.00    -0.385 OA
HETATM    8  C10 UNL     1      50.229  36.735  -5.582  1.00  0.00     0.203 C
HETATM    9  C11 UNL     1      49.890  36.870  -7.014  1.00  0.00     0.186 C
HETATM   10  C12 UNL     1      49.897  34.771  -8.314  1.00  0.00     0.066 A
HETATM   11  C13 UNL     1      49.385  34.461  -9.543  1.00  0.00     0.095 A
HETATM   12  N6  UNL     1      50.259  33.727 -10.244  1.00  0.00    -0.293 N
ATOM     13  H6  UNL     1      50.120  33.370 -11.189  1.00  0.00     0.187 HD
HETATM   14  N7  UNL     1      51.348  33.545  -9.489  1.00  0.00    -0.263 N
HETATM   15  C23 UNL     1      51.159  34.171  -8.298  1.00  0.00     0.169 A
ENDROOT
BRANCH   1  16
HETATM   16  C6  UNL     1      47.534  34.596 -11.229  1.00  0.00     0.235 C
HETATM   17  O2  UNL     1      48.423  34.291 -12.126  1.00  0.00    -0.283 OA
BRANCH  16  18
HETATM   18  C5  UNL     1      46.147  34.580 -11.630  1.00  0.00     0.154 A
HETATM   19  N4  UNL     1      45.206  33.763 -10.998  1.00  0.00    -0.278 N
HETATM   20  N3  UNL     1      44.040  33.940 -11.562  1.00  0.00    -0.238 N
ATOM     21  H4  UNL     1      45.398  33.130 -10.221  1.00  0.00     0.189 HD
HETATM   22  N2  UNL     1      44.093  34.809 -12.529  1.00  0.00    -0.252 N
ATOM     23  H3  UNL     1      43.189  33.454 -11.279  1.00  0.00     0.208 HD
HETATM   24  C24 UNL     1      45.410  35.211 -12.573  1.00  0.00     0.191 A
BRANCH  22  25
HETATM   25  C4  UNL     1      43.089  35.322 -13.413  1.00  0.00     0.187 C
BRANCH  25  26
HETATM   26  C3  UNL     1      41.757  34.667 -13.304  1.00  0.00     0.193 C
BRANCH  26  27
HETATM   27  N1  UNL     1      41.389  33.808 -14.381  1.00  0.00    -0.347 N
HETATM   28  C2  UNL     1      40.633  32.619 -14.175  1.00  0.00     0.214 C
HETATM   29  C1  UNL     1      40.252  31.733 -15.281  1.00  0.00     0.117 C
HETATM   30  O1  UNL     1      40.269  32.299 -13.010  1.00  0.00    -0.274 OA
ATOM     31  H1  UNL     1      41.677  34.053 -15.328  1.00  0.00     0.163 HD
ENDBRANCH  26  27
BRANCH  26  32
HETATM   32  C25 UNL     1      40.710  35.706 -13.025  1.00  0.00     0.255 C
HETATM   33  N9  UNL     1      40.363  36.623 -14.051  1.00  0.00    -0.060 NA
HETATM   34  O13 UNL     1      40.135  35.788 -11.914  1.00  0.00    -0.275 OA
ENDBRANCH  26  32
ENDBRANCH  25  26
ENDBRANCH  22  25
BRANCH  24  35
HETATM   35  O12 UNL     1      45.846  36.155 -13.507  1.00  0.00    -0.343 OA
ATOM     36  H12 UNL     1      46.517  35.941 -14.143  1.00  0.00     0.219 HD
ENDBRANCH  24  35
ENDBRANCH  16  18
ENDBRANCH   1  16
BRANCH  15  37
HETATM   37  O11 UNL     1      51.998  34.261  -7.202  1.00  0.00    -0.344 OA
ATOM     38  H11 UNL     1      52.852  33.846  -7.188  1.00  0.00     0.219 HD
ENDBRANCH  15  37
BRANCH  14  39
HETATM   39  C14 UNL     1      52.524  32.824  -9.834  1.00  0.00     0.232 C
BRANCH  39  40
HETATM   40  C15 UNL     1      52.652  31.515  -9.199  1.00  0.00     0.179 C
HETATM   41  O6  UNL     1      52.813  31.496  -7.957  1.00  0.00    -0.293 OA
BRANCH  40  42
HETATM   42  C16 UNL     1      52.613  30.218  -9.922  1.00  0.00     0.259 C
BRANCH  42  43
HETATM   43  N8  UNL     1      53.326  29.227  -9.096  1.00  0.00    -0.316 N
HETATM   44  C17 UNL     1      54.697  28.973  -9.274  1.00  0.00     0.362 C
HETATM   45  O7  UNL     1      55.391  29.588 -10.155  1.00  0.00    -0.238 OA
ATOM     46  H8  UNL     1      52.813  28.714  -8.379  1.00  0.00     0.166 HD
BRANCH  44  47
HETATM   47  O8  UNL     1      55.346  28.047  -8.500  1.00  0.00    -0.294 OA
BRANCH  47  48
HETATM   48  C18 UNL     1      55.967  28.331  -7.268  1.00  0.00     0.061 C
HETATM   49  C19 UNL     1      57.443  27.969  -7.290  1.00  0.00     0.046 C
HETATM   50  C20 UNL     1      55.880  29.788  -6.876  1.00  0.00     0.046 C
HETATM   51  C21 UNL     1      55.310  27.479  -6.207  1.00  0.00     0.046 C
ENDBRANCH  47  48
ENDBRANCH  44  47
ENDBRANCH  42  43
BRANCH  42  52
HETATM   52  C22 UNL     1      51.210  29.702  -9.975  1.00  0.00     0.204 C
HETATM   53  O9  UNL     1      50.933  28.468  -9.768  1.00  0.00    -0.646 OA
HETATM   54  O10 UNL     1      50.132  30.500 -10.244  1.00  0.00    -0.646 OA
ENDBRANCH  42  52
ENDBRANCH  40  42
ENDBRANCH  39  40
ENDBRANCH  14  39
BRANCH   9  55
HETATM   55  O5  UNL     1      49.047  37.948  -7.270  1.00  0.00    -0.390 OA
ATOM     56  H5  UNL     1      48.207  37.766  -6.866  1.00  0.00     0.210 HD
ENDBRANCH   9  55
TORSDOF 16
ENDMDL