MODEL 5
REMARK VINA RESULT: -6.034683331     10.709     14.226
REMARK  16 active torsions:
REMARK  status: ('A' for Active; 'I' for Inactive)
REMARK    1  A    between atoms: C2_2  and  O1_3
REMARK    2  A    between atoms: O1_3  and  C3_4
REMARK    3  A    between atoms: C4_7  and  S1_8
REMARK    4  A    between atoms: N3_13  and  C7_15
REMARK    5  A    between atoms: C8_16  and  O2_18
REMARK    6  A    between atoms: C10_20  and  O3_21
REMARK    7  A    between atoms: O3_21  and  C11_22
REMARK    8  A    between atoms: C11_22  and  C12_24
REMARK    9  A    between atoms: C12_24  and  N4_25
REMARK   10  A    between atoms: C12_24  and  C14_29
REMARK   11  A    between atoms: N4_25  and  O5_27
REMARK   12  A    between atoms: C16_32  and  N5_33
REMARK   13  A    between atoms: C17_38  and  C18_39
REMARK   14  A    between atoms: C18_39  and  O6_41
REMARK   15  A    between atoms: C18_39  and  C20_43
REMARK   16  A    between atoms: C20_43  and  O7_44
REMARK       I    between atoms: N7_46  and  C21_47
ROOT
HETATM    1  C7  UNL     1      40.856  34.457 -17.791  1.00  0.00     0.280 C
HETATM    2  C8  UNL     1      40.849  32.998 -17.723  1.00  0.00     0.122 C
HETATM    3  C9  UNL     1      41.043  32.498 -19.176  1.00  0.00     0.052 C
HETATM    4  C10 UNL     1      39.851  32.242 -17.004  1.00  0.00     0.219 C
HETATM    5  C17 UNL     1      38.415  32.649 -16.960  1.00  0.00     0.080 C
HETATM    6  N7  UNL     1      38.282  34.089 -16.719  1.00  0.00    -0.183 N
HETATM    7  C21 UNL     1      37.617  34.773 -15.715  1.00  0.00     0.304 C
HETATM    8  O8  UNL     1      37.018  34.333 -14.723  1.00  0.00    -0.629 OA
HETATM    9  O9  UNL     1      37.580  36.194 -15.783  1.00  0.00    -0.629 OA
HETATM   10  S3  UNL     1      39.205  35.135 -17.807  1.00  0.00     0.266 S
HETATM   11  O10 UNL     1      39.382  36.519 -17.207  1.00  0.00    -0.203 OA
HETATM   12  O11 UNL     1      38.642  35.319 -19.125  1.00  0.00    -0.203 OA
ENDROOT
BRANCH   4  13
HETATM   13  O3  UNL     1      40.006  30.879 -17.316  1.00  0.00    -0.305 OA
BRANCH  13  14
HETATM   14  C11 UNL     1      40.492  29.878 -16.507  1.00  0.00     0.290 C
HETATM   15  O4  UNL     1      40.338  30.112 -15.247  1.00  0.00    -0.262 OA
BRANCH  14  16
HETATM   16  C12 UNL     1      41.133  28.630 -16.949  1.00  0.00     0.255 C
BRANCH  16  17
HETATM   17  N4  UNL     1      42.201  28.680 -17.864  1.00  0.00    -0.283 N
ATOM     18  H4  UNL     1      43.151  28.421 -17.599  1.00  0.00     0.189 HD
BRANCH  17  19
HETATM   19  O5  UNL     1      41.891  29.093 -19.117  1.00  0.00    -0.289 OA
HETATM   20  C13 UNL     1      43.071  29.400 -19.820  1.00  0.00     0.237 C
ENDBRANCH  17  19
ENDBRANCH  16  17
BRANCH  16  21
HETATM   21  C14 UNL     1      40.013  27.841 -17.728  1.00  0.00     0.052 A
HETATM   22  C15 UNL     1      40.189  26.532 -18.110  1.00  0.00     0.081 A
HETATM   23  S2  UNL     1      38.747  26.192 -18.937  1.00  0.00    -0.064 SA
HETATM   24  C16 UNL     1      37.998  27.711 -18.760  1.00  0.00     0.142 A
HETATM   25  N6  UNL     1      38.898  28.421 -18.066  1.00  0.00    -0.338 N
ATOM     26  H6  UNL     1      38.714  29.390 -17.809  1.00  0.00     0.168 HD
BRANCH  24  27
HETATM   27  N5  UNL     1      36.834  28.092 -19.209  1.00  0.00    -0.380 N
ATOM     28  H52 UNL     1      36.251  27.650 -19.919  1.00  0.00     0.158 HD
ATOM     29  H51 UNL     1      36.282  28.901 -18.921  1.00  0.00     0.158 HD
ENDBRANCH  24  27
ENDBRANCH  16  21
ENDBRANCH  14  16
ENDBRANCH  13  14
ENDBRANCH   4  13
BRANCH   2  30
HETATM   30  O2  UNL     1      42.118  32.629 -17.165  1.00  0.00    -0.384 OA
ATOM     31  H2  UNL     1      42.081  31.688 -17.042  1.00  0.00     0.210 HD
ENDBRANCH   2  30
BRANCH   5  32
HETATM   32  C18 UNL     1      37.368  31.938 -17.679  1.00  0.00     0.117 C
HETATM   33  C19 UNL     1      35.945  32.641 -17.365  1.00  0.00     0.055 C
BRANCH  32  34
HETATM   34  O6  UNL     1      37.015  30.669 -17.243  1.00  0.00    -0.382 OA
ATOM     35  H6  UNL     1      37.128  29.939 -17.841  1.00  0.00     0.211 HD
ENDBRANCH  32  34
BRANCH  32  36
HETATM   36  C20 UNL     1      37.342  31.943 -19.173  1.00  0.00     0.207 C
BRANCH  36  37
HETATM   37  O7  UNL     1      38.042  30.930 -19.811  1.00  0.00    -0.398 OA
ATOM     38  H7  UNL     1      37.634  30.548 -20.579  1.00  0.00     0.209 HD
ENDBRANCH  36  37
ENDBRANCH  32  36
ENDBRANCH   5  32
BRANCH   1  39
HETATM   39  N3  UNL     1      41.662  35.113 -16.817  1.00  0.00    -0.203 N
HETATM   40  C6  UNL     1      41.756  34.872 -15.562  1.00  0.00     0.684 A
HETATM   41  N2  UNL     1      42.602  35.640 -14.850  1.00  0.00    -0.170 N
HETATM   42  N8  UNL     1      41.098  33.926 -14.884  1.00  0.00    -0.155 N
HETATM   43  C4  UNL     1      42.774  35.451 -13.517  1.00  0.00     0.162 A
ATOM     44  H2  UNL     1      43.124  36.378 -15.322  1.00  0.00     0.186 HD
HETATM   45  N1  UNL     1      42.100  34.493 -12.866  1.00  0.00    -0.302 N
HETATM   46  C3  UNL     1      41.244  33.715 -13.556  1.00  0.00     0.239 A
ATOM     47  H1  UNL     1      42.234  34.354 -11.865  1.00  0.00     0.171 HD
ATOM     48  H8  UNL     1      40.449  33.330 -15.397  1.00  0.00     0.188 HD
ATOM     49  H3  UNL     1      42.242  35.876 -17.164  1.00  0.00     0.179 HD
BRANCH  43  50
HETATM   50  S1  UNL     1      43.960  36.486 -12.648  1.00  0.00    -0.098 SA
HETATM   51  C5  UNL     1      45.617  35.863 -12.945  1.00  0.00     0.099 C
ENDBRANCH  43  50
BRANCH  46  52
HETATM   52  O1  UNL     1      40.509  32.712 -12.961  1.00  0.00    -0.322 OA
BRANCH  52  53
HETATM   53  C2  UNL     1      39.230  32.840 -12.447  1.00  0.00     0.174 C
HETATM   54  C1  UNL     1      38.304  31.920 -13.249  1.00  0.00     0.034 C
ENDBRANCH  52  53
ENDBRANCH  46  52
ENDBRANCH   1  39
TORSDOF 16
ENDMDL