MODEL 3
REMARK VINA RESULT: -8.723443304      4.305      9.421
REMARK  17 active torsions:
REMARK  status: ('A' for Active; 'I' for Inactive)
REMARK    1  A    between atoms: O1_2  and  N1_3
REMARK    2  A    between atoms: N1_3  and  C2_4
REMARK    3  A    between atoms: C2_4  and  C3_5
REMARK    4  A    between atoms: C2_4  and  C24_54
REMARK       I    between atoms: C3_5  and  N2_7
REMARK    5  A    between atoms: N2_7  and  N3_9
REMARK    6  A    between atoms: C4_10  and  C5_11
REMARK       I    between atoms: C5_11  and  N4_13
REMARK       I    between atoms: N4_13  and  C6_15
REMARK    7  A    between atoms: C6_15  and  C7_17
REMARK    8  A    between atoms: C7_17  and  N5_18
REMARK    9  A    between atoms: N5_18  and  C8_20
REMARK   10  A    between atoms: C8_20  and  C9_21
REMARK   11  A    between atoms: C8_20  and  C10_28
REMARK       I    between atoms: C9_21  and  N6_23
REMARK   12  A    between atoms: N6_23  and  N7_25
REMARK   13  A    between atoms: C13_36  and  C14_37
REMARK   14  A    between atoms: C14_37  and  O6_38
REMARK   15  A    between atoms: C14_37  and  O7_40
REMARK   16  A    between atoms: C19_46  and  O8_47
REMARK   17  A    between atoms: C24_54  and  O11_56
ROOT
HETATM    1  C5  UNL     1      48.330  33.189 -10.426  1.00  0.00     0.277 C
HETATM    2  O3  UNL     1      47.459  33.492  -9.578  1.00  0.00    -0.266 OA
HETATM    3  N4  UNL     1      48.052  33.724 -11.737  1.00  0.00    -0.287 N
ATOM      4  H4  UNL     1      48.723  33.518 -12.477  1.00  0.00     0.172 HD
HETATM    5  C6  UNL     1      46.936  34.506 -12.081  1.00  0.00     0.263 C
HETATM    6  O4  UNL     1      46.870  34.880 -13.304  1.00  0.00    -0.267 OA
ENDROOT
BRANCH   1   7
HETATM    7  C4  UNL     1      49.518  32.389 -10.183  1.00  0.00     0.129 A
HETATM    8  N3  UNL     1      50.709  32.985  -9.840  1.00  0.00    -0.212 N
HETATM    9  C23 UNL     1      51.804  32.199  -9.747  1.00  0.00     0.278 A
HETATM   10  C22 UNL     1      51.791  30.818  -9.980  1.00  0.00     0.044 A
HETATM   11  O9  UNL     1      52.920  32.659  -9.438  1.00  0.00    -0.265 OA
HETATM   12  C17 UNL     1      50.620  30.218 -10.317  1.00  0.00    -0.015 A
HETATM   13  C21 UNL     1      52.941  30.067  -9.870  1.00  0.00     0.021 A
HETATM   14  C16 UNL     1      49.503  31.019 -10.412  1.00  0.00     0.050 A
HETATM   15  C18 UNL     1      50.574  28.862 -10.550  1.00  0.00     0.049 A
HETATM   16  C19 UNL     1      51.728  28.097 -10.442  1.00  0.00     0.066 A
HETATM   17  C20 UNL     1      52.927  28.709 -10.097  1.00  0.00     0.037 A
BRANCH   8  18
HETATM   18  N2  UNL     1      50.678  34.311  -9.450  1.00  0.00    -0.258 N
HETATM   19  C3  UNL     1      51.065  34.883  -8.233  1.00  0.00     0.268 C
HETATM   20  O2  UNL     1      51.542  34.228  -7.287  1.00  0.00    -0.269 OA
ATOM     21  H2  UNL     1      50.323  34.964 -10.148  1.00  0.00     0.190 HD
BRANCH  19  22
HETATM   22  C2  UNL     1      50.907  36.385  -8.019  1.00  0.00     0.298 C
BRANCH  22  23
HETATM   23  N1  UNL     1      49.699  36.829  -8.720  1.00  0.00    -0.077 NA
BRANCH  23  24
HETATM   24  O1  UNL     1      48.625  36.364  -8.008  1.00  0.00    -0.290 OA
HETATM   25  C1  UNL     1      48.496  37.184  -6.901  1.00  0.00     0.231 C
ENDBRANCH  23  24
ENDBRANCH  22  23
BRANCH  22  26
HETATM   26  C24 UNL     1      52.073  37.141  -8.491  1.00  0.00     0.289 C
HETATM   27  O10 UNL     1      51.941  38.008  -9.426  1.00  0.00    -0.263 OA
BRANCH  26  28
HETATM   28  O11 UNL     1      53.349  37.001  -8.004  1.00  0.00    -0.325 OA
HETATM   29  C25 UNL     1      53.974  37.996  -7.214  1.00  0.00     0.213 C
ENDBRANCH  26  28
ENDBRANCH  22  26
ENDBRANCH  19  22
ENDBRANCH   8  18
BRANCH  16  30
HETATM   30  O8  UNL     1      51.716  26.724 -10.671  1.00  0.00    -0.361 OA
ATOM     31  H8  UNL     1      52.410  26.161 -10.349  1.00  0.00     0.217 HD
ENDBRANCH  16  30
ENDBRANCH   1   7
BRANCH   5  32
HETATM   32  C7  UNL     1      45.881  34.908 -11.182  1.00  0.00     0.163 C
BRANCH  32  33
HETATM   33  N5  UNL     1      44.708  34.127 -11.177  1.00  0.00    -0.353 N
ATOM     34  H5  UNL     1      44.613  33.391 -10.478  1.00  0.00     0.165 HD
BRANCH  33  35
HETATM   35  C8  UNL     1      43.679  34.318 -12.083  1.00  0.00     0.148 C
BRANCH  35  36
HETATM   36  C9  UNL     1      43.538  35.684 -12.662  1.00  0.00     0.290 C
HETATM   37  O5  UNL     1      42.897  36.567 -12.063  1.00  0.00    -0.264 OA
HETATM   38  N6  UNL     1      44.118  36.032 -13.901  1.00  0.00    -0.271 N
ATOM     39  H6  UNL     1      44.650  35.335 -14.422  1.00  0.00     0.189 HD
BRANCH  38  40
HETATM   40  N7  UNL     1      43.971  37.307 -14.416  1.00  0.00    -0.342 N
ATOM     41  H72 UNL     1      43.080  37.787 -14.288  1.00  0.00     0.176 HD
ATOM     42  H71 UNL     1      44.738  37.759 -14.915  1.00  0.00     0.176 HD
ENDBRANCH  38  40
ENDBRANCH  35  36
BRANCH  35  43
HETATM   43  C10 UNL     1      42.349  33.742 -11.858  1.00  0.00     0.162 A
HETATM   44  N8  UNL     1      42.122  33.080 -10.639  1.00  0.00    -0.281 N
HETATM   45  N9  UNL     1      40.922  32.646 -10.562  1.00  0.00    -0.277 N
ATOM     46  H8  UNL     1      42.825  32.961  -9.909  1.00  0.00     0.188 HD
HETATM   47  C11 UNL     1      40.329  33.018 -11.742  1.00  0.00     0.172 A
ATOM     48  H9  UNL     1      40.497  32.133  -9.789  1.00  0.00     0.189 HD
HETATM   49  S1  UNL     1      38.863  32.950 -12.582  1.00  0.00    -0.061 SA
HETATM   50  N10 UNL     1      41.167  33.681 -12.549  1.00  0.00    -0.268 N
HETATM   51  C12 UNL     1      39.337  33.774 -13.969  1.00  0.00     0.088 A
HETATM   52  C13 UNL     1      40.689  34.090 -13.723  1.00  0.00     0.107 A
BRANCH  52  53
HETATM   53  C14 UNL     1      41.349  34.810 -14.825  1.00  0.00     0.206 C
BRANCH  53  54
HETATM   54  O6  UNL     1      41.228  36.110 -14.893  1.00  0.00    -0.339 OA
ATOM     55  H6  UNL     1      40.670  36.484 -15.565  1.00  0.00     0.220 HD
ENDBRANCH  53  54
BRANCH  53  56
HETATM   56  O7  UNL     1      42.090  34.356 -15.837  1.00  0.00    -0.334 OA
HETATM   57  C15 UNL     1      41.622  33.943 -17.093  1.00  0.00     0.212 C
ENDBRANCH  53  56
ENDBRANCH  52  53
ENDBRANCH  35  43
ENDBRANCH  33  35
ENDBRANCH  32  33
ENDBRANCH   5  32
TORSDOF 17
ENDMDL