MODEL 5
REMARK VINA RESULT: -9.266670072      2.542      3.361
REMARK  14 active torsions:
REMARK  status: ('A' for Active; 'I' for Inactive)
REMARK    1  A    between atoms: S1_2  and  C2_3
REMARK    2  A    between atoms: C3_6  and  N2_7
REMARK    3  A    between atoms: C5_9  and  C6_10
REMARK    4  A    between atoms: C6_10  and  O1_11
REMARK    5  A    between atoms: O1_11  and  C7_12
REMARK    6  A    between atoms: C7_12  and  C8_13
REMARK    7  A    between atoms: C8_13  and  N3_14
REMARK       I    between atoms: N3_14  and  C9_16
REMARK    8  A    between atoms: C9_16  and  C10_18
REMARK    9  A    between atoms: C10_18  and  N4_19
REMARK       I    between atoms: N4_19  and  C11_21
REMARK   10  A    between atoms: N8_32  and  C14_33
REMARK   11  A    between atoms: C16_35  and  O5_36
REMARK   12  A    between atoms: C17_38  and  N9_39
REMARK   13  A    between atoms: C20_42  and  N10_43
REMARK   14  A    between atoms: C23_51  and  N12_52
ROOT
HETATM    1  C2  UNL     1      42.871  34.932 -13.119  1.00  0.00     0.167 A
HETATM    2  N1  UNL     1      44.187  34.997 -12.762  1.00  0.00    -0.168 N
ATOM      3  H1  UNL     1      44.830  35.527 -13.350  1.00  0.00     0.186 HD
HETATM    4  C3  UNL     1      44.670  34.388 -11.662  1.00  0.00     0.710 A
HETATM    5  N7  UNL     1      43.799  33.704 -10.914  1.00  0.00    -0.139 N
ATOM      6  H7  UNL     1      44.117  33.227 -10.072  1.00  0.00     0.189 HD
HETATM    7  C13 UNL     1      42.500  33.643 -11.272  1.00  0.00     0.345 A
HETATM    8  O4  UNL     1      41.764  32.962 -10.481  1.00  0.00    -0.246 OA
HETATM    9  N8  UNL     1      42.000  34.245 -12.369  1.00  0.00    -0.250 N
ENDROOT
BRANCH   9  10
HETATM   10  C14 UNL     1      40.593  34.102 -12.639  1.00  0.00     0.247 C
HETATM   11  C15 UNL     1      39.975  35.078 -13.564  1.00  0.00     0.093 C
HETATM   12  C16 UNL     1      38.736  34.496 -14.283  1.00  0.00     0.179 C
HETATM   13  C17 UNL     1      39.201  33.367 -15.103  1.00  0.00     0.127 C
HETATM   14  C25 UNL     1      40.045  32.380 -14.351  1.00  0.00     0.311 C
HETATM   15  O7  UNL     1      40.394  31.326 -14.924  1.00  0.00    -0.258 OA
HETATM   16  O8  UNL     1      40.362  32.750 -13.059  1.00  0.00    -0.290 OA
BRANCH  12  17
HETATM   17  O5  UNL     1      38.357  35.531 -15.173  1.00  0.00    -0.389 OA
ATOM     18  H5  UNL     1      37.408  35.509 -15.144  1.00  0.00     0.210 HD
ENDBRANCH  12  17
BRANCH  13  19
HETATM   19  N9  UNL     1      38.353  32.836 -16.097  1.00  0.00    -0.244 N
HETATM   20  C18 UNL     1      38.763  32.751 -17.378  1.00  0.00     0.122 A
HETATM   21  C19 UNL     1      37.969  32.231 -18.390  1.00  0.00     0.032 A
HETATM   22  N13 UNL     1      40.051  33.211 -17.731  1.00  0.00    -0.373 N
HETATM   23  C20 UNL     1      36.692  31.777 -18.066  1.00  0.00     0.112 A
HETATM   24  C22 UNL     1      38.421  32.130 -19.799  1.00  0.00     0.081 C
HETATM   25  N11 UNL     1      36.294  31.867 -16.795  1.00  0.00    -0.294 N
HETATM   26  C21 UNL     1      37.086  32.370 -15.866  1.00  0.00     0.334 A
ATOM     27  H11 UNL     1      35.363  31.542 -16.538  1.00  0.00     0.172 HD
HETATM   28  O6  UNL     1      36.692  32.448 -14.657  1.00  0.00    -0.246 OA
HETATM   29  C23 UNL     1      39.756  32.729 -20.076  1.00  0.00     0.205 C
HETATM   30  C24 UNL     1      40.703  32.591 -18.895  1.00  0.00     0.154 C
ATOM     31  H13 UNL     1      40.512  33.947 -17.198  1.00  0.00     0.161 HD
BRANCH  23  32
HETATM   32  N10 UNL     1      35.910  31.286 -18.960  1.00  0.00    -0.385 N
ATOM     33 2H10 UNL     1      35.825  30.277 -19.074  1.00  0.00     0.157 HD
ATOM     34 1H10 UNL     1      35.358  31.889 -19.571  1.00  0.00     0.157 HD
ENDBRANCH  23  32
BRANCH  29  35
HETATM   35  N12 UNL     1      39.669  34.138 -20.394  1.00  0.00    -0.073 N
ATOM     36 3H12 UNL     1      38.700  34.423 -20.540  1.00  0.00     0.274 HD
ATOM     37 2H12 UNL     1      39.888  34.713 -19.581  1.00  0.00     0.274 HD
ATOM     38 1H12 UNL     1      40.252  34.390 -21.192  1.00  0.00     0.274 HD
ENDBRANCH  29  35
ENDBRANCH  13  19
ENDBRANCH   9  10
BRANCH   1  39
HETATM   39  S1  UNL     1      42.363  35.799 -14.593  1.00  0.00    -0.097 SA
HETATM   40  C1  UNL     1      42.458  34.669 -16.014  1.00  0.00     0.099 C
ENDBRANCH   1  39
BRANCH   4  41
HETATM   41  N2  UNL     1      46.064  34.476 -11.317  1.00  0.00    -0.081 N
HETATM   42  C4  UNL     1      46.476  35.052 -10.170  1.00  0.00     0.165 A
HETATM   43  C5  UNL     1      47.871  34.995 -10.105  1.00  0.00     0.069 A
HETATM   44  N5  UNL     1      48.230  34.375 -11.241  1.00  0.00    -0.286 N
HETATM   45  N6  UNL     1      47.129  34.074 -11.949  1.00  0.00    -0.222 N
ATOM     46  H5  UNL     1      49.188  34.166 -11.522  1.00  0.00     0.188 HD
ATOM     47  H6  UNL     1      47.127  33.600 -12.852  1.00  0.00     0.209 HD
BRANCH  43  48
HETATM   48  C6  UNL     1      48.770  35.499  -9.038  1.00  0.00     0.227 C
BRANCH  48  49
HETATM   49  O1  UNL     1      48.561  34.951  -7.801  1.00  0.00    -0.384 OA
BRANCH  49  50
HETATM   50  C7  UNL     1      49.032  35.727  -6.747  1.00  0.00     0.187 C
BRANCH  50  51
HETATM   51  C8  UNL     1      48.683  37.159  -7.088  1.00  0.00     0.148 C
BRANCH  51  52
HETATM   52  N3  UNL     1      47.944  37.833  -6.061  1.00  0.00    -0.358 N
HETATM   53  C9  UNL     1      48.066  39.221  -5.838  1.00  0.00     0.235 C
HETATM   54  O2  UNL     1      48.847  39.896  -6.554  1.00  0.00    -0.272 OA
ATOM     55  H3  UNL     1      47.311  37.292  -5.472  1.00  0.00     0.162 HD
BRANCH  53  56
HETATM   56  C10 UNL     1      47.276  39.892  -4.762  1.00  0.00     0.225 C
BRANCH  56  57
HETATM   57  N4  UNL     1      48.063  40.014  -3.579  1.00  0.00    -0.353 N
HETATM   58  C11 UNL     1      48.839  41.163  -3.307  1.00  0.00     0.213 C
HETATM   59  C12 UNL     1      49.647  41.257  -2.046  1.00  0.00     0.117 C
HETATM   60  O3  UNL     1      48.890  42.137  -4.085  1.00  0.00    -0.274 OA
ATOM     61  H4  UNL     1      48.066  39.246  -2.907  1.00  0.00     0.162 HD
ENDBRANCH  56  57
ENDBRANCH  53  56
ENDBRANCH  51  52
ENDBRANCH  50  51
ENDBRANCH  49  50
ENDBRANCH  48  49
ENDBRANCH  43  48
ENDBRANCH   4  41
TORSDOF 14
ENDMDL