MODEL 1
REMARK VINA RESULT: -7.867512240      0.000      0.000
REMARK  16 active torsions:
REMARK  status: ('A' for Active; 'I' for Inactive)
REMARK    1  A    between atoms: O1_2  and  N1_3
REMARK    2  A    between atoms: N1_3  and  N2_5
REMARK    3  A    between atoms: N2_5  and  N3_7
REMARK    4  A    between atoms: N3_7  and  O2_8
REMARK    5  A    between atoms: N3_7  and  N4_10
REMARK    6  A    between atoms: N4_10  and  C2_11
REMARK    7  A    between atoms: N5_12  and  N6_13
REMARK       I    between atoms: N6_13  and  C3_15
REMARK    8  A    between atoms: C3_15  and  C4_17
REMARK    9  A    between atoms: C4_17  and  N7_18
REMARK   10  A    between atoms: C8_32  and  C9_33
REMARK   11  A    between atoms: C11_35  and  O5_36
REMARK   12  A    between atoms: C13_38  and  O6_39
REMARK   13  A    between atoms: C15_42  and  S1_43
REMARK   14  A    between atoms: S1_43  and  N12_46
REMARK   15  A    between atoms: N14_51  and  O9_52
REMARK   16  A    between atoms: O9_52  and  S2_53
ROOT
HETATM    1  C2  UNL     1      51.401  32.090  -9.738  1.00  0.00     0.338 A
HETATM    2  N5  UNL     1      50.018  31.733 -10.051  1.00  0.00    -0.168 N
HETATM    3  C6  UNL     1      50.058  30.468 -10.671  1.00  0.00     0.299 A
HETATM    4  O4  UNL     1      49.008  29.862 -11.070  1.00  0.00    -0.263 OA
HETATM    5  C7  UNL     1      51.435  29.972 -10.785  1.00  0.00     0.139 A
HETATM    6  C8  UNL     1      51.700  28.803 -11.281  1.00  0.00     0.051 C
HETATM    7  N14 UNL     1      52.239  31.012 -10.190  1.00  0.00    -0.149 N
ENDROOT
BRANCH   6   8
HETATM    8  C9  UNL     1      52.957  28.136 -11.492  1.00  0.00    -0.007 A
HETATM    9  C10 UNL     1      53.677  28.309 -12.673  1.00  0.00     0.052 A
HETATM   10  C11 UNL     1      54.873  27.680 -12.903  1.00  0.00     0.102 A
HETATM   11  C13 UNL     1      55.402  26.832 -11.916  1.00  0.00     0.100 A
HETATM   12  C14 UNL     1      54.719  26.640 -10.741  1.00  0.00     0.065 A
HETATM   13  C15 UNL     1      53.518  27.302 -10.571  1.00  0.00     0.094 A
BRANCH  10  14
HETATM   14  O5  UNL     1      55.638  27.794 -14.039  1.00  0.00    -0.353 OA
HETATM   15  C12 UNL     1      56.061  28.933 -14.705  1.00  0.00     0.210 C
ENDBRANCH  10  14
BRANCH  11  16
HETATM   16  O6  UNL     1      56.610  26.174 -12.101  1.00  0.00    -0.358 OA
ATOM     17  H6  UNL     1      56.936  25.973 -12.970  1.00  0.00     0.217 HD
ENDBRANCH  11  16
BRANCH  13  18
HETATM   18  S1  UNL     1      52.684  27.019  -9.054  1.00  0.00     0.283 S
HETATM   19  O7  UNL     1      51.211  26.995  -9.275  1.00  0.00    -0.198 OA
HETATM   20  O8  UNL     1      53.200  25.724  -8.479  1.00  0.00    -0.198 OA
BRANCH  18  21
HETATM   21  N12 UNL     1      53.041  28.255  -7.912  1.00  0.00    -0.187 N
HETATM   22  C16 UNL     1      52.522  28.697  -6.742  1.00  0.00     0.148 A
HETATM   23  C17 UNL     1      53.488  29.642  -6.668  1.00  0.00     0.128 A
HETATM   24  N13 UNL     1      53.954  29.170  -7.812  1.00  0.00    -0.295 N
ATOM     25  H13 UNL     1      54.745  29.432  -8.402  1.00  0.00     0.187 HD
ENDBRANCH  18  21
ENDBRANCH  13  18
ENDBRANCH   6   8
BRANCH   7  26
HETATM   26  O9  UNL     1      53.547  30.910 -10.067  1.00  0.00    -0.120 OA
BRANCH  26  27
HETATM   27  S2  UNL     1      54.583  31.785 -10.962  1.00  0.00     0.274 S
HETATM   28  O10 UNL     1      56.040  31.554 -10.545  1.00  0.00    -0.571 OA
HETATM   29  O11 UNL     1      54.621  31.322 -12.444  1.00  0.00    -0.571 OA
HETATM   30  O12 UNL     1      54.326  33.420 -11.039  1.00  0.00    -0.571 OA
ENDBRANCH  26  27
ENDBRANCH   7  26
BRANCH   2  31
HETATM   31  N6  UNL     1      48.873  32.499  -9.812  1.00  0.00    -0.255 N
HETATM   32  C3  UNL     1      48.407  33.553 -10.620  1.00  0.00     0.257 C
HETATM   33  O3  UNL     1      49.057  33.860 -11.649  1.00  0.00    -0.270 OA
ATOM     34  H6  UNL     1      48.327  32.273  -8.980  1.00  0.00     0.191 HD
BRANCH  32  35
HETATM   35  C4  UNL     1      47.173  34.299 -10.283  1.00  0.00     0.274 C
BRANCH  35  36
HETATM   36  N7  UNL     1      46.556  34.857 -11.466  1.00  0.00    -0.098 N
HETATM   37  N8  UNL     1      47.123  35.732 -12.273  1.00  0.00    -0.211 N
HETATM   38  N9  UNL     1      46.246  35.994 -13.197  1.00  0.00    -0.213 N
ATOM     39  H8  UNL     1      48.061  36.124 -12.190  1.00  0.00     0.210 HD
HETATM   40  N10 UNL     1      45.127  35.330 -13.033  1.00  0.00    -0.115 N
ATOM     41  H9  UNL     1      46.411  36.645 -13.965  1.00  0.00     0.210 HD
HETATM   42  C5  UNL     1      45.306  34.581 -11.909  1.00  0.00     0.710 A
ATOM     43  H10 UNL     1      44.296  35.367 -13.624  1.00  0.00     0.207 HD
HETATM   44  N11 UNL     1      44.436  33.796 -11.423  1.00  0.00    -0.232 N
ATOM     45 2H11 UNL     1      44.571  33.235 -10.582  1.00  0.00     0.174 HD
ATOM     46 1H11 UNL     1      43.495  33.588 -11.757  1.00  0.00     0.174 HD
ENDBRANCH  35  36
ENDBRANCH  32  35
ENDBRANCH   2  31
BRANCH   1  47
HETATM   47  N4  UNL     1      51.654  33.143  -9.180  1.00  0.00    -0.237 NA
BRANCH  47  48
HETATM   48  N3  UNL     1      51.482  34.270  -8.575  1.00  0.00    -0.004 N
BRANCH  48  49
HETATM   49  N2  UNL     1      51.061  35.421  -9.013  1.00  0.00    -0.170 N
ATOM     50  H2  UNL     1      50.262  35.393  -9.648  1.00  0.00     0.215 HD
BRANCH  49  51
HETATM   51  N1  UNL     1      51.552  36.653  -8.731  1.00  0.00    -0.190 N
ATOM     52  H1  UNL     1      50.895  37.425  -8.840  1.00  0.00     0.217 HD
BRANCH  51  53
HETATM   53  O1  UNL     1      52.776  36.989  -8.330  1.00  0.00    -0.269 OA
HETATM   54  C1  UNL     1      52.763  38.260  -7.758  1.00  0.00     0.239 C
ENDBRANCH  51  53
ENDBRANCH  49  51
ENDBRANCH  48  49
BRANCH  48  55
HETATM   55  O2  UNL     1      51.806  34.407  -7.183  1.00  0.00    -0.242 OA
ATOM     56  H2  UNL     1      51.786  33.545  -6.784  1.00  0.00     0.249 HD
ENDBRANCH  48  55
ENDBRANCH  47  48
ENDBRANCH   1  47
TORSDOF 16
ENDMDL