MODEL 5
REMARK VINA RESULT: -8.580593034      3.307     10.203
REMARK  17 active torsions:
REMARK  status: ('A' for Active; 'I' for Inactive)
REMARK    1  A    between atoms: C3_8  and  S1_9
REMARK    2  A    between atoms: S1_9  and  C4_10
REMARK    3  A    between atoms: C4_10  and  C5_11
REMARK    4  A    between atoms: C6_12  and  C7_13
REMARK    5  A    between atoms: C7_13  and  O2_15
REMARK    6  A    between atoms: O2_15  and  C8_16
REMARK    7  A    between atoms: C8_16  and  C9_17
REMARK    8  A    between atoms: C9_17  and  N4_18
REMARK    9  A    between atoms: N6_27  and  C15_28
REMARK   10  A    between atoms: C15_28  and  C16_29
REMARK       I    between atoms: C16_29  and  N7_31
REMARK   11  A    between atoms: N7_31  and  C17_33
REMARK   12  A    between atoms: C17_33  and  C18_34
REMARK   13  A    between atoms: C18_34  and  O5_35
REMARK   14  A    between atoms: C18_34  and  C19_37
REMARK   15  A    between atoms: C19_37  and  O6_38
REMARK   16  A    between atoms: C20_40  and  N8_41
REMARK   17  A    between atoms: N11_55  and  N12_56
ROOT
HETATM    1  N1  UNL     1      43.115  36.081 -14.561  1.00  0.00    -0.188 NA
HETATM    2  C1  UNL     1      44.014  35.871 -13.832  1.00  0.00     0.140 C
HETATM    3  C2  UNL     1      45.100  35.605 -12.932  1.00  0.00     0.226 A
HETATM    4  N2  UNL     1      46.353  36.075 -13.079  1.00  0.00    -0.273 N
ATOM      5  H2  UNL     1      46.689  36.670 -13.836  1.00  0.00     0.189 HD
HETATM    6  N3  UNL     1      47.056  35.631 -12.079  1.00  0.00    -0.276 N
ATOM      7  H3  UNL     1      48.046  35.835 -11.939  1.00  0.00     0.189 HD
HETATM    8  C3  UNL     1      46.309  34.857 -11.238  1.00  0.00     0.182 A
HETATM    9  N11 UNL     1      45.089  34.863 -11.804  1.00  0.00    -0.212 N
ENDROOT
BRANCH   9  10
HETATM   10  N12 UNL     1      43.952  34.184 -11.358  1.00  0.00    -0.334 N
ATOM     11 2H12 UNL     1      43.418  34.372 -10.509  1.00  0.00     0.177 HD
ATOM     12 1H12 UNL     1      43.559  33.383 -11.853  1.00  0.00     0.177 HD
ENDBRANCH   9  10
BRANCH   8  13
HETATM   13  S1  UNL     1      46.967  34.048  -9.834  1.00  0.00    -0.086 SA
BRANCH  13  14
HETATM   14  C4  UNL     1      48.726  33.936  -9.663  1.00  0.00     0.118 C
BRANCH  14  15
HETATM   15  C5  UNL     1      49.354  34.886  -8.663  1.00  0.00    -0.045 C
HETATM   16  C6  UNL     1      50.623  34.994  -8.326  1.00  0.00     0.069 C
HETATM   17  C21 UNL     1      50.975  36.042  -7.339  1.00  0.00     0.199 C
HETATM   18  N9  UNL     1      50.912  35.599  -5.989  1.00  0.00    -0.312 N
HETATM   19  C23 UNL     1      52.233  36.733  -7.545  1.00  0.00     0.270 C
HETATM   20  S2  UNL     1      49.576  37.226  -7.686  1.00  0.00    -0.118 SA
HETATM   21  C22 UNL     1      51.853  36.375  -5.273  1.00  0.00     0.324 C
ATOM     22  H9  UNL     1      50.308  34.867  -5.612  1.00  0.00     0.166 HD
HETATM   23  O7  UNL     1      51.945  36.428  -4.021  1.00  0.00    -0.247 OA
HETATM   24  N10 UNL     1      52.677  37.082  -6.209  1.00  0.00    -0.276 N
ATOM     25  H10 UNL     1      53.440  37.717  -5.977  1.00  0.00     0.173 HD
HETATM   26  O8  UNL     1      52.823  36.989  -8.592  1.00  0.00    -0.269 OA
HETATM   27  C24 UNL     1      48.419  35.817  -7.972  1.00  0.00     0.113 C
BRANCH  16  28
HETATM   28  C7  UNL     1      51.659  34.122  -8.932  1.00  0.00     0.298 C
HETATM   29  O1  UNL     1      52.129  34.254 -10.069  1.00  0.00    -0.259 OA
BRANCH  28  30
HETATM   30  O2  UNL     1      52.202  33.022  -8.216  1.00  0.00    -0.286 OA
BRANCH  30  31
HETATM   31  C8  UNL     1      52.586  31.889  -8.951  1.00  0.00     0.164 C
BRANCH  31  32
HETATM   32  C9  UNL     1      52.778  30.625  -8.284  1.00  0.00     0.143 C
BRANCH  32  33
HETATM   33  N4  UNL     1      53.165  29.456  -8.978  1.00  0.00    -0.118 N
HETATM   34  C10 UNL     1      54.478  29.181  -9.267  1.00  0.00     0.295 A
HETATM   35  O3  UNL     1      55.367  29.981  -8.878  1.00  0.00    -0.265 OA
HETATM   36  C11 UNL     1      54.863  28.064  -9.967  1.00  0.00     0.129 A
HETATM   37  N5  UNL     1      56.047  27.579 -10.366  1.00  0.00    -0.360 N
HETATM   38  C14 UNL     1      53.909  27.165 -10.409  1.00  0.00     0.086 A
HETATM   39  C12 UNL     1      55.889  26.427 -11.032  1.00  0.00     0.091 A
ATOM     40  H5  UNL     1      56.946  28.025 -10.187  1.00  0.00     0.165 HD
HETATM   41  C13 UNL     1      54.550  26.125 -11.083  1.00  0.00     0.050 A
HETATM   42  N6  UNL     1      52.629  27.448 -10.117  1.00  0.00    -0.172 N
HETATM   43  C20 UNL     1      52.274  28.566  -9.420  1.00  0.00     0.688 A
BRANCH  42  44
HETATM   44  C15 UNL     1      51.590  26.522 -10.569  1.00  0.00     0.250 C
BRANCH  44  45
HETATM   45  C16 UNL     1      51.032  26.851 -11.886  1.00  0.00     0.236 C
HETATM   46  O4  UNL     1      49.928  27.453 -11.906  1.00  0.00    -0.272 OA
HETATM   47  N7  UNL     1      51.656  26.533 -13.102  1.00  0.00    -0.357 N
ATOM     48  H7  UNL     1      52.551  26.045 -13.097  1.00  0.00     0.162 HD
BRANCH  47  49
HETATM   49  C17 UNL     1      51.048  26.888 -14.351  1.00  0.00     0.156 C
BRANCH  49  50
HETATM   50  C18 UNL     1      52.033  27.472 -15.335  1.00  0.00     0.159 C
BRANCH  50  51
HETATM   51  O5  UNL     1      51.602  28.755 -15.636  1.00  0.00    -0.392 OA
ATOM     52  H5  UNL     1      52.158  29.083 -16.333  1.00  0.00     0.210 HD
ENDBRANCH  50  51
BRANCH  50  53
HETATM   53  C19 UNL     1      53.378  27.576 -14.637  1.00  0.00     0.197 C
BRANCH  53  54
HETATM   54  O6  UNL     1      53.542  28.780 -13.988  1.00  0.00    -0.398 OA
ATOM     55  H6  UNL     1      53.511  28.690 -13.042  1.00  0.00     0.209 HD
ENDBRANCH  53  54
ENDBRANCH  50  53
ENDBRANCH  49  50
ENDBRANCH  47  49
ENDBRANCH  44  45
ENDBRANCH  42  44
BRANCH  43  56
HETATM   56  N8  UNL     1      51.012  28.679  -9.237  1.00  0.00    -0.234 N
ATOM     57  H82 UNL     1      50.452  28.333 -10.016  1.00  0.00     0.174 HD
ATOM     58  H81 UNL     1      50.599  29.081  -8.395  1.00  0.00     0.174 HD
ENDBRANCH  43  56
ENDBRANCH  32  33
ENDBRANCH  31  32
ENDBRANCH  30  31
ENDBRANCH  28  30
ENDBRANCH  16  28
ENDBRANCH  14  15
ENDBRANCH  13  14
ENDBRANCH   8  13
TORSDOF 17
ENDMDL