MODEL 3
REMARK VINA RESULT: -5.244047458      1.782      1.962
REMARK  6 active torsions:
REMARK  status: ('A' for Active; 'I' for Inactive)
REMARK    1  A    between atoms: N1_2  and  C2_5
REMARK    2  A    between atoms: C2_5  and  C3_6
REMARK    3  A    between atoms: C3_6  and  N2_7
REMARK    4  A    between atoms: C3_6  and  C9_17
REMARK    5  A    between atoms: N2_7  and  C4_9
REMARK    6  A    between atoms: C4_9  and  N3_11
ROOT
HETATM    1  N2  UNL     1     -18.843   1.397 -17.590  1.00  0.00    -0.361 N
ATOM      2  H2  UNL     1     -19.044   1.990 -18.395  1.00  0.00     0.162 HD
ENDROOT
BRANCH   1   3
HETATM    3  C3  UNL     1     -19.320   1.870 -16.320  1.00  0.00     0.113 C
BRANCH   3   4
HETATM    4  C2  UNL     1     -18.397   2.897 -15.775  1.00  0.00     0.257 C
BRANCH   4   5
HETATM    5  N1  UNL     1     -17.283   2.273 -15.040  1.00  0.00    -0.077 N
HETATM    6  C1  UNL     1     -17.918   1.552 -13.925  1.00  0.00     0.267 C
ATOM      7  H12 UNL     1     -16.560   2.931 -14.748  1.00  0.00     0.276 HD
ATOM      8  H11 UNL     1     -16.681   1.688 -15.620  1.00  0.00     0.276 HD
ENDBRANCH   4   5
ENDBRANCH   3   4
BRANCH   3   9
HETATM    9  C9  UNL     1     -20.756   2.319 -16.399  1.00  0.00     0.002 C
HETATM   10  C10 UNL     1     -21.558   1.123 -16.924  1.00  0.00     0.011 C
HETATM   11  C11 UNL     1     -21.341   2.700 -15.087  1.00  0.00     0.011 C
ENDBRANCH   3   9
ENDBRANCH   1   3
BRANCH   1  12
HETATM   12  C4  UNL     1     -18.131   0.213 -17.855  1.00  0.00     0.170 C
HETATM   13  S1  UNL     1     -18.108  -1.013 -16.783  1.00  0.00    -0.041 SA
BRANCH  12  14
HETATM   14  N3  UNL     1     -17.437   0.062 -19.072  1.00  0.00    -0.354 N
HETATM   15  C5  UNL     1     -17.315   1.209 -19.943  1.00  0.00     0.151 C
HETATM   16  C6  UNL     1     -16.739   0.847 -21.297  1.00  0.00     0.187 C
HETATM   17  O1  UNL     1     -15.664  -0.005 -21.077  1.00  0.00    -0.388 OA
HETATM   18  C7  UNL     1     -16.171  -1.239 -20.722  1.00  0.00     0.187 C
HETATM   19  C8  UNL     1     -16.875  -1.224 -19.408  1.00  0.00     0.151 C
ENDBRANCH  12  14
ENDBRANCH   1  12
TORSDOF 6
ENDMDL