MODEL 3
REMARK VINA RESULT: -5.661235431      1.633      2.092
REMARK  8 active torsions:
REMARK  status: ('A' for Active; 'I' for Inactive)
REMARK    1  A    between atoms: C2_2  and  C3_3
REMARK    2  A    between atoms: C3_3  and  C4_4
REMARK    3  A    between atoms: C5_5  and  C6_6
REMARK    4  A    between atoms: C6_6  and  N1_7
REMARK    5  A    between atoms: N2_11  and  C10_12
REMARK    6  A    between atoms: C10_12  and  C11_13
REMARK    7  A    between atoms: C11_13  and  O1_14
REMARK    8  A    between atoms: N3_16  and  O2_18
ROOT
HETATM    1  N1  UNL     1     -18.538   1.444 -16.733  1.00  0.00    -0.041 N
HETATM    2  C7  UNL     1     -19.193   0.182 -16.497  1.00  0.00     0.276 C
HETATM    3  C8  UNL     1     -17.084   1.231 -16.658  1.00  0.00     0.284 C
HETATM    4  C9  UNL     1     -16.828   0.628 -18.038  1.00  0.00     0.093 C
HETATM    5  N2  UNL     1     -17.705   1.366 -18.840  1.00  0.00    -0.340 N
HETATM    6  C12 UNL     1     -18.780   1.888 -18.114  1.00  0.00     0.367 C
ENDROOT
BRANCH   5   7
HETATM    7  C10 UNL     1     -17.829   1.061 -20.197  1.00  0.00     0.149 C
BRANCH   7   8
HETATM    8  C11 UNL     1     -16.899   0.087 -20.757  1.00  0.00     0.175 C
HETATM    9  N3  UNL     1     -17.204  -1.166 -20.743  1.00  0.00    -0.246 N
ATOM     10  H3  UNL     1     -18.097  -1.439 -20.335  1.00  0.00     0.196 HD
BRANCH   8  11
HETATM   11  O1  UNL     1     -15.689   0.428 -21.314  1.00  0.00    -0.344 OA
ATOM     12  H1  UNL     1     -14.885  -0.054 -21.157  1.00  0.00     0.219 HD
ENDBRANCH   8  11
BRANCH   9  13
HETATM   13  O2  UNL     1     -16.397  -2.146 -21.244  1.00  0.00    -0.288 OA
ATOM     14  H2  UNL     1     -16.458  -3.060 -20.989  1.00  0.00     0.244 HD
ENDBRANCH   9  13
ENDBRANCH   7   8
ENDBRANCH   5   7
BRANCH   1  15
HETATM   15  C6  UNL     1     -18.881   2.476 -15.809  1.00  0.00     0.332 C
BRANCH  15  16
HETATM   16  C5  UNL     1     -20.261   2.417 -15.327  1.00  0.00    -0.079 C
HETATM   17  C4  UNL     1     -21.394   2.345 -14.920  1.00  0.00    -0.105 C
BRANCH  17  18
HETATM   18  C3  UNL     1     -22.758   2.228 -14.408  1.00  0.00     0.093 C
BRANCH  18  19
HETATM   19  C2  UNL     1     -22.907   0.946 -13.627  1.00  0.00     0.007 C
HETATM   20  C1  UNL     1     -22.789  -0.191 -14.621  1.00  0.00     0.006 C
ENDBRANCH  18  19
ENDBRANCH  17  18
ENDBRANCH  15  16
ENDBRANCH   1  15
TORSDOF 8
ENDMDL