MODEL 5
REMARK VINA RESULT: -5.193469167      1.481      1.741
REMARK  7 active torsions:
REMARK  status: ('A' for Active; 'I' for Inactive)
REMARK    1  A    between atoms: C2_2  and  C4_4
REMARK    2  A    between atoms: N1_7  and  C7_8
REMARK    3  A    between atoms: C7_8  and  C9_15
REMARK    4  A    between atoms: N2_9  and  N3_11
REMARK    5  A    between atoms: N3_11  and  C8_13
REMARK    6  A    between atoms: C9_15  and  N4_16
REMARK    7  A    between atoms: C9_15  and  C10_20
ROOT
HETATM    1  C7  UNL     1     -18.578   0.703 -16.847  1.00  0.00     0.125 C
HETATM    2  N2  UNL     1     -17.649   1.528 -16.507  1.00  0.00    -0.285 N
ATOM      3  H2  UNL     1     -16.684   1.310 -16.756  1.00  0.00     0.188 HD
ENDROOT
BRANCH   1   4
HETATM    4  N1  UNL     1     -19.920   1.016 -16.496  1.00  0.00    -0.367 N
HETATM    5  C6  UNL     1     -20.794   1.787 -17.360  1.00  0.00     0.124 C
HETATM    6  C5  UNL     1     -22.182   1.622 -16.722  1.00  0.00     0.026 C
HETATM    7  C4  UNL     1     -21.806   1.604 -15.268  1.00  0.00     0.008 C
HETATM    8  C13 UNL     1     -20.642   0.648 -15.272  1.00  0.00     0.129 C
BRANCH   7   9
HETATM    9  C2  UNL     1     -22.920   1.159 -14.367  1.00  0.00    -0.017 C
HETATM   10  C1  UNL     1     -22.936   1.883 -13.051  1.00  0.00     0.010 C
HETATM   11  C3  UNL     1     -22.837  -0.321 -14.093  1.00  0.00     0.010 C
ENDBRANCH   7   9
ENDBRANCH   1   4
BRANCH   1  12
HETATM   12  C9  UNL     1     -18.222  -0.522 -17.579  1.00  0.00     0.255 C
BRANCH  12  13
HETATM   13  N4  UNL     1     -18.193  -1.698 -16.734  1.00  0.00    -0.068 N
ATOM     14  H43 UNL     1     -17.285  -2.159 -16.783  1.00  0.00     0.275 HD
ATOM     15  H42 UNL     1     -18.197  -1.437 -15.748  1.00  0.00     0.275 HD
ATOM     16  H41 UNL     1     -18.946  -2.354 -16.940  1.00  0.00     0.275 HD
ENDBRANCH  12  13
BRANCH  12  17
HETATM   17  C10 UNL     1     -16.891  -0.350 -18.264  1.00  0.00     0.024 A
HETATM   18  C11 UNL     1     -16.991  -0.425 -19.804  1.00  0.00     0.007 A
HETATM   19  C12 UNL     1     -16.318  -1.527 -18.995  1.00  0.00     0.007 A
ENDBRANCH  12  17
ENDBRANCH   1  12
BRANCH   2  20
HETATM   20  N3  UNL     1     -17.911   2.694 -15.821  1.00  0.00    -0.276 N
ATOM     21  H3  UNL     1     -18.236   3.503 -16.351  1.00  0.00     0.189 HD
BRANCH  20  22
HETATM   22  C8  UNL     1     -17.771   2.815 -14.572  1.00  0.00     0.368 C
HETATM   23  O1  UNL     1     -17.491   3.270 -13.454  1.00  0.00    -0.282 OA
ENDBRANCH  20  22
ENDBRANCH   2  20
TORSDOF 7
ENDMDL