MODEL 3
REMARK VINA RESULT: -5.663741515      0.967      1.028
REMARK  6 active torsions:
REMARK  status: ('A' for Active; 'I' for Inactive)
REMARK    1  A    between atoms: C3_3  and  C4_4
REMARK    2  A    between atoms: C4_4  and  O1_5
REMARK    3  A    between atoms: O1_5  and  C5_6
REMARK    4  A    between atoms: C5_6  and  C6_7
REMARK    5  A    between atoms: C12_14  and  O2_15
REMARK    6  A    between atoms: C13_17  and  O3_18
ROOT
HETATM    1  C1  UNL     1     -18.080  -0.809 -21.736  1.00  0.00     0.012 C
HETATM    2  C2  UNL     1     -17.245  -0.968 -20.874  1.00  0.00    -0.115 C
HETATM    3  C3  UNL     1     -16.226  -1.162 -19.842  1.00  0.00     0.119 C
ENDROOT
BRANCH   3   4
HETATM    4  C4  UNL     1     -16.905  -1.897 -18.681  1.00  0.00     0.179 C
BRANCH   4   5
HETATM    5  O1  UNL     1     -17.276  -1.112 -17.668  1.00  0.00    -0.389 OA
BRANCH   5   6
HETATM    6  C5  UNL     1     -17.123   0.205 -17.588  1.00  0.00     0.181 C
BRANCH   6   7
HETATM    7  C6  UNL     1     -18.238   1.088 -17.130  1.00  0.00     0.030 C
HETATM    8  C7  UNL     1     -18.911   1.800 -18.241  1.00  0.00     0.022 C
HETATM    9  C8  UNL     1     -19.186   0.229 -16.336  1.00  0.00     0.250 C
HETATM   10  N1  UNL     1     -20.279   0.891 -15.722  1.00  0.00    -0.071 N
HETATM   11  C9  UNL     1     -21.470   0.987 -16.585  1.00  0.00     0.272 C
HETATM   12  C10 UNL     1     -20.698   0.027 -14.600  1.00  0.00     0.272 C
HETATM   13  C11 UNL     1     -20.002   2.210 -15.234  1.00  0.00     0.270 C
HETATM   14  C12 UNL     1     -18.559   2.516 -15.065  1.00  0.00     0.173 C
HETATM   15  C13 UNL     1     -17.663   2.117 -16.177  1.00  0.00     0.160 C
BRANCH  14  16
HETATM   16  O2  UNL     1     -18.428   3.894 -14.873  1.00  0.00    -0.391 OA
ATOM     17  H2  UNL     1     -17.609   4.170 -15.268  1.00  0.00     0.210 HD
ENDBRANCH  14  16
BRANCH  15  18
HETATM   18  O3  UNL     1     -16.450   1.680 -15.624  1.00  0.00    -0.392 OA
ATOM     19  H3  UNL     1     -16.499   1.632 -14.677  1.00  0.00     0.210 HD
ENDBRANCH  15  18
ENDBRANCH   6   7
ENDBRANCH   5   6
ENDBRANCH   4   5
ENDBRANCH   3   4
TORSDOF 6
ENDMDL