MODEL 3
REMARK VINA RESULT: -6.182637947      1.112      1.148
REMARK  7 active torsions:
REMARK  status: ('A' for Active; 'I' for Inactive)
REMARK    1  A    between atoms: C2_2  and  C3_3
REMARK    2  A    between atoms: C3_3  and  O1_4
REMARK    3  A    between atoms: N1_10  and  C8_11
REMARK    4  A    between atoms: C8_11  and  C9_12
REMARK    5  A    between atoms: C9_12  and  N2_13
REMARK    6  A    between atoms: N2_13  and  O2_14
REMARK    7  A    between atoms: N2_13  and  C10_16
ROOT
HETATM    1  C1  UNL     1     -18.451  -0.113 -13.943  1.00  0.00     0.018 C
HETATM    2  C2  UNL     1     -19.643   0.345 -14.768  1.00  0.00    -0.018 C
HETATM    3  C4  UNL     1     -19.668   1.811 -14.962  1.00  0.00     0.023 C
HETATM    4  C5  UNL     1     -19.733   1.643 -16.466  1.00  0.00    -0.023 C
HETATM    5  C6  UNL     1     -21.112   2.018 -16.981  1.00  0.00     0.017 C
HETATM    6  C7  UNL     1     -18.686   2.395 -17.242  1.00  0.00     0.126 C
HETATM    7  N1  UNL     1     -17.805   1.560 -17.975  1.00  0.00    -0.410 N
HETATM    8  C11 UNL     1     -17.137   0.686 -17.069  1.00  0.00     0.117 C
HETATM    9  C12 UNL     1     -18.143  -0.343 -16.621  1.00  0.00     0.026 C
HETATM   10  C13 UNL     1     -19.465   0.194 -16.266  1.00  0.00     0.007 C
ENDROOT
BRANCH   7  11
HETATM   11  C8  UNL     1     -18.265   1.011 -19.194  1.00  0.00     0.139 C
BRANCH  11  12
HETATM   12  C9  UNL     1     -17.288   1.218 -20.350  1.00  0.00     0.178 C
BRANCH  12  13
HETATM   13  N2  UNL     1     -16.606  -0.041 -20.650  1.00  0.00    -0.234 N
BRANCH  13  14
HETATM   14  O2  UNL     1     -15.491   0.031 -21.395  1.00  0.00    -0.285 OA
ATOM     15  H2  UNL     1     -15.570  -0.201 -22.313  1.00  0.00     0.245 HD
ENDBRANCH  13  14
BRANCH  13  16
HETATM   16  C10 UNL     1     -17.101  -1.273 -20.168  1.00  0.00     0.376 C
HETATM   17  O3  UNL     1     -16.270  -2.083 -19.647  1.00  0.00    -0.281 OA
ENDBRANCH  13  16
ENDBRANCH  12  13
ENDBRANCH  11  12
ENDBRANCH   7  11
BRANCH   2  18
HETATM   18  C3  UNL     1     -20.864  -0.350 -14.257  1.00  0.00     0.173 C
BRANCH  18  19
HETATM   19  O1  UNL     1     -21.889   0.455 -13.842  1.00  0.00    -0.400 OA
ATOM     20  H1  UNL     1     -22.654   0.486 -14.406  1.00  0.00     0.209 HD
ENDBRANCH  18  19
ENDBRANCH   2  18
TORSDOF 7
ENDMDL