MODEL 4
REMARK VINA RESULT: -5.544253569      1.292      1.939
REMARK  7 active torsions:
REMARK  status: ('A' for Active; 'I' for Inactive)
REMARK    1  A    between atoms: N1_2  and  C2_3
REMARK    2  A    between atoms: C2_3  and  C3_4
REMARK    3  A    between atoms: C4_5  and  C5_6
REMARK    4  A    between atoms: C5_6  and  N2_7
REMARK    5  A    between atoms: N2_7  and  S1_9
REMARK    6  A    between atoms: S1_9  and  C6_11
REMARK    7  A    between atoms: N3_12  and  O2_14
ROOT
HETATM    1  C5  UNL     1     -17.787   2.057 -18.784  1.00  0.00     0.223 C
ENDROOT
BRANCH   1   2
HETATM    2  C4  UNL     1     -18.547   1.419 -17.716  1.00  0.00    -0.085 C
HETATM    3  C3  UNL     1     -19.161   0.884 -16.825  1.00  0.00    -0.077 C
BRANCH   3   4
HETATM    4  C2  UNL     1     -19.892   0.218 -15.723  1.00  0.00     0.330 C
BRANCH   4   5
HETATM    5  N1  UNL     1     -21.142   0.900 -15.505  1.00  0.00    -0.061 N
HETATM    6  C1  UNL     1     -21.796   1.068 -16.773  1.00  0.00     0.273 C
HETATM    7  C7  UNL     1     -21.915   0.112 -14.568  1.00  0.00     0.238 C
HETATM    8  C8  UNL     1     -22.650   1.059 -13.674  1.00  0.00     0.029 C
HETATM    9  C9  UNL     1     -22.310   2.430 -14.250  1.00  0.00     0.029 C
HETATM   10  C10 UNL     1     -20.911   2.141 -14.810  1.00  0.00     0.238 C
ENDBRANCH   4   5
ENDBRANCH   3   4
ENDBRANCH   1   2
BRANCH   1  11
HETATM   11  N2  UNL     1     -17.834   1.272 -19.972  1.00  0.00    -0.325 N
ATOM     12  H2  UNL     1     -18.554   1.428 -20.677  1.00  0.00     0.171 HD
BRANCH  11  13
HETATM   13  S1  UNL     1     -16.684   0.103 -20.171  1.00  0.00     0.154 S
HETATM   14  O1  UNL     1     -15.672   0.221 -21.457  1.00  0.00    -0.230 OA
BRANCH  13  15
HETATM   15  C6  UNL     1     -17.039  -1.477 -19.627  1.00  0.00     0.214 C
HETATM   16  N3  UNL     1     -17.008  -1.763 -18.371  1.00  0.00    -0.270 N
ATOM     17  H3  UNL     1     -16.767  -1.031 -17.702  1.00  0.00     0.194 HD
BRANCH  16  18
HETATM   18  O2  UNL     1     -17.292  -3.036 -17.904  1.00  0.00    -0.290 OA
ATOM     19  H2  UNL     1     -17.392  -3.219 -16.977  1.00  0.00     0.244 HD
ENDBRANCH  16  18
ENDBRANCH  13  15
ENDBRANCH  11  13
ENDBRANCH   1  11
TORSDOF 7
ENDMDL