MODEL 2
REMARK VINA RESULT: -6.050986766      1.751      1.883
REMARK  4 active torsions:
REMARK  status: ('A' for Active; 'I' for Inactive)
REMARK    1  A    between atoms: C2_2  and  C4_4
REMARK    2  A    between atoms: C5_5  and  C6_6
REMARK    3  A    between atoms: C6_6  and  C7_7
REMARK    4  A    between atoms: C10_13  and  S1_14
ROOT
HETATM    1  C4  UNL     1     -19.978   2.386 -16.569  1.00  0.00     0.011 A
HETATM    2  C5  UNL     1     -18.692   1.781 -16.998  1.00  0.00     0.010 A
HETATM    3  C10 UNL     1     -18.705   2.727 -15.888  1.00  0.00     0.088 A
ENDROOT
BRANCH   2   4
HETATM    4  C6  UNL     1     -18.082   2.003 -18.333  1.00  0.00     0.039 C
BRANCH   4   5
HETATM    5  C7  UNL     1     -17.946   0.823 -19.214  1.00  0.00     0.193 C
HETATM    6  N1  UNL     1     -16.982  -0.188 -18.876  1.00  0.00    -0.122 NA
HETATM    7  N2  UNL     1     -16.737  -0.333 -20.239  1.00  0.00    -0.267 N
HETATM    8  C8  UNL     1     -16.340  -1.410 -21.106  1.00  0.00     0.176 C
HETATM    9  C9  UNL     1     -17.051   1.039 -20.388  1.00  0.00     0.256 C
HETATM   10  O1  UNL     1     -16.703   1.957 -21.167  1.00  0.00    -0.270 OA
ENDBRANCH   4   5
ENDBRANCH   2   4
BRANCH   1  11
HETATM   11  C2  UNL     1     -20.986   1.570 -15.792  1.00  0.00    -0.017 C
HETATM   12  C1  UNL     1     -21.685   2.427 -14.759  1.00  0.00     0.010 C
HETATM   13  C3  UNL     1     -22.049   1.001 -16.718  1.00  0.00     0.010 C
ENDBRANCH   1  11
BRANCH   3  14
HETATM   14  S1  UNL     1     -18.421   2.087 -14.229  1.00  0.00     0.016 S
HETATM   15  C11 UNL     1     -17.403   0.645 -14.436  1.00  0.00     0.127 C
HETATM   16  O2  UNL     1     -17.489   3.232 -13.391  1.00  0.00    -0.258 OA
ENDBRANCH   3  14
TORSDOF 4
ENDMDL