MODEL 1
REMARK VINA RESULT: -6.365412732      0.000      0.000
REMARK  6 active torsions:
REMARK  status: ('A' for Active; 'I' for Inactive)
REMARK    1  A    between atoms: C1_4  and  C2_5
REMARK    2  A    between atoms: C1_4  and  N3_13
REMARK    3  A    between atoms: C2_5  and  C3_6
REMARK    4  A    between atoms: C3_6  and  C4_7
REMARK    5  A    between atoms: C4_7  and  C5_8
REMARK    6  A    between atoms: C5_8  and  N2_9
ROOT
HETATM    1  N1  UNL     1     -17.503   2.524 -15.483  1.00  0.00    -0.389 N
ATOM      2  H11 UNL     1     -16.553   2.266 -15.749  1.00  0.00     0.157 HD
ATOM      3  H12 UNL     1     -17.609   3.230 -14.755  1.00  0.00     0.157 HD
HETATM    4  C1  UNL     1     -18.567   2.060 -16.028  1.00  0.00     0.072 C
ENDROOT
BRANCH   4   5
HETATM    5  C2  UNL     1     -19.927   2.429 -15.647  1.00  0.00     0.076 C
BRANCH   5   6
HETATM    6  C3  UNL     1     -20.968   1.983 -16.587  1.00  0.00     0.009 C
BRANCH   6   7
HETATM    7  C4  UNL     1     -21.944   0.967 -16.166  1.00  0.00     0.027 C
BRANCH   7   8
HETATM    8  C5  UNL     1     -21.761   0.229 -14.902  1.00  0.00     0.229 C
BRANCH   8   9
HETATM    9  N2  UNL     1     -23.046  -0.492 -14.668  1.00  0.00    -0.079 N
ATOM     10  H23 UNL     1     -23.177  -0.792 -13.702  1.00  0.00     0.274 HD
ATOM     11  H22 UNL     1     -23.868   0.110 -14.720  1.00  0.00     0.274 HD
ATOM     12  H21 UNL     1     -23.057  -1.259 -15.340  1.00  0.00     0.274 HD
ENDBRANCH   8   9
ENDBRANCH   7   8
ENDBRANCH   6   7
ENDBRANCH   5   6
ENDBRANCH   4   5
BRANCH   4  13
HETATM   13  N3  UNL     1     -18.418   1.062 -17.056  1.00  0.00    -0.368 N
HETATM   14  C6  UNL     1     -18.225  -0.293 -16.610  1.00  0.00     0.143 C
HETATM   15  C7  UNL     1     -17.743  -1.127 -17.772  1.00  0.00     0.142 C
HETATM   16  N4  UNL     1     -16.860  -0.447 -18.655  1.00  0.00    -0.386 N
HETATM   17  C8  UNL     1     -16.133  -1.324 -19.460  1.00  0.00     0.058 C
HETATM   18  C12 UNL     1     -17.307   0.775 -19.193  1.00  0.00     0.101 C
HETATM   19  C9  UNL     1     -16.115  -1.125 -20.919  1.00  0.00     0.044 C
HETATM   20  C10 UNL     1     -16.458   0.271 -21.376  1.00  0.00     0.007 C
HETATM   21  C11 UNL     1     -17.735   0.658 -20.647  1.00  0.00     0.027 C
HETATM   22  C13 UNL     1     -18.460   1.401 -18.447  1.00  0.00     0.149 C
ENDBRANCH   4  13
TORSDOF 6
ENDMDL