MODEL 2
REMARK VINA RESULT: -5.663967677      1.821      6.124
REMARK  4 active torsions:
REMARK  status: ('A' for Active; 'I' for Inactive)
REMARK    1  A    between atoms: C2_2  and  C3_3
REMARK    2  A    between atoms: C3_3  and  C4_4
REMARK    3  A    between atoms: C3_3  and  N3_15
REMARK       I    between atoms: C4_4  and  N1_6
REMARK    4  A    between atoms: N1_6  and  C5_8
ROOT
HETATM    1  C4  UNL     1     -18.845   1.978 -17.849  1.00  0.00     0.255 C
HETATM    2  O1  UNL     1     -18.066   2.674 -17.155  1.00  0.00    -0.271 OA
HETATM    3  N1  UNL     1     -20.028   1.497 -17.230  1.00  0.00    -0.353 N
ATOM      4  H1  UNL     1     -20.669   0.928 -17.782  1.00  0.00     0.163 HD
ENDROOT
BRANCH   1   5
HETATM    5  C3  UNL     1     -18.464   1.720 -19.246  1.00  0.00     0.336 C
BRANCH   5   6
HETATM    6  C2  UNL     1     -19.690   1.551 -20.068  1.00  0.00     0.008 C
HETATM    7  C1  UNL     1     -20.339   2.557 -20.623  1.00  0.00     0.009 C
ENDBRANCH   5   6
BRANCH   5   8
HETATM    8  N3  UNL     1     -17.442   0.761 -19.458  1.00  0.00     0.105 N
HETATM    9  C9  UNL     1     -17.705   0.136 -20.767  1.00  0.00     0.274 C
HETATM   10  C10 UNL     1     -16.384  -0.359 -21.317  1.00  0.00     0.030 C
HETATM   11  C11 UNL     1     -15.741  -1.210 -20.247  1.00  0.00     0.003 C
HETATM   12  C12 UNL     1     -16.682  -1.536 -19.124  1.00  0.00     0.030 C
HETATM   13  C13 UNL     1     -17.351  -0.312 -18.524  1.00  0.00     0.274 C
ENDBRANCH   5   8
ENDBRANCH   1   5
BRANCH   3  14
HETATM   14  C5  UNL     1     -20.365   1.777 -15.854  1.00  0.00     0.111 C
HETATM   15  C6  UNL     1     -21.747   2.319 -15.662  1.00  0.00     0.054 C
HETATM   16  C7  UNL     1     -22.378   1.330 -14.728  1.00  0.00     0.234 C
HETATM   17  N2  UNL     1     -21.296   0.692 -14.019  1.00  0.00    -0.073 N
HETATM   18  C8  UNL     1     -20.205   0.576 -14.955  1.00  0.00     0.257 C
ATOM     19  H22 UNL     1     -21.039   1.173 -13.157  1.00  0.00     0.277 HD
ATOM     20  H21 UNL     1     -21.559  -0.197 -13.594  1.00  0.00     0.277 HD
ENDBRANCH   3  14
TORSDOF 4
ENDMDL