MODEL 3
REMARK VINA RESULT: -5.208030430      1.144      1.383
REMARK  5 active torsions:
REMARK  status: ('A' for Active; 'I' for Inactive)
REMARK    1  A    between atoms: C2_2  and  N1_3
REMARK    2  A    between atoms: N1_3  and  C5_6
REMARK    3  A    between atoms: C5_6  and  C6_7
REMARK    4  A    between atoms: C6_7  and  O1_9
REMARK    5  A    between atoms: C6_7  and  C8_11
ROOT
HETATM    1  C6  UNL     1     -17.851   0.266 -16.954  1.00  0.00     0.104 C
HETATM    2  C7  UNL     1     -18.046  -1.285 -16.938  1.00  0.00     0.050 C
ENDROOT
BRANCH   1   3
HETATM    3  C5  UNL     1     -19.146   0.805 -16.518  1.00  0.00     0.276 C
BRANCH   3   4
HETATM    4  N1  UNL     1     -19.311   1.848 -15.623  1.00  0.00    -0.072 N
HETATM    5  C3  UNL     1     -19.423   1.304 -14.243  1.00  0.00     0.272 C
HETATM    6  C4  UNL     1     -18.415   2.932 -15.525  1.00  0.00     0.272 C
BRANCH   4   7
HETATM    7  C2  UNL     1     -20.648   2.471 -15.793  1.00  0.00     0.232 C
HETATM    8  C1  UNL     1     -21.422   1.759 -16.897  1.00  0.00     0.034 C
ENDBRANCH   4   7
ENDBRANCH   3   4
ENDBRANCH   1   3
BRANCH   1   9
HETATM    9  O1  UNL     1     -16.765   0.427 -16.123  1.00  0.00    -0.386 OA
ATOM     10  H1  UNL     1     -15.968   0.793 -16.489  1.00  0.00     0.210 HD
ENDBRANCH   1   9
BRANCH   1  11
HETATM   11  C8  UNL     1     -17.420   0.624 -18.360  1.00  0.00     0.157 C
HETATM   12  C9  UNL     1     -18.579   1.106 -19.198  1.00  0.00     0.036 C
HETATM   13  C10 UNL     1     -18.207   1.373 -20.603  1.00  0.00     0.022 C
HETATM   14  C11 UNL     1     -16.770   1.497 -20.920  1.00  0.00     0.114 C
HETATM   15  N2  UNL     1     -16.091   0.322 -21.333  1.00  0.00    -0.419 N
HETATM   16  C12 UNL     1     -16.799  -0.909 -21.223  1.00  0.00     0.140 C
ATOM     17  H2  UNL     1     -15.138   0.357 -21.692  1.00  0.00     0.153 HD
HETATM   18  C13 UNL     1     -17.286  -1.190 -19.817  1.00  0.00     0.187 C
HETATM   19  O2  UNL     1     -16.645  -0.298 -18.989  1.00  0.00    -0.381 OA
ENDBRANCH   1  11
TORSDOF 5
ENDMDL