MODEL 5
REMARK VINA RESULT: -5.938514993      1.259      1.512
REMARK  14 active torsions:
REMARK  status: ('A' for Active; 'I' for Inactive)
REMARK    1  A    between atoms: C2_2  and  C4_4
REMARK    2  A    between atoms: C4_4  and  C5_5
REMARK    3  A    between atoms: C7_10  and  C8_11
REMARK    4  A    between atoms: C8_11  and  C9_12
REMARK    5  A    between atoms: C13_19  and  C14_20
REMARK    6  A    between atoms: C14_20  and  C15_21
REMARK    7  A    between atoms: N4_28  and  C19_29
REMARK    8  A    between atoms: C19_29  and  C20_30
REMARK    9  A    between atoms: C20_30  and  C21_31
REMARK   10  A    between atoms: C23_36  and  C24_37
REMARK   11  A    between atoms: C24_37  and  C25_38
REMARK   12  A    between atoms: C29_45  and  C30_46
REMARK   13  A    between atoms: C30_46  and  C31_47
REMARK   14  A    between atoms: C34_52  and  O7_53
ROOT
HETATM    1  C5  UNL     1      22.169  39.998  18.023  1.00  0.00     0.159 C
HETATM    2  N1  UNL     1      22.454  41.049  18.974  1.00  0.00    -0.347 N
ATOM      3  H1  UNL     1      23.402  41.085  19.350  1.00  0.00     0.163 HD
HETATM    4  C6  UNL     1      21.548  42.030  19.432  1.00  0.00     0.241 C
HETATM    5  O1  UNL     1      21.703  42.546  20.566  1.00  0.00    -0.271 OA
HETATM    6  C7  UNL     1      20.360  42.524  18.629  1.00  0.00     0.177 C
HETATM    7  N2  UNL     1      19.393  43.000  19.597  1.00  0.00    -0.346 N
ATOM      8  H2  UNL     1      19.558  43.935  19.970  1.00  0.00     0.163 HD
HETATM    9  C12 UNL     1      18.265  42.341  20.081  1.00  0.00     0.241 C
HETATM   10  O2  UNL     1      17.131  42.875  20.040  1.00  0.00    -0.271 OA
HETATM   11  C13 UNL     1      18.247  40.953  20.702  1.00  0.00     0.178 C
HETATM   12  N3  UNL     1      17.104  40.218  20.228  1.00  0.00    -0.329 N
ATOM     13  H3  UNL     1      16.679  39.575  20.896  1.00  0.00     0.165 HD
HETATM   14  C18 UNL     1      16.500  40.276  18.958  1.00  0.00     0.325 C
HETATM   15  O3  UNL     1      15.236  40.570  18.941  1.00  0.00    -0.247 OA
HETATM   16  N4  UNL     1      17.075  40.053  17.680  1.00  0.00    -0.268 N
HETATM   17  C22 UNL     1      17.867  38.904  17.366  1.00  0.00     0.250 C
HETATM   18  O5  UNL     1      18.800  39.097  16.542  1.00  0.00    -0.271 OA
HETATM   19  C23 UNL     1      17.685  37.559  17.913  1.00  0.00     0.178 C
HETATM   20  N6  UNL     1      18.756  37.209  18.795  1.00  0.00    -0.343 N
ATOM     21  H6  UNL     1      18.383  36.801  19.652  1.00  0.00     0.163 HD
HETATM   22  C28 UNL     1      20.117  37.248  18.853  1.00  0.00     0.264 C
HETATM   23  O6  UNL     1      20.616  37.964  19.817  1.00  0.00    -0.266 OA
HETATM   24  C29 UNL     1      21.235  36.656  18.074  1.00  0.00     0.079 C
HETATM   25  N7  UNL     1      22.464  37.406  18.230  1.00  0.00    -0.338 N
ATOM     26  H7  UNL     1      23.310  36.862  18.057  1.00  0.00     0.167 HD
HETATM   27  C34 UNL     1      22.697  38.724  18.571  1.00  0.00     0.139 C
ENDROOT
BRANCH  16  28
HETATM   28  C19 UNL     1      16.892  41.059  16.663  1.00  0.00     0.146 C
BRANCH  28  29
HETATM   29  C20 UNL     1      17.203  42.454  17.010  1.00  0.00     0.120 C
BRANCH  29  30
HETATM   30  C21 UNL     1      16.282  43.528  16.741  1.00  0.00     0.232 C
HETATM   31  N5  UNL     1      15.078  43.717  17.500  1.00  0.00    -0.062 NA
HETATM   32  O4  UNL     1      16.460  44.369  15.840  1.00  0.00    -0.277 OA
ENDBRANCH  29  30
ENDBRANCH  28  29
ENDBRANCH  16  28
BRANCH  19  33
HETATM   33  C24 UNL     1      17.296  36.499  16.924  1.00  0.00     0.038 C
BRANCH  33  34
HETATM   34  C25 UNL     1      17.105  35.180  17.603  1.00  0.00    -0.020 C
HETATM   35  C26 UNL     1      15.692  34.697  17.649  1.00  0.00     0.009 C
HETATM   36  C27 UNL     1      17.967  34.125  16.909  1.00  0.00     0.009 C
ENDBRANCH  33  34
ENDBRANCH  19  33
BRANCH  11  37
HETATM   37  C14 UNL     1      18.265  41.210  22.162  1.00  0.00     0.038 C
BRANCH  37  38
HETATM   38  C15 UNL     1      17.093  40.920  23.000  1.00  0.00    -0.020 C
HETATM   39  C16 UNL     1      16.320  42.138  23.454  1.00  0.00     0.009 C
HETATM   40  C17 UNL     1      17.213  39.931  24.097  1.00  0.00     0.009 C
ENDBRANCH  37  38
ENDBRANCH  11  37
BRANCH  24  41
HETATM   41  C30 UNL     1      20.935  36.141  16.749  1.00  0.00     0.067 C
BRANCH  41  42
HETATM   42  C31 UNL     1      21.629  34.888  16.318  1.00  0.00    -0.017 C
HETATM   43  C32 UNL     1      22.013  33.888  17.323  1.00  0.00     0.010 C
HETATM   44  C33 UNL     1      22.923  35.324  15.576  1.00  0.00     0.010 C
ENDBRANCH  41  42
ENDBRANCH  24  41
BRANCH   6  45
HETATM   45  C8  UNL     1      20.838  43.693  17.805  1.00  0.00     0.038 C
BRANCH  45  46
HETATM   46  C9  UNL     1      19.852  44.721  17.422  1.00  0.00    -0.020 C
HETATM   47  C10 UNL     1      20.058  46.104  17.953  1.00  0.00     0.009 C
HETATM   48  C11 UNL     1      19.933  44.847  15.888  1.00  0.00     0.009 C
ENDBRANCH  45  46
ENDBRANCH   6  45
BRANCH  27  49
HETATM   49  O7  UNL     1      23.539  38.887  19.555  1.00  0.00    -0.348 OA
ATOM     50  H7  UNL     1      23.495  38.200  20.211  1.00  0.00     0.219 HD
ENDBRANCH  27  49
BRANCH   1  51
HETATM   51  C4  UNL     1      22.653  40.323  16.677  1.00  0.00     0.037 C
BRANCH  51  52
HETATM   52  C2  UNL     1      21.749  40.652  15.572  1.00  0.00    -0.020 C
HETATM   53  C1  UNL     1      21.703  39.613  14.499  1.00  0.00     0.009 C
HETATM   54  C3  UNL     1      22.203  41.968  14.889  1.00  0.00     0.009 C
ENDBRANCH  51  52
ENDBRANCH   1  51
TORSDOF 14
ENDMDL