MODEL 3
REMARK VINA RESULT: -5.685893656      1.626      2.037
REMARK  13 active torsions:
REMARK  status: ('A' for Active; 'I' for Inactive)
REMARK    1  A    between atoms: C2_2  and  C4_4
REMARK    2  A    between atoms: C4_4  and  C5_5
REMARK    3  A    between atoms: C7_10  and  C8_11
REMARK    4  A    between atoms: C8_11  and  C9_12
REMARK    5  A    between atoms: C11_19  and  C12_20
REMARK    6  A    between atoms: C12_20  and  C13_21
REMARK    7  A    between atoms: C17_28  and  C18_29
REMARK    8  A    between atoms: C18_29  and  C19_30
REMARK    9  A    between atoms: C23_37  and  C24_38
REMARK   10  A    between atoms: C24_38  and  C25_39
REMARK   11  A    between atoms: C29_46  and  C30_47
REMARK   12  A    between atoms: C30_47  and  C31_48
REMARK   13  A    between atoms: C34_53  and  O7_54
ROOT
HETATM    1  C5  UNL     1      20.965  43.475  18.536  1.00  0.00     0.159 C
HETATM    2  N1  UNL     1      21.910  44.326  19.223  1.00  0.00    -0.347 N
ATOM      3  H1  UNL     1      21.525  45.155  19.675  1.00  0.00     0.163 HD
HETATM    4  C6  UNL     1      23.293  44.142  19.338  1.00  0.00     0.241 C
HETATM    5  O1  UNL     1      24.039  45.159  19.277  1.00  0.00    -0.271 OA
HETATM    6  C7  UNL     1      24.004  42.853  19.532  1.00  0.00     0.185 C
HETATM    7  N3  UNL     1      25.079  42.850  18.538  1.00  0.00    -0.346 N
ATOM      8  H3  UNL     1      25.613  43.711  18.423  1.00  0.00     0.163 HD
HETATM    9  C10 UNL     1      25.433  41.760  17.734  1.00  0.00     0.241 C
HETATM   10  O3  UNL     1      26.659  41.480  17.503  1.00  0.00    -0.271 OA
HETATM   11  C11 UNL     1      24.438  40.862  17.097  1.00  0.00     0.177 C
HETATM   12  N4  UNL     1      24.815  39.455  17.194  1.00  0.00    -0.346 N
ATOM     13  H4  UNL     1      25.803  39.228  17.303  1.00  0.00     0.163 HD
HETATM   14  C16 UNL     1      23.890  38.388  17.145  1.00  0.00     0.244 C
HETATM   15  O4  UNL     1      24.220  37.401  16.409  1.00  0.00    -0.271 OA
HETATM   16  C17 UNL     1      22.577  38.354  17.890  1.00  0.00     0.200 C
HETATM   17  N5  UNL     1      21.476  38.351  16.965  1.00  0.00    -0.343 N
ATOM     18  H5  UNL     1      21.711  37.973  16.047  1.00  0.00     0.163 HD
HETATM   19  C22 UNL     1      20.151  38.765  17.077  1.00  0.00     0.241 C
HETATM   20  O5  UNL     1      19.703  39.620  16.216  1.00  0.00    -0.271 OA
HETATM   21  C23 UNL     1      19.122  38.365  18.067  1.00  0.00     0.177 C
HETATM   22  N6  UNL     1      19.037  39.169  19.246  1.00  0.00    -0.346 N
ATOM     23  H6  UNL     1      19.038  38.626  20.108  1.00  0.00     0.163 HD
HETATM   24  C28 UNL     1      18.954  40.531  19.455  1.00  0.00     0.241 C
HETATM   25  O6  UNL     1      19.812  41.044  20.277  1.00  0.00    -0.271 OA
HETATM   26  C29 UNL     1      18.028  41.531  18.888  1.00  0.00     0.175 C
HETATM   27  N7  UNL     1      18.475  42.896  19.043  1.00  0.00    -0.359 N
ATOM     28  H7  UNL     1      17.727  43.579  18.921  1.00  0.00     0.162 HD
HETATM   29  C34 UNL     1      19.688  43.469  19.318  1.00  0.00     0.135 C
ENDROOT
BRANCH   1  30
HETATM   30  C4  UNL     1      20.763  43.968  17.138  1.00  0.00     0.037 C
BRANCH  30  31
HETATM   31  C2  UNL     1      20.176  45.306  16.937  1.00  0.00    -0.020 C
HETATM   32  C1  UNL     1      18.960  45.187  15.978  1.00  0.00     0.009 C
HETATM   33  C3  UNL     1      21.046  46.354  16.301  1.00  0.00     0.009 C
ENDBRANCH  30  31
ENDBRANCH   1  30
BRANCH  29  34
HETATM   34  O7  UNL     1      19.731  44.116  20.447  1.00  0.00    -0.348 OA
ATOM     35  H7  UNL     1      19.353  44.987  20.426  1.00  0.00     0.219 HD
ENDBRANCH  29  34
BRANCH   6  36
HETATM   36  C8  UNL     1      24.750  42.906  20.873  1.00  0.00     0.134 C
BRANCH  36  37
HETATM   37  C9  UNL     1      24.089  42.179  21.945  1.00  0.00     0.233 C
HETATM   38  N2  UNL     1      24.796  41.846  23.127  1.00  0.00    -0.062 NA
HETATM   39  O2  UNL     1      22.894  41.825  21.874  1.00  0.00    -0.277 OA
ENDBRANCH  36  37
ENDBRANCH   6  36
BRANCH  26  40
HETATM   40  C30 UNL     1      16.596  41.360  19.287  1.00  0.00     0.038 C
BRANCH  40  41
HETATM   41  C31 UNL     1      15.524  41.492  18.315  1.00  0.00    -0.020 C
HETATM   42  C32 UNL     1      14.623  42.667  18.356  1.00  0.00     0.009 C
HETATM   43  C33 UNL     1      15.977  41.320  16.856  1.00  0.00     0.009 C
ENDBRANCH  40  41
ENDBRANCH  26  40
BRANCH  11  44
HETATM   44  C12 UNL     1      24.100  41.278  15.703  1.00  0.00     0.038 C
BRANCH  44  45
HETATM   45  C13 UNL     1      22.657  41.427  15.386  1.00  0.00    -0.020 C
HETATM   46  C14 UNL     1      22.353  40.373  14.306  1.00  0.00     0.009 C
HETATM   47  C15 UNL     1      22.278  42.746  14.748  1.00  0.00     0.009 C
ENDBRANCH  44  45
ENDBRANCH  11  44
BRANCH  21  48
HETATM   48  C24 UNL     1      17.751  38.237  17.372  1.00  0.00     0.038 C
BRANCH  48  49
HETATM   49  C25 UNL     1      17.065  36.970  17.808  1.00  0.00    -0.020 C
HETATM   50  C26 UNL     1      16.140  36.391  16.778  1.00  0.00     0.009 C
HETATM   51  C27 UNL     1      18.197  35.948  18.011  1.00  0.00     0.009 C
ENDBRANCH  48  49
ENDBRANCH  21  48
BRANCH  16  52
HETATM   52  C18 UNL     1      22.532  37.427  19.022  1.00  0.00     0.010 C
BRANCH  52  53
HETATM   53  C19 UNL     1      21.923  36.100  18.978  1.00  0.00    -0.089 C
HETATM   54  C20 UNL     1      22.606  35.046  18.158  1.00  0.00     0.042 C
HETATM   55  C21 UNL     1      21.359  35.575  20.281  1.00  0.00     0.042 C
ENDBRANCH  52  53
ENDBRANCH  16  52
TORSDOF 13
ENDMDL