MODEL 4
REMARK VINA RESULT: -6.069228862      2.214      7.572
REMARK  13 active torsions:
REMARK  status: ('A' for Active; 'I' for Inactive)
REMARK    1  A    between atoms: C2_2  and  C4_4
REMARK    2  A    between atoms: C4_4  and  C5_5
REMARK    3  A    between atoms: C7_10  and  C8_11
REMARK    4  A    between atoms: C8_11  and  C9_12
REMARK    5  A    between atoms: C13_19  and  C14_20
REMARK    6  A    between atoms: C14_20  and  C15_21
REMARK    7  A    between atoms: C19_28  and  C20_29
REMARK    8  A    between atoms: C20_29  and  C21_30
REMARK    9  A    between atoms: C24_35  and  O4_36
REMARK   10  A    between atoms: C25_38  and  C26_39
REMARK   11  A    between atoms: C26_39  and  C27_40
REMARK   12  A    between atoms: C31_47  and  C32_48
REMARK   13  A    between atoms: C32_48  and  C33_49
ROOT
HETATM    1  C5  UNL     1      22.313  42.146  19.095  1.00  0.00     0.154 C
HETATM    2  N1  UNL     1      22.221  41.946  17.674  1.00  0.00    -0.348 N
ATOM      3  H1  UNL     1      22.579  42.730  17.128  1.00  0.00     0.163 HD
HETATM    4  C6  UNL     1      21.752  40.915  16.907  1.00  0.00     0.241 C
HETATM    5  O1  UNL     1      22.544  40.382  16.049  1.00  0.00    -0.271 OA
HETATM    6  C7  UNL     1      20.368  40.286  16.926  1.00  0.00     0.177 C
HETATM    7  N2  UNL     1      20.399  39.078  16.144  1.00  0.00    -0.346 N
ATOM      8  H2  UNL     1      20.099  39.175  15.174  1.00  0.00     0.163 HD
HETATM    9  C12 UNL     1      20.780  37.800  16.530  1.00  0.00     0.241 C
HETATM   10  O2  UNL     1      21.601  37.200  15.732  1.00  0.00    -0.271 OA
HETATM   11  C13 UNL     1      20.375  37.012  17.740  1.00  0.00     0.177 C
HETATM   12  N3  UNL     1      21.212  37.322  18.869  1.00  0.00    -0.346 N
ATOM     13  H3  UNL     1      20.968  38.178  19.367  1.00  0.00     0.163 HD
HETATM   14  C18 UNL     1      22.311  36.626  19.386  1.00  0.00     0.241 C
HETATM   15  O3  UNL     1      22.409  36.640  20.672  1.00  0.00    -0.271 OA
HETATM   16  C19 UNL     1      23.373  35.882  18.711  1.00  0.00     0.175 C
HETATM   17  N4  UNL     1      24.496  35.563  19.595  1.00  0.00    -0.359 N
ATOM     18  H4  UNL     1      25.011  34.718  19.348  1.00  0.00     0.162 HD
HETATM   19  C24 UNL     1      24.966  36.226  20.710  1.00  0.00     0.135 C
HETATM   20  C25 UNL     1      25.572  37.576  20.844  1.00  0.00     0.159 C
HETATM   21  N5  UNL     1      25.786  38.214  19.565  1.00  0.00    -0.349 N
ATOM     22  H5  UNL     1      26.126  37.624  18.806  1.00  0.00     0.163 HD
HETATM   23  C30 UNL     1      25.569  39.580  19.266  1.00  0.00     0.223 C
HETATM   24  O5  UNL     1      25.170  39.860  18.077  1.00  0.00    -0.273 OA
HETATM   25  C31 UNL     1      25.752  40.719  20.167  1.00  0.00     0.093 C
HETATM   26  C34 UNL     1      24.738  41.823  19.839  1.00  0.00     0.095 C
HETATM   27  C35 UNL     1      23.369  41.263  19.689  1.00  0.00     0.150 C
HETATM   28  O7  UNL     1      23.061  40.130  20.021  1.00  0.00    -0.296 OA
ENDROOT
BRANCH   1  29
HETATM   29  C4  UNL     1      21.067  41.949  19.885  1.00  0.00     0.037 C
BRANCH  29  30
HETATM   30  C2  UNL     1      20.189  43.192  19.628  1.00  0.00    -0.020 C
HETATM   31  C1  UNL     1      20.987  44.368  20.133  1.00  0.00     0.009 C
HETATM   32  C3  UNL     1      18.963  43.027  20.532  1.00  0.00     0.009 C
ENDBRANCH  29  30
ENDBRANCH   1  29
BRANCH   6  33
HETATM   33  C8  UNL     1      19.407  41.325  16.446  1.00  0.00     0.038 C
BRANCH  33  34
HETATM   34  C9  UNL     1      17.971  41.188  16.676  1.00  0.00    -0.020 C
HETATM   35  C10 UNL     1      17.216  42.475  16.631  1.00  0.00     0.009 C
HETATM   36  C11 UNL     1      17.811  40.608  18.104  1.00  0.00     0.009 C
ENDBRANCH  33  34
ENDBRANCH   6  33
BRANCH  25  37
HETATM   37  C32 UNL     1      27.120  41.314  20.218  1.00  0.00     0.114 C
BRANCH  37  38
HETATM   38  C33 UNL     1      27.944  41.226  19.032  1.00  0.00     0.232 C
HETATM   39  N6  UNL     1      27.750  42.209  18.006  1.00  0.00    -0.062 NA
HETATM   40  O6  UNL     1      28.818  40.372  18.803  1.00  0.00    -0.277 OA
ENDBRANCH  37  38
ENDBRANCH  25  37
BRANCH  11  41
HETATM   41  C14 UNL     1      18.901  37.160  17.994  1.00  0.00     0.038 C
BRANCH  41  42
HETATM   42  C15 UNL     1      18.147  35.986  18.471  1.00  0.00    -0.020 C
HETATM   43  C16 UNL     1      18.880  34.744  17.886  1.00  0.00     0.009 C
HETATM   44  C17 UNL     1      16.732  35.859  17.981  1.00  0.00     0.009 C
ENDBRANCH  41  42
ENDBRANCH  11  41
BRANCH  20  45
HETATM   45  C26 UNL     1      26.759  37.604  21.723  1.00  0.00     0.037 C
BRANCH  45  46
HETATM   46  C27 UNL     1      28.107  37.489  21.171  1.00  0.00    -0.020 C
HETATM   47  C28 UNL     1      29.176  38.405  21.631  1.00  0.00     0.009 C
HETATM   48  C29 UNL     1      28.675  36.077  21.199  1.00  0.00     0.009 C
ENDBRANCH  45  46
ENDBRANCH  20  45
BRANCH  19  49
HETATM   49  O4  UNL     1      24.895  35.621  21.861  1.00  0.00    -0.348 OA
ATOM     50  H4  UNL     1      24.260  35.935  22.495  1.00  0.00     0.219 HD
ENDBRANCH  19  49
BRANCH  16  51
HETATM   51  C20 UNL     1      22.990  34.610  18.016  1.00  0.00     0.038 C
BRANCH  51  52
HETATM   52  C21 UNL     1      23.021  34.532  16.562  1.00  0.00    -0.020 C
HETATM   53  C22 UNL     1      24.253  34.239  15.819  1.00  0.00     0.009 C
HETATM   54  C23 UNL     1      22.004  33.440  16.160  1.00  0.00     0.009 C
ENDBRANCH  51  52
ENDBRANCH  16  51
TORSDOF 13
ENDMDL