MODEL 4
REMARK VINA RESULT: -6.275403933      2.549      4.486
REMARK  12 active torsions:
REMARK  status: ('A' for Active; 'I' for Inactive)
REMARK    1  A    between atoms: C2_2  and  C3_3
REMARK    2  A    between atoms: C3_3  and  C5_5
REMARK    3  A    between atoms: C7_10  and  C8_11
REMARK    4  A    between atoms: C8_11  and  C9_12
REMARK    5  A    between atoms: C13_19  and  C14_20
REMARK    6  A    between atoms: C14_20  and  C15_21
REMARK    7  A    between atoms: C17_28  and  C18_29
REMARK    8  A    between atoms: C18_29  and  C19_30
REMARK    9  A    between atoms: C23_37  and  C24_38
REMARK   10  A    between atoms: C24_38  and  C25_39
REMARK   11  A    between atoms: C29_46  and  C30_47
REMARK   12  A    between atoms: C30_47  and  C31_48
ROOT
HETATM    1  C5  UNL     1      23.389  43.905  18.356  1.00  0.00     0.328 C
HETATM    2  N1  UNL     1      22.239  43.221  18.776  1.00  0.00    -0.329 N
ATOM      3  H1  UNL     1      22.469  42.550  19.509  1.00  0.00     0.164 HD
HETATM    4  C6  UNL     1      20.888  43.184  18.492  1.00  0.00     0.242 C
HETATM    5  O1  UNL     1      20.120  42.962  19.516  1.00  0.00    -0.271 OA
HETATM    6  C7  UNL     1      20.111  43.350  17.239  1.00  0.00     0.177 C
HETATM    7  N2  UNL     1      20.070  42.131  16.461  1.00  0.00    -0.346 N
ATOM      8  H2  UNL     1      20.732  42.125  15.684  1.00  0.00     0.163 HD
HETATM    9  C12 UNL     1      19.322  40.976  16.551  1.00  0.00     0.241 C
HETATM   10  O2  UNL     1      18.678  40.588  15.501  1.00  0.00    -0.271 OA
HETATM   11  C13 UNL     1      19.088  40.026  17.665  1.00  0.00     0.186 C
HETATM   12  N3  UNL     1      19.600  38.688  17.283  1.00  0.00    -0.346 N
ATOM     13  H3  UNL     1      18.931  38.034  16.876  1.00  0.00     0.163 HD
HETATM   14  C16 UNL     1      20.910  38.244  17.427  1.00  0.00     0.241 C
HETATM   15  O5  UNL     1      21.460  37.794  16.342  1.00  0.00    -0.271 OA
HETATM   16  C17 UNL     1      21.753  38.222  18.643  1.00  0.00     0.177 C
HETATM   17  N4  UNL     1      22.515  39.415  18.800  1.00  0.00    -0.346 N
ATOM     18  H4  UNL     1      21.959  40.243  18.580  1.00  0.00     0.163 HD
HETATM   19  C22 UNL     1      23.804  39.757  19.171  1.00  0.00     0.241 C
HETATM   20  O6  UNL     1      24.071  40.165  20.373  1.00  0.00    -0.271 OA
HETATM   21  C23 UNL     1      25.068  39.742  18.353  1.00  0.00     0.177 C
HETATM   22  N5  UNL     1      25.539  41.098  18.142  1.00  0.00    -0.346 N
ATOM     23  H5  UNL     1      26.036  41.486  18.943  1.00  0.00     0.163 HD
HETATM   24  C28 UNL     1      25.447  41.969  17.076  1.00  0.00     0.252 C
HETATM   25  O7  UNL     1      26.540  42.301  16.468  1.00  0.00    -0.271 OA
HETATM   26  C29 UNL     1      24.227  42.629  16.471  1.00  0.00     0.316 C
HETATM   27  N6  UNL     1      23.913  43.887  17.059  1.00  0.00     0.121 N
HETATM   28  C34 UNL     1      25.179  44.628  17.085  1.00  0.00     0.314 C
ENDROOT
BRANCH   1  29
HETATM   29  C3  UNL     1      23.268  45.297  18.917  1.00  0.00     0.034 C
HETATM   30  C4  UNL     1      22.165  46.132  18.318  1.00  0.00     0.014 C
BRANCH  29  31
HETATM   31  C2  UNL     1      22.904  45.213  20.420  1.00  0.00     0.004 C
HETATM   32  C1  UNL     1      21.840  46.216  20.700  1.00  0.00     0.005 C
ENDBRANCH  29  31
ENDBRANCH   1  29
BRANCH  26  33
HETATM   33  C30 UNL     1      24.458  42.754  15.005  1.00  0.00     0.049 C
BRANCH  33  34
HETATM   34  C31 UNL     1      23.394  42.327  14.087  1.00  0.00    -0.020 C
HETATM   35  C32 UNL     1      23.751  42.167  12.662  1.00  0.00     0.009 C
HETATM   36  C33 UNL     1      22.827  40.944  14.538  1.00  0.00     0.009 C
ENDBRANCH  33  34
ENDBRANCH  26  33
BRANCH   6  37
HETATM   37  C8  UNL     1      18.724  43.866  17.626  1.00  0.00     0.038 C
BRANCH  37  38
HETATM   38  C9  UNL     1      18.028  44.347  16.384  1.00  0.00    -0.020 C
HETATM   39  C10 UNL     1      16.632  43.720  16.333  1.00  0.00     0.009 C
HETATM   40  C11 UNL     1      17.871  45.880  16.419  1.00  0.00     0.009 C
ENDBRANCH  37  38
ENDBRANCH   6  37
BRANCH  21  41
HETATM   41  C24 UNL     1      26.084  39.017  19.256  1.00  0.00     0.038 C
BRANCH  41  42
HETATM   42  C25 UNL     1      27.352  39.777  19.444  1.00  0.00    -0.020 C
HETATM   43  C26 UNL     1      28.603  39.046  19.101  1.00  0.00     0.009 C
HETATM   44  C27 UNL     1      27.429  40.131  20.938  1.00  0.00     0.009 C
ENDBRANCH  41  42
ENDBRANCH  21  41
BRANCH  11  45
HETATM   45  C14 UNL     1      17.576  39.879  17.925  1.00  0.00     0.147 C
BRANCH  45  46
HETATM   46  C15 UNL     1      17.196  38.455  17.747  1.00  0.00     0.175 C
HETATM   47  O3  UNL     1      16.681  38.055  16.679  1.00  0.00    -0.648 OA
HETATM   48  O4  UNL     1      17.382  37.480  18.736  1.00  0.00    -0.648 OA
ENDBRANCH  45  46
ENDBRANCH  11  45
BRANCH  16  49
HETATM   49  C18 UNL     1      22.589  36.994  18.752  1.00  0.00     0.038 C
BRANCH  49  50
HETATM   50  C19 UNL     1      22.846  36.426  20.084  1.00  0.00    -0.020 C
HETATM   51  C20 UNL     1      24.205  36.007  20.476  1.00  0.00     0.009 C
HETATM   52  C21 UNL     1      21.905  35.272  20.425  1.00  0.00     0.009 C
ENDBRANCH  49  50
ENDBRANCH  16  49
TORSDOF 12
ENDMDL