MODEL 4
REMARK VINA RESULT: -5.793585366      0.884      1.107
REMARK  12 active torsions:
REMARK  status: ('A' for Active; 'I' for Inactive)
REMARK    1  A    between atoms: C2_2  and  C3_3
REMARK    2  A    between atoms: C3_3  and  C4_4
REMARK    3  A    between atoms: C5_5  and  C6_6
REMARK    4  A    between atoms: C9_13  and  C10_14
REMARK    5  A    between atoms: C10_14  and  C11_15
REMARK    6  A    between atoms: C11_15  and  C12_16
REMARK    7  A    between atoms: C15_22  and  C16_23
REMARK    8  A    between atoms: C20_30  and  C21_31
REMARK    9  A    between atoms: C21_31  and  C22_32
REMARK   10  A    between atoms: C25_35  and  C26_36
REMARK   11  A    between atoms: C31_45  and  C32_46
REMARK   12  A    between atoms: C32_46  and  C33_47
ROOT
HETATM    1  C6  UNL     1      19.216  37.272  18.241  1.00  0.00     0.116 C
HETATM    2  C7  UNL     1      17.859  37.857  18.364  1.00  0.00     0.133 C
HETATM    3  C8  UNL     1      17.686  39.120  17.596  1.00  0.00     0.235 C
HETATM    4  O1  UNL     1      17.109  39.037  16.483  1.00  0.00    -0.272 OA
HETATM    5  N1  UNL     1      18.174  40.331  18.152  1.00  0.00    -0.273 N
ATOM      6  H1  UNL     1      17.918  41.214  17.710  1.00  0.00     0.185 HD
HETATM    7  N2  UNL     1      18.985  40.359  19.274  1.00  0.00    -0.124 NA
HETATM    8  C9  UNL     1      18.667  41.418  20.216  1.00  0.00     0.191 C
HETATM    9  C14 UNL     1      18.446  42.710  19.522  1.00  0.00     0.239 C
HETATM   10  O2  UNL     1      17.249  43.023  19.226  1.00  0.00    -0.272 OA
HETATM   11  N3  UNL     1      19.494  43.607  19.176  1.00  0.00    -0.346 N
ATOM     12  H3  UNL     1      19.356  44.597  19.377  1.00  0.00     0.163 HD
HETATM   13  C15 UNL     1      20.743  43.212  18.556  1.00  0.00     0.180 C
HETATM   14  C19 UNL     1      21.776  42.962  19.591  1.00  0.00     0.241 C
HETATM   15  O3  UNL     1      21.612  43.494  20.747  1.00  0.00    -0.271 OA
HETATM   16  N4  UNL     1      22.932  42.178  19.400  1.00  0.00    -0.346 N
ATOM     17  H4  UNL     1      23.644  42.210  20.129  1.00  0.00     0.163 HD
HETATM   18  C20 UNL     1      23.194  41.329  18.252  1.00  0.00     0.181 C
HETATM   19  C29 UNL     1      23.068  39.898  18.647  1.00  0.00     0.243 C
HETATM   20  O6  UNL     1      23.348  39.652  19.870  1.00  0.00    -0.271 OA
HETATM   21  N5  UNL     1      22.686  38.825  17.843  1.00  0.00    -0.341 N
HETATM   22  C30 UNL     1      23.331  37.533  18.144  1.00  0.00     0.153 C
HETATM   23  C31 UNL     1      21.728  38.866  16.751  1.00  0.00     0.178 C
HETATM   24  C35 UNL     1      21.096  37.537  16.546  1.00  0.00     0.241 C
HETATM   25  O7  UNL     1      21.861  36.686  15.962  1.00  0.00    -0.271 OA
HETATM   26  N6  UNL     1      19.774  37.168  16.932  1.00  0.00    -0.351 N
ATOM     27  H6  UNL     1      19.168  36.794  16.201  1.00  0.00     0.163 HD
ENDROOT
BRANCH  18  28
HETATM   28  C21 UNL     1      24.667  41.446  17.830  1.00  0.00     0.073 C
BRANCH  28  29
HETATM   29  C22 UNL     1      24.884  42.288  16.663  1.00  0.00    -0.056 A
HETATM   30  C23 UNL     1      24.944  43.673  16.737  1.00  0.00     0.008 A
HETATM   31  C24 UNL     1      25.154  44.462  15.620  1.00  0.00     0.019 A
HETATM   32  C25 UNL     1      25.316  43.875  14.359  1.00  0.00     0.040 A
HETATM   33  C27 UNL     1      25.256  42.491  14.278  1.00  0.00     0.019 A
HETATM   34  C28 UNL     1      25.048  41.746  15.396  1.00  0.00     0.008 A
BRANCH  32  35
HETATM   35  C26 UNL     1      25.537  44.682  13.172  1.00  0.00     0.209 C
HETATM   36  O4  UNL     1      24.595  45.360  12.704  1.00  0.00    -0.644 OA
HETATM   37  O5  UNL     1      26.786  44.682  12.587  1.00  0.00    -0.644 OA
ENDBRANCH  32  35
ENDBRANCH  28  29
ENDBRANCH  18  28
BRANCH  13  38
HETATM   38  C16 UNL     1      21.150  44.313  17.585  1.00  0.00     0.009 C
HETATM   39  C17 UNL     1      20.164  45.455  17.634  1.00  0.00     0.012 C
HETATM   40  C18 UNL     1      21.218  43.684  16.213  1.00  0.00     0.012 C
ENDBRANCH  13  38
BRANCH  23  41
HETATM   41  C32 UNL     1      22.389  39.318  15.462  1.00  0.00     0.035 C
BRANCH  41  42
HETATM   42  C33 UNL     1      21.466  40.180  14.631  1.00  0.00    -0.002 C
HETATM   43  C34 UNL     1      21.991  40.190  13.211  1.00  0.00     0.005 C
ENDBRANCH  41  42
ENDBRANCH  23  41
BRANCH   8  44
HETATM   44  C10 UNL     1      17.507  40.983  21.075  1.00  0.00     0.033 C
BRANCH  44  45
HETATM   45  C11 UNL     1      17.794  41.292  22.513  1.00  0.00     0.002 C
BRANCH  45  46
HETATM   46  C12 UNL     1      17.015  40.382  23.445  1.00  0.00    -0.004 C
HETATM   47  C13 UNL     1      17.984  39.954  24.547  1.00  0.00     0.005 C
ENDBRANCH  45  46
ENDBRANCH  44  45
ENDBRANCH   8  44
BRANCH   1  48
HETATM   48  C5  UNL     1      19.252  35.967  18.947  1.00  0.00    -0.005 C
HETATM   49  C4  UNL     1      18.716  34.843  18.537  1.00  0.00    -0.025 C
BRANCH  49  50
HETATM   50  C3  UNL     1      17.959  34.534  17.327  1.00  0.00     0.053 C
BRANCH  50  51
HETATM   51  C2  UNL     1      16.493  34.498  17.717  1.00  0.00    -0.033 C
HETATM   52  C1  UNL     1      15.630  35.221  17.035  1.00  0.00     0.007 C
ENDBRANCH  50  51
ENDBRANCH  49  50
ENDBRANCH   1  48
TORSDOF 12
ENDMDL