MODEL 5
REMARK VINA RESULT: -6.446231280      9.378     16.527
REMARK  14 active torsions:
REMARK  status: ('A' for Active; 'I' for Inactive)
REMARK    1  A    between atoms: C2_2  and  C3_3
REMARK    2  A    between atoms: C3_3  and  C5_5
REMARK    3  A    between atoms: C6_8  and  O1_9
REMARK    4  A    between atoms: C7_11  and  C8_12
REMARK    5  A    between atoms: C8_12  and  C9_13
REMARK    6  A    between atoms: C13_20  and  C14_21
REMARK    7  A    between atoms: C14_21  and  C15_22
REMARK    8  A    between atoms: C23_36  and  C24_37
REMARK    9  A    between atoms: C24_37  and  C25_38
REMARK   10  A    between atoms: C25_38  and  C26_39
REMARK   11  A    between atoms: C26_39  and  C27_40
REMARK   12  A    between atoms: C27_40  and  N5_41
REMARK   13  A    between atoms: C29_49  and  C30_50
REMARK   14  A    between atoms: C30_50  and  C31_51
ROOT
HETATM    1  C5  UNL     1      23.461  40.205  18.184  1.00  0.00     0.084 C
HETATM    2  N1  UNL     1      23.191  39.168  19.148  1.00  0.00    -0.334 N
ATOM      3  H1  UNL     1      23.509  39.440  20.078  1.00  0.00     0.168 HD
HETATM    4  C6  UNL     1      22.620  37.905  19.165  1.00  0.00     0.163 C
HETATM    5  C7  UNL     1      23.065  36.562  18.773  1.00  0.00     0.063 C
HETATM    6  N2  UNL     1      23.211  36.342  17.347  1.00  0.00    -0.325 N
ATOM      7  H2  UNL     1      23.416  37.157  16.770  1.00  0.00     0.169 HD
HETATM    8  C12 UNL     1      23.093  35.083  16.676  1.00  0.00     0.244 C
HETATM    9  O2  UNL     1      24.041  34.801  15.905  1.00  0.00    -0.271 OA
HETATM   10  C13 UNL     1      21.967  34.173  16.860  1.00  0.00     0.177 C
HETATM   11  N3  UNL     1      20.708  34.840  16.392  1.00  0.00    -0.348 N
ATOM     12  H3  UNL     1      20.765  35.458  15.583  1.00  0.00     0.163 HD
HETATM   13  C18 UNL     1      19.454  34.665  17.002  1.00  0.00     0.218 C
HETATM   14  O3  UNL     1      18.476  34.241  16.282  1.00  0.00    -0.274 OA
HETATM   15  C19 UNL     1      19.110  34.918  18.418  1.00  0.00     0.104 C
HETATM   16  C20 UNL     1      18.187  36.106  18.482  1.00  0.00     0.029 C
HETATM   17  C21 UNL     1      18.456  37.145  17.414  1.00  0.00     0.123 C
HETATM   18  N4  UNL     1      17.293  38.029  17.446  1.00  0.00    -0.359 N
ATOM     19  H4  UNL     1      16.403  37.635  17.142  1.00  0.00     0.162 HD
HETATM   20  C22 UNL     1      17.289  39.366  17.855  1.00  0.00     0.240 C
HETATM   21  O4  UNL     1      16.454  39.781  18.738  1.00  0.00    -0.271 OA
HETATM   22  C23 UNL     1      18.215  40.441  17.340  1.00  0.00     0.177 C
HETATM   23  N6  UNL     1      18.604  41.364  18.390  1.00  0.00    -0.342 N
ATOM     24  H6  UNL     1      18.058  41.297  19.248  1.00  0.00     0.163 HD
HETATM   25  C28 UNL     1      19.602  42.323  18.404  1.00  0.00     0.268 C
HETATM   26  O5  UNL     1      19.181  43.516  18.677  1.00  0.00    -0.266 OA
HETATM   27  C29 UNL     1      21.055  42.286  18.177  1.00  0.00     0.102 C
HETATM   28  N7  UNL     1      21.542  41.548  17.049  1.00  0.00    -0.313 N
HETATM   29  C34 UNL     1      21.105  41.853  15.672  1.00  0.00     0.160 C
HETATM   30  C35 UNL     1      22.477  40.440  17.132  1.00  0.00     0.271 C
HETATM   31  O6  UNL     1      22.354  39.637  16.137  1.00  0.00    -0.266 OA
ENDROOT
BRANCH  22  32
HETATM   32  C24 UNL     1      17.334  41.176  16.313  1.00  0.00     0.035 C
BRANCH  32  33
HETATM   33  C25 UNL     1      16.432  42.170  16.939  1.00  0.00     0.004 C
BRANCH  33  34
HETATM   34  C26 UNL     1      16.573  43.547  16.347  1.00  0.00     0.027 C
BRANCH  34  35
HETATM   35  C27 UNL     1      16.143  44.653  17.250  1.00  0.00     0.229 C
BRANCH  35  36
HETATM   36  N5  UNL     1      16.270  44.219  18.626  1.00  0.00    -0.079 N
ATOM     37  H53 UNL     1      16.228  44.998  19.283  1.00  0.00     0.274 HD
ATOM     38  H52 UNL     1      15.445  43.713  18.950  1.00  0.00     0.274 HD
ATOM     39  H51 UNL     1      17.125  43.673  18.727  1.00  0.00     0.274 HD
ENDBRANCH  35  36
ENDBRANCH  34  35
ENDBRANCH  33  34
ENDBRANCH  32  33
ENDBRANCH  22  32
BRANCH  27  40
HETATM   40  C30 UNL     1      21.765  43.537  18.481  1.00  0.00     0.012 C
BRANCH  40  41
HETATM   41  C31 UNL     1      23.178  43.695  18.744  1.00  0.00     0.002 C
HETATM   42  C32 UNL     1      23.664  44.456  19.919  1.00  0.00     0.013 C
HETATM   43  C33 UNL     1      23.714  44.510  17.519  1.00  0.00     0.013 C
ENDBRANCH  40  41
ENDBRANCH  27  40
BRANCH   1  44
HETATM   44  C3  UNL     1      24.902  40.378  17.848  1.00  0.00     0.037 C
HETATM   45  C4  UNL     1      25.262  41.226  16.679  1.00  0.00     0.016 C
BRANCH  44  46
HETATM   46  C2  UNL     1      25.828  40.756  18.975  1.00  0.00     0.006 C
HETATM   47  C1  UNL     1      26.542  42.049  18.812  1.00  0.00     0.006 C
ENDBRANCH  44  46
ENDBRANCH   1  44
BRANCH  10  48
HETATM   48  C14 UNL     1      21.988  32.808  16.349  1.00  0.00     0.038 C
BRANCH  48  49
HETATM   49  C15 UNL     1      21.705  32.393  14.993  1.00  0.00    -0.020 C
HETATM   50  C16 UNL     1      22.713  32.063  13.983  1.00  0.00     0.009 C
HETATM   51  C17 UNL     1      20.825  31.100  15.116  1.00  0.00     0.009 C
ENDBRANCH  48  49
ENDBRANCH  10  48
BRANCH   4  52
HETATM   52  O1  UNL     1      21.386  37.870  19.643  1.00  0.00    -0.345 OA
ATOM     53  H1  UNL     1      20.779  37.354  19.125  1.00  0.00     0.219 HD
ENDBRANCH   4  52
BRANCH   5  54
HETATM   54  C8  UNL     1      24.201  35.948  19.517  1.00  0.00     0.065 C
BRANCH  54  55
HETATM   55  C9  UNL     1      24.672  36.573  20.766  1.00  0.00    -0.017 C
HETATM   56  C10 UNL     1      25.210  35.413  21.647  1.00  0.00     0.010 C
HETATM   57  C11 UNL     1      25.838  37.528  20.641  1.00  0.00     0.010 C
ENDBRANCH  54  55
ENDBRANCH   5  54
TORSDOF 14
ENDMDL