MODEL 2
REMARK VINA RESULT: -6.385883338      1.213      1.364
REMARK  14 active torsions:
REMARK  status: ('A' for Active; 'I' for Inactive)
REMARK    1  A    between atoms: C2_2  and  C4_4
REMARK    2  A    between atoms: C4_4  and  C5_5
REMARK    3  A    between atoms: C7_10  and  C8_11
REMARK    4  A    between atoms: C8_11  and  C9_12
REMARK       I    between atoms: C9_12  and  N2_14
REMARK    5  A    between atoms: N2_14  and  C10_16
REMARK    6  A    between atoms: C14_20  and  C15_21
REMARK    7  A    between atoms: C15_21  and  C16_22
REMARK    8  A    between atoms: C24_35  and  O3_36
REMARK    9  A    between atoms: C25_38  and  C26_39
REMARK   10  A    between atoms: C31_46  and  C32_47
REMARK   11  A    between atoms: C32_47  and  C33_48
REMARK   12  A    between atoms: C33_48  and  C34_49
REMARK   13  A    between atoms: C34_49  and  C35_50
REMARK   14  A    between atoms: C35_50  and  N7_51
ROOT
HETATM    1  C5  UNL     1      18.197  41.208  19.298  1.00  0.00     0.177 C
HETATM    2  N1  UNL     1      18.112  40.558  18.015  1.00  0.00    -0.347 N
ATOM      3  H1  UNL     1      18.402  41.184  17.263  1.00  0.00     0.163 HD
HETATM    4  C6  UNL     1      17.750  39.331  17.528  1.00  0.00     0.226 C
HETATM    5  O1  UNL     1      16.914  39.189  16.595  1.00  0.00    -0.273 OA
HETATM    6  C7  UNL     1      18.239  37.936  17.972  1.00  0.00     0.111 C
HETATM    7  C13 UNL     1      19.389  37.941  18.815  1.00  0.00     0.013 C
HETATM    8  C14 UNL     1      20.727  37.324  18.395  1.00  0.00     0.012 C
HETATM    9  N5  UNL     1      21.835  38.140  18.726  1.00  0.00    -0.339 N
ATOM     10  H5  UNL     1      22.487  37.593  19.289  1.00  0.00     0.168 HD
HETATM   11  C24 UNL     1      22.347  39.396  18.563  1.00  0.00     0.164 C
HETATM   12  C25 UNL     1      22.711  40.296  17.477  1.00  0.00     0.068 C
HETATM   13  N6  UNL     1      21.723  41.194  16.939  1.00  0.00    -0.320 N
HETATM   14  C29 UNL     1      21.053  40.690  15.699  1.00  0.00     0.159 C
HETATM   15  C30 UNL     1      21.294  42.457  17.369  1.00  0.00     0.246 C
HETATM   16  O4  UNL     1      21.306  43.413  16.493  1.00  0.00    -0.271 OA
HETATM   17  C31 UNL     1      20.805  42.953  18.679  1.00  0.00     0.177 C
HETATM   18  N8  UNL     1      19.391  43.349  18.553  1.00  0.00    -0.346 N
ATOM     19  H8  UNL     1      19.222  44.205  18.025  1.00  0.00     0.163 HD
HETATM   20  C36 UNL     1      18.260  42.724  19.053  1.00  0.00     0.241 C
HETATM   21  O5  UNL     1      17.224  43.325  19.337  1.00  0.00    -0.271 OA
ENDROOT
BRANCH   8  22
HETATM   22  C15 UNL     1      20.663  36.618  17.098  1.00  0.00     0.099 C
BRANCH  22  23
HETATM   23  C16 UNL     1      21.363  35.351  16.918  1.00  0.00    -0.008 A
HETATM   24  C17 UNL     1      20.893  34.121  17.473  1.00  0.00     0.098 A
HETATM   25  N3  UNL     1      21.685  33.128  17.117  1.00  0.00    -0.363 N
HETATM   26  C18 UNL     1      22.674  33.612  16.350  1.00  0.00     0.059 A
ATOM     27  H3  UNL     1      21.565  32.151  17.381  1.00  0.00     0.165 HD
HETATM   28  C19 UNL     1      23.727  32.962  15.764  1.00  0.00     0.033 A
HETATM   29  C23 UNL     1      22.485  34.998  16.219  1.00  0.00     0.069 A
HETATM   30  C20 UNL     1      24.612  33.716  15.037  1.00  0.00     0.020 A
HETATM   31  C21 UNL     1      24.409  35.067  14.926  1.00  0.00     0.091 A
HETATM   32  N4  UNL     1      23.357  35.728  15.507  1.00  0.00    -0.359 N
HETATM   33  C22 UNL     1      23.238  37.148  15.380  1.00  0.00     0.156 C
ENDBRANCH  22  23
ENDBRANCH   8  22
BRANCH   6  34
HETATM   34  C8  UNL     1      17.017  37.272  18.435  1.00  0.00     0.120 C
BRANCH  34  35
HETATM   35  C9  UNL     1      16.827  35.865  18.079  1.00  0.00     0.218 C
HETATM   36  O2  UNL     1      16.221  35.094  18.848  1.00  0.00    -0.274 OA
HETATM   37  N2  UNL     1      17.336  35.357  16.834  1.00  0.00    -0.357 N
ATOM     38  H2  UNL     1      17.836  36.004  16.223  1.00  0.00     0.162 HD
BRANCH  37  39
HETATM   39  C10 UNL     1      17.189  34.016  16.400  1.00  0.00     0.076 C
HETATM   40  C11 UNL     1      15.832  33.730  15.804  1.00  0.00     0.032 C
HETATM   41  C12 UNL     1      18.170  33.802  15.201  1.00  0.00     0.032 C
ENDBRANCH  37  39
ENDBRANCH  34  35
ENDBRANCH   6  34
BRANCH  11  42
HETATM   42  O3  UNL     1      22.594  39.994  19.726  1.00  0.00    -0.345 OA
ATOM     43  H3  UNL     1      23.449  40.409  19.743  1.00  0.00     0.219 HD
ENDBRANCH  11  42
BRANCH  12  44
HETATM   44  C26 UNL     1      24.109  40.862  17.601  1.00  0.00     0.032 C
HETATM   45  C27 UNL     1      24.647  41.701  16.546  1.00  0.00     0.016 C
HETATM   46  C28 UNL     1      25.066  39.683  17.860  1.00  0.00     0.016 C
ENDBRANCH  12  44
BRANCH   1  47
HETATM   47  C4  UNL     1      17.131  40.893  20.260  1.00  0.00     0.038 C
BRANCH  47  48
HETATM   48  C2  UNL     1      17.592  40.665  21.675  1.00  0.00    -0.020 C
HETATM   49  C1  UNL     1      16.429  40.579  22.649  1.00  0.00     0.009 C
HETATM   50  C3  UNL     1      18.585  41.723  22.112  1.00  0.00     0.009 C
ENDBRANCH  47  48
ENDBRANCH   1  47
BRANCH  17  51
HETATM   51  C32 UNL     1      21.515  44.304  18.942  1.00  0.00     0.035 C
BRANCH  51  52
HETATM   52  C33 UNL     1      22.466  44.146  20.137  1.00  0.00     0.004 C
BRANCH  52  53
HETATM   53  C34 UNL     1      21.801  43.529  21.320  1.00  0.00     0.027 C
BRANCH  53  54
HETATM   54  C35 UNL     1      22.698  42.587  22.098  1.00  0.00     0.229 C
BRANCH  54  55
HETATM   55  N7  UNL     1      23.777  42.196  21.191  1.00  0.00    -0.079 N
ATOM     56  H73 UNL     1      23.812  42.758  20.340  1.00  0.00     0.274 HD
ATOM     57  H72 UNL     1      24.705  42.437  21.540  1.00  0.00     0.274 HD
ATOM     58  H71 UNL     1      23.659  41.199  21.012  1.00  0.00     0.274 HD
ENDBRANCH  54  55
ENDBRANCH  53  54
ENDBRANCH  52  53
ENDBRANCH  51  52
ENDBRANCH  17  51
TORSDOF 14
ENDMDL