MODEL 1
REMARK VINA RESULT: -7.829611867      0.000      0.000
REMARK  14 active torsions:
REMARK  status: ('A' for Active; 'I' for Inactive)
REMARK    1  A    between atoms: C2_2  and  C4_4
REMARK    2  A    between atoms: C4_4  and  C5_5
REMARK    3  A    between atoms: C7_10  and  C8_11
REMARK    4  A    between atoms: C8_11  and  C9_12
REMARK    5  A    between atoms: C17_24  and  O2_25
REMARK    6  A    between atoms: C18_27  and  C19_28
REMARK    7  A    between atoms: C22_33  and  O3_34
REMARK    8  A    between atoms: C23_36  and  C24_37
REMARK    9  A    between atoms: C24_37  and  C25_38
REMARK   10  A    between atoms: C25_38  and  C26_39
REMARK   11  A    between atoms: C26_39  and  C27_40
REMARK   12  A    between atoms: C27_40  and  N5_41
REMARK   13  A    between atoms: C31_49  and  C32_50
REMARK   14  A    between atoms: C32_50  and  C33_51
ROOT
HETATM    1  C5  UNL     1      18.254  35.505  17.416  1.00  0.00     0.177 C
HETATM    2  N1  UNL     1      18.699  35.582  18.793  1.00  0.00    -0.346 N
ATOM      3  H1  UNL     1      18.047  36.004  19.454  1.00  0.00     0.163 HD
HETATM    4  C6  UNL     1      19.906  35.149  19.316  1.00  0.00     0.241 C
HETATM    5  O1  UNL     1      19.860  34.440  20.382  1.00  0.00    -0.271 OA
HETATM    6  C7  UNL     1      21.287  35.418  18.766  1.00  0.00     0.180 C
HETATM    7  N3  UNL     1      21.733  34.221  18.103  1.00  0.00    -0.356 N
ATOM      8  H3  UNL     1      21.127  33.423  18.298  1.00  0.00     0.162 HD
HETATM    9  C17 UNL     1      22.781  33.891  17.268  1.00  0.00     0.164 C
HETATM   10  C18 UNL     1      23.281  34.292  15.975  1.00  0.00     0.086 C
HETATM   11  N4  UNL     1      23.079  33.396  14.854  1.00  0.00    -0.332 N
ATOM     12  H4  UNL     1      23.905  33.382  14.256  1.00  0.00     0.168 HD
HETATM   13  C22 UNL     1      22.111  32.559  14.353  1.00  0.00     0.164 C
HETATM   14  C23 UNL     1      21.620  31.201  14.551  1.00  0.00     0.065 C
HETATM   15  N7  UNL     1      20.622  30.889  15.508  1.00  0.00    -0.320 N
HETATM   16  C29 UNL     1      20.591  29.456  15.906  1.00  0.00     0.159 C
HETATM   17  C30 UNL     1      19.653  31.661  16.134  1.00  0.00     0.246 C
HETATM   18  O4  UNL     1      19.426  31.305  17.358  1.00  0.00    -0.271 OA
HETATM   19  C31 UNL     1      18.855  32.815  15.605  1.00  0.00     0.177 C
HETATM   20  N8  UNL     1      17.819  33.079  16.614  1.00  0.00    -0.346 N
ATOM     21  H8  UNL     1      17.263  32.264  16.877  1.00  0.00     0.163 HD
HETATM   22  C36 UNL     1      17.478  34.230  17.256  1.00  0.00     0.241 C
HETATM   23  O5  UNL     1      16.321  34.264  17.823  1.00  0.00    -0.271 OA
ENDROOT
BRANCH   6  24
HETATM   24  C8  UNL     1      22.142  35.749  19.983  1.00  0.00     0.075 C
BRANCH  24  25
HETATM   25  C9  UNL     1      23.068  36.881  19.760  1.00  0.00    -0.028 A
HETATM   26  C10 UNL     1      22.809  38.042  19.021  1.00  0.00     0.096 A
HETATM   27  N2  UNL     1      23.871  38.854  19.052  1.00  0.00    -0.365 N
HETATM   28  C11 UNL     1      24.847  38.290  19.784  1.00  0.00     0.042 A
ATOM     29  H2  UNL     1      23.931  39.761  18.590  1.00  0.00     0.165 HD
HETATM   30  C12 UNL     1      26.097  38.787  20.067  1.00  0.00     0.030 A
HETATM   31  C16 UNL     1      24.356  37.085  20.217  1.00  0.00    -0.002 A
HETATM   32  C13 UNL     1      26.909  37.977  20.857  1.00  0.00     0.002 A
HETATM   33  C14 UNL     1      26.466  36.766  21.315  1.00  0.00     0.001 A
HETATM   34  C15 UNL     1      25.197  36.314  21.001  1.00  0.00     0.014 A
ENDBRANCH  24  25
ENDBRANCH   6  24
BRANCH   9  35
HETATM   35  O2  UNL     1      23.539  32.940  17.803  1.00  0.00    -0.345 OA
ATOM     36  H2  UNL     1      23.337  32.090  17.430  1.00  0.00     0.219 HD
ENDBRANCH   9  35
BRANCH   1  37
HETATM   37  C4  UNL     1      17.253  36.597  17.168  1.00  0.00     0.038 C
BRANCH  37  38
HETATM   38  C2  UNL     1      17.576  37.948  17.655  1.00  0.00    -0.020 C
HETATM   39  C1  UNL     1      16.488  38.948  17.279  1.00  0.00     0.009 C
HETATM   40  C3  UNL     1      18.944  38.473  17.420  1.00  0.00     0.009 C
ENDBRANCH  37  38
ENDBRANCH   1  37
BRANCH  10  41
HETATM   41  C19 UNL     1      23.233  35.738  15.554  1.00  0.00    -0.057 C
HETATM   42  C20 UNL     1      24.296  36.606  16.184  1.00  0.00     0.045 C
HETATM   43  C21 UNL     1      21.933  36.402  15.509  1.00  0.00     0.045 C
ENDBRANCH  10  41
BRANCH  13  44
HETATM   44  O3  UNL     1      21.395  33.143  13.395  1.00  0.00    -0.345 OA
ATOM     45  H3  UNL     1      20.896  33.881  13.726  1.00  0.00     0.219 HD
ENDBRANCH  13  44
BRANCH  19  46
HETATM   46  C32 UNL     1      18.052  32.415  14.371  1.00  0.00     0.038 C
BRANCH  46  47
HETATM   47  C33 UNL     1      18.016  30.917  14.194  1.00  0.00    -0.020 C
HETATM   48  C34 UNL     1      16.606  30.379  14.122  1.00  0.00     0.009 C
HETATM   49  C35 UNL     1      18.672  30.586  12.871  1.00  0.00     0.009 C
ENDBRANCH  46  47
ENDBRANCH  19  46
BRANCH  14  50
HETATM   50  C24 UNL     1      22.711  30.124  14.477  1.00  0.00     0.062 C
BRANCH  50  51
HETATM   51  C25 UNL     1      23.241  29.825  13.133  1.00  0.00     0.008 C
BRANCH  51  52
HETATM   52  C26 UNL     1      22.096  29.659  12.153  1.00  0.00     0.020 C
BRANCH  52  53
HETATM   53  C27 UNL     1      21.765  28.214  11.857  1.00  0.00     0.120 C
BRANCH  53  54
HETATM   54  N5  UNL     1      22.975  27.448  12.159  1.00  0.00    -0.388 N
HETATM   55  C28 UNL     1      23.368  26.472  11.417  1.00  0.00     0.185 C
HETATM   56  N6  UNL     1      24.545  25.769  11.757  1.00  0.00    -0.097 NA
ATOM     57  H5  UNL     1      23.524  27.695  12.982  1.00  0.00     0.159 HD
ENDBRANCH  53  54
ENDBRANCH  52  53
ENDBRANCH  51  52
ENDBRANCH  50  51
ENDBRANCH  14  50
TORSDOF 14
ENDMDL