MODEL 2
REMARK VINA RESULT: -6.630210026      3.288      6.693
REMARK  14 active torsions:
REMARK  status: ('A' for Active; 'I' for Inactive)
REMARK    1  A    between atoms: C6_6  and  O1_7
REMARK    2  A    between atoms: C7_11  and  C8_12
REMARK    3  A    between atoms: C8_12  and  C9_13
REMARK    4  A    between atoms: C13_20  and  C14_21
REMARK    5  A    between atoms: C14_21  and  C15_22
REMARK    6  A    between atoms: C15_22  and  C16_23
REMARK    7  A    between atoms: C16_23  and  C17_24
REMARK    8  A    between atoms: C17_24  and  N3_25
REMARK    9  A    between atoms: C19_33  and  C20_34
REMARK   10  A    between atoms: C24_41  and  C25_42
REMARK   11  A    between atoms: C25_42  and  C26_43
REMARK   12  A    between atoms: C30_50  and  C31_51
REMARK   13  A    between atoms: C31_51  and  C32_52
REMARK   14  A    between atoms: C35_55  and  O6_56
ROOT
HETATM    1  C1  UNL     1      21.981  39.880  13.389  1.00  0.00     0.048 C
HETATM    2  C2  UNL     1      21.597  39.643  14.859  1.00  0.00    -0.060 C
HETATM    3  C3  UNL     1      22.346  38.767  15.526  1.00  0.00     0.007 C
HETATM    4  C4  UNL     1      22.297  38.286  16.876  1.00  0.00     0.005 C
HETATM    5  C5  UNL     1      21.461  37.538  17.542  1.00  0.00     0.055 C
HETATM    6  C6  UNL     1      20.223  36.881  17.186  1.00  0.00     0.136 C
HETATM    7  N1  UNL     1      18.892  37.301  17.191  1.00  0.00    -0.358 N
ATOM      8  H1  UNL     1      18.492  37.431  16.262  1.00  0.00     0.162 HD
HETATM    9  C7  UNL     1      17.980  37.586  18.274  1.00  0.00     0.176 C
HETATM   10  C12 UNL     1      18.079  39.006  18.671  1.00  0.00     0.241 C
HETATM   11  O2  UNL     1      19.313  39.354  18.824  1.00  0.00    -0.271 OA
HETATM   12  N2  UNL     1      17.116  39.967  18.889  1.00  0.00    -0.346 N
ATOM     13  H2  UNL     1      17.157  40.759  18.248  1.00  0.00     0.163 HD
HETATM   14  C13 UNL     1      16.058  40.047  19.869  1.00  0.00     0.176 C
HETATM   15  C18 UNL     1      16.471  40.660  21.156  1.00  0.00     0.241 C
HETATM   16  O3  UNL     1      16.395  39.877  22.185  1.00  0.00    -0.271 OA
HETATM   17  N4  UNL     1      16.923  41.964  21.372  1.00  0.00    -0.346 N
ATOM     18  H4  UNL     1      16.388  42.513  22.046  1.00  0.00     0.163 HD
HETATM   19  C19 UNL     1      18.048  42.636  20.768  1.00  0.00     0.180 C
HETATM   20  C23 UNL     1      19.337  42.195  21.397  1.00  0.00     0.241 C
HETATM   21  O4  UNL     1      19.263  42.017  22.660  1.00  0.00    -0.271 OA
HETATM   22  N5  UNL     1      20.550  41.972  20.783  1.00  0.00    -0.346 N
ATOM     23  H5  UNL     1      21.028  41.102  21.016  1.00  0.00     0.163 HD
HETATM   24  C24 UNL     1      21.232  42.873  19.814  1.00  0.00     0.177 C
HETATM   25  C29 UNL     1      22.146  42.021  19.013  1.00  0.00     0.241 C
HETATM   26  O5  UNL     1      22.990  41.364  19.719  1.00  0.00    -0.271 OA
HETATM   27  N6  UNL     1      22.158  41.882  17.614  1.00  0.00    -0.349 N
ATOM     28  H6  UNL     1      22.935  41.342  17.232  1.00  0.00     0.163 HD
HETATM   29  C30 UNL     1      21.234  42.392  16.655  1.00  0.00     0.141 C
HETATM   30  C35 UNL     1      20.288  41.469  16.044  1.00  0.00     0.066 C
HETATM   31  C36 UNL     1      20.454  40.391  15.337  1.00  0.00     0.041 C
ENDROOT
BRANCH  14  32
HETATM   32  C14 UNL     1      14.891  40.858  19.263  1.00  0.00     0.035 C
BRANCH  32  33
HETATM   33  C15 UNL     1      15.497  41.712  18.178  1.00  0.00     0.004 C
BRANCH  33  34
HETATM   34  C16 UNL     1      15.119  43.167  18.324  1.00  0.00     0.027 C
BRANCH  34  35
HETATM   35  C17 UNL     1      15.613  43.996  17.159  1.00  0.00     0.229 C
BRANCH  35  36
HETATM   36  N3  UNL     1      16.214  43.091  16.199  1.00  0.00    -0.079 N
ATOM     37  H33 UNL     1      15.666  42.242  16.059  1.00  0.00     0.274 HD
ATOM     38  H32 UNL     1      16.168  43.441  15.242  1.00  0.00     0.274 HD
ATOM     39  H31 UNL     1      17.168  42.901  16.507  1.00  0.00     0.274 HD
ENDBRANCH  35  36
ENDBRANCH  34  35
ENDBRANCH  33  34
ENDBRANCH  32  33
ENDBRANCH  14  32
BRANCH   9  40
HETATM   40  C8  UNL     1      16.577  37.136  17.919  1.00  0.00     0.038 C
BRANCH  40  41
HETATM   41  C9  UNL     1      16.735  35.786  17.222  1.00  0.00    -0.020 C
HETATM   42  C10 UNL     1      15.883  35.842  15.976  1.00  0.00     0.009 C
HETATM   43  C11 UNL     1      16.201  34.698  18.108  1.00  0.00     0.009 C
ENDBRANCH  40  41
ENDBRANCH   9  40
BRANCH  19  44
HETATM   44  C20 UNL     1      17.920  44.118  20.982  1.00  0.00     0.009 C
HETATM   45  C21 UNL     1      16.607  44.556  21.550  1.00  0.00     0.012 C
HETATM   46  C22 UNL     1      18.162  44.909  19.719  1.00  0.00     0.012 C
ENDBRANCH  19  44
BRANCH   6  47
HETATM   47  O1  UNL     1      20.356  35.630  16.774  1.00  0.00    -0.346 OA
ATOM     48  H1  UNL     1      20.250  35.505  15.839  1.00  0.00     0.219 HD
ENDBRANCH   6  47
BRANCH  24  49
HETATM   49  C25 UNL     1      22.028  43.891  20.558  1.00  0.00     0.038 C
BRANCH  49  50
HETATM   50  C26 UNL     1      22.493  45.096  19.861  1.00  0.00    -0.020 C
HETATM   51  C27 UNL     1      21.674  45.530  18.670  1.00  0.00     0.009 C
HETATM   52  C28 UNL     1      23.950  45.202  19.519  1.00  0.00     0.009 C
ENDBRANCH  49  50
ENDBRANCH  24  49
BRANCH  29  53
HETATM   53  C31 UNL     1      22.050  43.155  15.604  1.00  0.00     0.036 C
BRANCH  53  54
HETATM   54  C32 UNL     1      23.539  43.037  15.853  1.00  0.00    -0.020 C
HETATM   55  C33 UNL     1      24.283  42.298  14.785  1.00  0.00     0.009 C
HETATM   56  C34 UNL     1      24.055  44.485  15.902  1.00  0.00     0.009 C
ENDBRANCH  53  54
ENDBRANCH  29  53
BRANCH  30  57
HETATM   57  O6  UNL     1      18.908  41.830  16.274  1.00  0.00    -0.363 OA
ATOM     58  H6  UNL     1      18.504  42.260  15.529  1.00  0.00     0.217 HD
ENDBRANCH  30  57
TORSDOF 14
ENDMDL