MODEL 5
REMARK VINA RESULT: -9.449625907      3.495     11.417
REMARK  14 active torsions:
REMARK  status: ('A' for Active; 'I' for Inactive)
REMARK    1  A    between atoms: C2_2  and  C3_3
REMARK    2  A    between atoms: C3_3  and  C4_4
REMARK    3  A    between atoms: C10_16  and  C11_17
REMARK    4  A    between atoms: C11_17  and  C12_18
REMARK    5  A    between atoms: C17_24  and  C18_25
REMARK    6  A    between atoms: C19_26  and  C20_27
REMARK    7  A    between atoms: N4_32  and  C25_33
REMARK    8  A    between atoms: C28_39  and  C29_40
REMARK    9  A    between atoms: C29_40  and  C30_41
REMARK   10  A    between atoms: C30_41  and  C31_42
REMARK   11  A    between atoms: C31_42  and  C32_43
REMARK   12  A    between atoms: C32_43  and  C33_44
REMARK   13  A    between atoms: C33_44  and  N6_45
REMARK   14  A    between atoms: C34_51  and  O3_52
ROOT
HETATM    1  C4  UNL     1      22.722  31.061  14.374  1.00  0.00     0.176 C
HETATM    2  N1  UNL     1      23.867  31.852  14.205  1.00  0.00    -0.346 N
ATOM      3  H1  UNL     1      24.400  31.591  13.376  1.00  0.00     0.163 HD
HETATM    4  C5  UNL     1      24.472  32.947  14.924  1.00  0.00     0.246 C
HETATM    5  O1  UNL     1      25.679  33.208  14.926  1.00  0.00    -0.271 OA
HETATM    6  C6  UNL     1      23.529  33.784  15.698  1.00  0.00     0.106 C
HETATM    7  C7  UNL     1      22.743  34.436  14.650  1.00  0.00     0.048 C
HETATM    8  C8  UNL     1      23.052  32.794  16.683  1.00  0.00     0.048 C
HETATM    9  N2  UNL     1      23.965  34.874  16.511  1.00  0.00    -0.343 N
ATOM     10  H2  UNL     1      24.927  35.211  16.475  1.00  0.00     0.163 HD
HETATM   11  C9  UNL     1      22.977  35.487  17.397  1.00  0.00     0.228 C
HETATM   12  O2  UNL     1      23.520  35.754  18.545  1.00  0.00    -0.273 OA
HETATM   13  C10 UNL     1      21.610  35.819  17.225  1.00  0.00     0.129 C
HETATM   14  C27 UNL     1      20.517  34.910  17.722  1.00  0.00     0.016 C
HETATM   15  N5  UNL     1      20.512  34.506  18.930  1.00  0.00    -0.403 N
ATOM     16  H51 UNL     1      19.772  33.891  19.266  1.00  0.00     0.155 HD
ATOM     17  H52 UNL     1      21.282  34.840  19.510  1.00  0.00     0.155 HD
HETATM   18  C28 UNL     1      19.376  34.416  16.861  1.00  0.00     0.129 C
HETATM   19  N7  UNL     1      18.970  33.064  17.073  1.00  0.00    -0.363 N
ATOM     20  H7  UNL     1      18.210  32.996  17.750  1.00  0.00     0.162 HD
HETATM   21  C34 UNL     1      19.351  31.814  16.588  1.00  0.00     0.135 C
HETATM   22  C35 UNL     1      19.385  31.169  15.280  1.00  0.00     0.157 C
HETATM   23  C36 UNL     1      17.938  30.890  14.772  1.00  0.00     0.041 C
HETATM   24  N8  UNL     1      20.160  31.692  14.210  1.00  0.00    -0.343 N
HETATM   25  C37 UNL     1      19.363  32.672  13.404  1.00  0.00     0.153 C
HETATM   26  C38 UNL     1      21.443  31.466  13.741  1.00  0.00     0.243 C
HETATM   27  O4  UNL     1      21.596  31.641  12.462  1.00  0.00    -0.271 OA
ENDROOT
BRANCH  13  28
HETATM   28  C11 UNL     1      21.157  37.220  17.680  1.00  0.00     0.059 C
BRANCH  28  29
HETATM   29  C12 UNL     1      21.813  38.316  16.993  1.00  0.00    -0.045 A
HETATM   30  C13 UNL     1      21.535  38.478  15.623  1.00  0.00     0.034 A
HETATM   31  C14 UNL     1      22.209  39.405  14.870  1.00  0.00     0.046 A
HETATM   32  N3  UNL     1      21.865  39.490  13.491  1.00  0.00    -0.102 NA
HETATM   33  C15 UNL     1      23.174  40.189  15.473  1.00  0.00     0.027 A
HETATM   34  C16 UNL     1      23.460  40.049  16.818  1.00  0.00     0.014 A
HETATM   35  C17 UNL     1      22.772  39.102  17.593  1.00  0.00    -0.030 A
BRANCH  35  36
HETATM   36  C18 UNL     1      22.901  39.177  19.024  1.00  0.00     0.014 C
HETATM   37  C19 UNL     1      23.898  39.163  19.819  1.00  0.00     0.030 C
BRANCH  37  38
HETATM   38  C20 UNL     1      25.327  39.049  19.741  1.00  0.00     0.034 A
HETATM   39  C21 UNL     1      26.108  39.952  19.052  1.00  0.00     0.029 A
HETATM   40  C22 UNL     1      27.481  39.859  19.048  1.00  0.00     0.004 A
HETATM   41  C23 UNL     1      28.116  38.863  19.731  1.00  0.00     0.017 A
HETATM   42  C24 UNL     1      27.311  37.966  20.415  1.00  0.00     0.091 A
HETATM   43  N4  UNL     1      25.983  38.052  20.422  1.00  0.00    -0.357 N
BRANCH  43  44
HETATM   44  C25 UNL     1      25.225  37.083  21.171  1.00  0.00     0.124 C
HETATM   45  C26 UNL     1      26.001  35.789  21.241  1.00  0.00     0.027 C
ENDBRANCH  43  44
ENDBRANCH  37  38
ENDBRANCH  35  36
ENDBRANCH  28  29
ENDBRANCH  13  28
BRANCH  18  46
HETATM   46  C29 UNL     1      18.190  35.377  16.913  1.00  0.00     0.031 C
BRANCH  46  47
HETATM   47  C30 UNL     1      17.381  35.288  18.148  1.00  0.00     0.002 C
BRANCH  47  48
HETATM   48  C31 UNL     1      17.208  36.639  18.778  1.00  0.00     0.002 C
BRANCH  48  49
HETATM   49  C32 UNL     1      17.407  37.712  17.745  1.00  0.00     0.027 C
BRANCH  49  50
HETATM   50  C33 UNL     1      17.242  39.067  18.431  1.00  0.00     0.229 C
BRANCH  50  51
HETATM   51  N6  UNL     1      16.672  38.911  19.738  1.00  0.00    -0.079 N
ATOM     52  H63 UNL     1      17.237  39.370  20.453  1.00  0.00     0.274 HD
ATOM     53  H62 UNL     1      15.817  39.456  19.844  1.00  0.00     0.274 HD
ATOM     54  H61 UNL     1      16.521  37.926  19.953  1.00  0.00     0.274 HD
ENDBRANCH  50  51
ENDBRANCH  49  50
ENDBRANCH  48  49
ENDBRANCH  47  48
ENDBRANCH  46  47
ENDBRANCH  18  46
BRANCH  21  55
HETATM   55  O3  UNL     1      19.794  30.998  17.534  1.00  0.00    -0.348 OA
ATOM     56  H3  UNL     1      20.659  31.226  17.853  1.00  0.00     0.219 HD
ENDBRANCH  21  55
BRANCH   1  57
HETATM   57  C3  UNL     1      22.976  29.706  13.590  1.00  0.00     0.034 C
BRANCH  57  58
HETATM   58  C2  UNL     1      22.019  28.677  14.086  1.00  0.00    -0.002 C
HETATM   59  C1  UNL     1      21.400  27.876  12.966  1.00  0.00     0.005 C
ENDBRANCH  57  58
ENDBRANCH   1  57
TORSDOF 14
ENDMDL