MODEL 3
REMARK VINA RESULT: -5.569679833      3.059      5.325
REMARK  4 active torsions:
REMARK  status: ('A' for Active; 'I' for Inactive)
REMARK    1  A    between atoms: O1_2  and  C2_3
REMARK       I    between atoms: N1_6  and  C5_7
REMARK    2  A    between atoms: C7_13  and  O2_14
REMARK    3  A    between atoms: O2_14  and  C8_15
REMARK    4  A    between atoms: C8_15  and  C9_16
ROOT
HETATM    1  C2  UNL     1     -18.799   1.544 -17.874  1.00  0.00     0.153 C
HETATM    2  C3  UNL     1     -18.534   2.643 -16.916  1.00  0.00     0.054 C
HETATM    3  C4  UNL     1     -18.171   2.261 -15.526  1.00  0.00     0.128 C
HETATM    4  N1  UNL     1     -18.287   0.868 -15.217  1.00  0.00    -0.353 N
HETATM    5  C5  UNL     1     -18.419   0.486 -13.858  1.00  0.00     0.184 C
HETATM    6  N2  UNL     1     -17.665   1.055 -13.000  1.00  0.00    -0.374 N
ATOM      7  H21 UNL     1     -17.759   0.780 -12.022  1.00  0.00     0.158 HD
ATOM      8  H22 UNL     1     -16.978   1.766 -13.248  1.00  0.00     0.158 HD
HETATM    9  N3  UNL     1     -19.377  -0.507 -13.512  1.00  0.00    -0.064 NA
HETATM   10  C6  UNL     1     -18.279  -0.188 -16.205  1.00  0.00     0.160 C
HETATM   11  C7  UNL     1     -17.873   0.331 -17.554  1.00  0.00     0.168 C
ENDROOT
BRANCH  11  12
HETATM   12  O2  UNL     1     -17.945  -0.561 -18.540  1.00  0.00    -0.381 OA
BRANCH  12  13
HETATM   13  C8  UNL     1     -16.910  -1.037 -19.215  1.00  0.00     0.172 C
BRANCH  13  14
HETATM   14  C9  UNL     1     -16.807  -1.042 -20.669  1.00  0.00     0.009 A
HETATM   15  C10 UNL     1     -16.539   0.181 -21.472  1.00  0.00     0.007 A
HETATM   16  C11 UNL     1     -17.852  -0.597 -21.646  1.00  0.00     0.007 A
ENDBRANCH  13  14
ENDBRANCH  12  13
ENDBRANCH  11  12
BRANCH   1  17
HETATM   17  O1  UNL     1     -18.442   1.941 -19.158  1.00  0.00    -0.388 OA
HETATM   18  C1  UNL     1     -19.594   2.061 -19.971  1.00  0.00     0.202 C
ENDBRANCH   1  17
TORSDOF 4
ENDMDL