MODEL 4
REMARK VINA RESULT: -5.388863860      1.994      5.442
REMARK  5 active torsions:
REMARK  status: ('A' for Active; 'I' for Inactive)
REMARK    1  A    between atoms: N1_1  and  C1_5
REMARK    2  A    between atoms: C1_5  and  C2_6
REMARK    3  A    between atoms: C1_5  and  C11_17
REMARK    4  A    between atoms: C2_6  and  N2_7
REMARK    5  A    between atoms: C5_10  and  N3_11
ROOT
HETATM    1  C2  UNL     1     -18.609   0.708 -15.006  1.00  0.00     0.103 C
ENDROOT
BRANCH   1   2
HETATM    2  C1  UNL     1     -19.706  -0.307 -14.927  1.00  0.00     0.254 C
BRANCH   2   3
HETATM    3  N1  UNL     1     -19.395  -1.529 -14.266  1.00  0.00    -0.068 N
ATOM      4  H13 UNL     1     -18.488  -1.871 -14.584  1.00  0.00     0.275 HD
ATOM      5  H12 UNL     1     -19.190  -1.345 -13.283  1.00  0.00     0.275 HD
ATOM      6  H11 UNL     1     -20.087  -2.275 -14.337  1.00  0.00     0.275 HD
ENDBRANCH   2   3
BRANCH   2   7
HETATM    7  C11 UNL     1     -21.002   0.302 -14.401  1.00  0.00     0.246 A
HETATM    8  C12 UNL     1     -22.028   0.564 -15.440  1.00  0.00     0.268 A
HETATM    9  N4  UNL     1     -22.176  -0.522 -14.479  1.00  0.00    -0.065 N
ATOM     10  H42 UNL     1     -22.333  -1.526 -14.562  1.00  0.00     0.277 HD
ATOM     11  H41 UNL     1     -22.902  -0.786 -13.813  1.00  0.00     0.277 HD
ENDBRANCH   2   7
ENDBRANCH   1   2
BRANCH   1  12
HETATM   12  N2  UNL     1     -18.340   1.200 -16.273  1.00  0.00    -0.350 N
HETATM   13  C3  UNL     1     -18.846   2.352 -16.816  1.00  0.00     0.070 C
HETATM   14  C4  UNL     1     -18.098   2.581 -18.121  1.00  0.00     0.086 C
HETATM   15  C5  UNL     1     -17.335   1.353 -18.388  1.00  0.00     0.266 C
HETATM   16  C10 UNL     1     -17.409   0.564 -17.104  1.00  0.00     0.104 C
BRANCH  15  17
HETATM   17  N3  UNL     1     -17.804   0.500 -19.445  1.00  0.00     0.098 N
HETATM   18  C6  UNL     1     -16.999  -0.722 -19.362  1.00  0.00     0.273 C
HETATM   19  C7  UNL     1     -16.513  -1.043 -20.727  1.00  0.00     0.032 C
HETATM   20  C8  UNL     1     -16.574   0.246 -21.475  1.00  0.00     0.032 C
HETATM   21  C9  UNL     1     -17.676   1.007 -20.763  1.00  0.00     0.273 C
ENDBRANCH  15  17
ENDBRANCH   1  12
TORSDOF 5
ENDMDL