MODEL 4
REMARK VINA RESULT: -5.095902407      2.403      4.228
REMARK  6 active torsions:
REMARK  status: ('A' for Active; 'I' for Inactive)
REMARK    1  A    between atoms: C2_2  and  C3_3
REMARK    2  A    between atoms: C3_3  and  N1_4
REMARK    3  A    between atoms: C8_9  and  O1_10
REMARK    4  A    between atoms: N2_13  and  C10_14
REMARK    5  A    between atoms: C10_14  and  C11_15
REMARK    6  A    between atoms: C11_15  and  O2_16
ROOT
HETATM    1  N1  UNL     1     -18.206   1.785 -16.175  1.00  0.00    -0.345 N
HETATM    2  C4  UNL     1     -18.314   2.828 -17.092  1.00  0.00     0.075 C
HETATM    3  C5  UNL     1     -18.565   2.257 -18.466  1.00  0.00     0.062 C
HETATM    4  C6  UNL     1     -20.020   2.139 -18.804  1.00  0.00     0.018 C
HETATM    5  C7  UNL     1     -20.909   1.662 -17.743  1.00  0.00     0.036 C
HETATM    6  C8  UNL     1     -20.389   0.955 -16.575  1.00  0.00     0.161 C
HETATM    7  C9  UNL     1     -18.927   0.599 -16.551  1.00  0.00     0.218 C
HETATM    8  N2  UNL     1     -18.437   0.011 -17.747  1.00  0.00    -0.367 N
HETATM    9  C12 UNL     1     -17.940   0.907 -18.708  1.00  0.00     0.070 C
ENDROOT
BRANCH   8  10
HETATM   10  C10 UNL     1     -17.889  -1.293 -17.667  1.00  0.00     0.150 C
BRANCH  10  11
HETATM   11  C11 UNL     1     -16.938  -1.461 -18.862  1.00  0.00     0.183 C
BRANCH  11  12
HETATM   12  O2  UNL     1     -16.442  -2.739 -18.858  1.00  0.00    -0.399 OA
ATOM     13  H2  UNL     1     -15.656  -2.765 -19.390  1.00  0.00     0.209 HD
ENDBRANCH  11  12
ENDBRANCH  10  11
ENDBRANCH   8  10
BRANCH   1  14
HETATM   14  C3  UNL     1     -17.635   1.888 -14.933  1.00  0.00     0.091 C
BRANCH  14  15
HETATM   15  C2  UNL     1     -17.562   0.678 -14.062  1.00  0.00     0.007 C
HETATM   16  C1  UNL     1     -18.118   0.599 -12.867  1.00  0.00     0.012 C
ENDBRANCH  14  15
ENDBRANCH   1  14
BRANCH   6  17
HETATM   17  O1  UNL     1     -20.618   1.696 -15.385  1.00  0.00    -0.392 OA
ATOM     18  H1  UNL     1     -20.916   2.576 -15.582  1.00  0.00     0.210 HD
ENDBRANCH   6  17
TORSDOF 6
ENDMDL