MODEL 4
REMARK VINA RESULT: -4.452363949      1.087      1.087
REMARK  7 active torsions:
REMARK  status: ('A' for Active; 'I' for Inactive)
REMARK    1  A    between atoms: C2_2  and  C3_3
REMARK    2  A    between atoms: C3_3  and  N1_4
REMARK    3  A    between atoms: N1_4  and  C4_6
REMARK    4  A    between atoms: C4_6  and  N2_8
REMARK    5  A    between atoms: N2_8  and  N3_10
REMARK    6  A    between atoms: C5_12  and  C6_13
REMARK    7  A    between atoms: C6_13  and  N4_15
ROOT
HETATM    1  N2  UNL     1     -17.340   2.057 -15.850  1.00  0.00    -0.277 N
ATOM      2  H2  UNL     1     -16.399   2.152 -15.469  1.00  0.00     0.189 HD
ENDROOT
BRANCH   1   3
HETATM    3  C4  UNL     1     -18.464   1.996 -14.982  1.00  0.00     0.186 C
HETATM    4  S1  UNL     1     -18.826   3.248 -14.016  1.00  0.00    -0.040 SA
BRANCH   3   5
HETATM    5  N1  UNL     1     -19.255   0.834 -14.963  1.00  0.00    -0.363 N
ATOM      6  H1  UNL     1     -18.804  -0.065 -14.795  1.00  0.00     0.162 HD
BRANCH   5   7
HETATM    7  C3  UNL     1     -20.679   0.868 -15.174  1.00  0.00     0.148 C
BRANCH   7   8
HETATM    8  C2  UNL     1     -20.987   1.071 -16.621  1.00  0.00    -0.018 C
HETATM    9  C1  UNL     1     -21.609   2.105 -17.121  1.00  0.00     0.008 C
ENDBRANCH   7   8
ENDBRANCH   5   7
ENDBRANCH   3   5
ENDBRANCH   1   3
BRANCH   1  10
HETATM   10  N3  UNL     1     -17.537   1.988 -17.214  1.00  0.00    -0.307 N
HETATM   11  C5  UNL     1     -17.442   0.869 -17.831  1.00  0.00     0.148 C
ATOM     12  H3  UNL     1     -17.761   2.835 -17.736  1.00  0.00     0.186 HD
BRANCH  11  13
HETATM   13  C6  UNL     1     -17.642   0.754 -19.261  1.00  0.00     0.115 C
HETATM   14  S2  UNL     1     -18.789   1.657 -19.964  1.00  0.00    -0.059 SA
BRANCH  13  15
HETATM   15  N4  UNL     1     -16.874  -0.125 -20.040  1.00  0.00    -0.380 N
HETATM   16  C7  UNL     1     -16.521   0.137 -21.426  1.00  0.00     0.150 C
HETATM   17  C8  UNL     1     -16.417  -1.366 -19.446  1.00  0.00     0.150 C
ENDBRANCH  13  15
ENDBRANCH  11  13
ENDBRANCH   1  10
TORSDOF 7
ENDMDL