MODEL 2
REMARK VINA RESULT: -5.938499238      0.611      1.044
REMARK  6 active torsions:
REMARK  status: ('A' for Active; 'I' for Inactive)
REMARK    1  A    between atoms: O1_2  and  C2_3
REMARK       I    between atoms: C2_3  and  N1_5
REMARK    2  A    between atoms: N1_5  and  C3_7
REMARK    3  A    between atoms: C3_7  and  C4_8
REMARK    4  A    between atoms: C3_7  and  C9_18
REMARK    5  A    between atoms: C4_8  and  N4_13
REMARK    6  A    between atoms: N4_13  and  C6_15
ROOT
HETATM    1  C4  UNL     1     -18.191   0.536 -17.694  1.00  0.00     0.110 C
HETATM    2  N2  UNL     1     -18.092  -0.743 -17.660  1.00  0.00    -0.281 N
ATOM      3  H2  UNL     1     -18.655  -1.231 -16.963  1.00  0.00     0.179 HD
HETATM    4  C5  UNL     1     -17.292  -1.529 -18.481  1.00  0.00     0.183 C
HETATM    5  N3  UNL     1     -16.617  -2.195 -19.147  1.00  0.00    -0.172 NA
ENDROOT
BRANCH   1   6
HETATM    6  C3  UNL     1     -19.026   1.349 -16.835  1.00  0.00     0.158 C
BRANCH   6   7
HETATM    7  N1  UNL     1     -18.504   1.280 -15.467  1.00  0.00    -0.325 N
HETATM    8  C2  UNL     1     -18.262   2.435 -14.718  1.00  0.00     0.360 C
HETATM    9  O2  UNL     1     -18.458   3.594 -15.113  1.00  0.00    -0.239 OA
ATOM     10  H1  UNL     1     -18.314   0.368 -15.052  1.00  0.00     0.165 HD
BRANCH   8  11
HETATM   11  O1  UNL     1     -17.763   2.295 -13.424  1.00  0.00    -0.309 OA
HETATM   12  C1  UNL     1     -17.699   1.021 -12.810  1.00  0.00     0.215 C
ENDBRANCH   8  11
ENDBRANCH   6   7
BRANCH   6  13
HETATM   13  C9  UNL     1     -20.469   0.966 -16.752  1.00  0.00     0.008 C
HETATM   14  C10 UNL     1     -21.431   2.068 -17.030  1.00  0.00     0.012 C
HETATM   15  C11 UNL     1     -20.834   0.285 -15.451  1.00  0.00     0.012 C
ENDBRANCH   6  13
ENDBRANCH   1   6
BRANCH   1  16
HETATM   16  N4  UNL     1     -17.399   1.200 -18.664  1.00  0.00    -0.374 N
ATOM     17  H4  UNL     1     -16.431   1.393 -18.405  1.00  0.00     0.161 HD
BRANCH  16  18
HETATM   18  C6  UNL     1     -17.806   1.624 -19.957  1.00  0.00     0.074 C
HETATM   19  C7  UNL     1     -17.115   0.918 -21.104  1.00  0.00     0.031 C
HETATM   20  C8  UNL     1     -19.298   1.648 -20.192  1.00  0.00     0.031 C
ENDBRANCH  16  18
ENDBRANCH   1  16
TORSDOF 6
ENDMDL