MODEL 1
REMARK VINA RESULT: -6.055669022      0.000      0.000
REMARK  5 active torsions:
REMARK  status: ('A' for Active; 'I' for Inactive)
REMARK    1  A    between atoms: O1_1  and  C1_3
REMARK    2  A    between atoms: C1_3  and  C2_4
REMARK    3  A    between atoms: C2_4  and  N1_5
REMARK    4  A    between atoms: C2_4  and  C10_15
REMARK    5  A    between atoms: N1_5  and  C3_7
ROOT
HETATM    1  N1  UNL     1     -17.086   0.130 -17.878  1.00  0.00    -0.408 N
ATOM      2  H1  UNL     1     -16.081   0.295 -17.907  1.00  0.00     0.154 HD
ENDROOT
BRANCH   1   3
HETATM    3  C2  UNL     1     -17.633  -0.713 -18.841  1.00  0.00     0.104 C
BRANCH   3   4
HETATM    4  C1  UNL     1     -16.741  -1.978 -18.824  1.00  0.00     0.189 C
BRANCH   4   5
HETATM    5  O1  UNL     1     -17.372  -2.983 -18.068  1.00  0.00    -0.399 OA
ATOM      6  H1  UNL     1     -17.111  -2.902 -17.158  1.00  0.00     0.209 HD
ENDBRANCH   4   5
ENDBRANCH   3   4
BRANCH   3   7
HETATM    7  C10 UNL     1     -17.635  -0.272 -20.258  1.00  0.00     0.010 C
HETATM    8  C11 UNL     1     -17.302   1.135 -20.592  1.00  0.00     0.007 C
HETATM    9  C12 UNL     1     -16.485   0.625 -21.767  1.00  0.00     0.001 C
HETATM   10  C13 UNL     1     -16.391  -0.700 -21.008  1.00  0.00     0.007 C
ENDBRANCH   3   7
ENDBRANCH   1   3
BRANCH   1  11
HETATM   11  C3  UNL     1     -17.811   0.759 -16.885  1.00  0.00     0.111 C
HETATM   12  C4  UNL     1     -18.986  -0.149 -16.505  1.00  0.00     0.297 C
HETATM   13  N2  UNL     1     -20.151   0.677 -16.470  1.00  0.00     0.090 N
HETATM   14  C5  UNL     1     -20.247   1.267 -15.165  1.00  0.00     0.272 C
HETATM   15  C9  UNL     1     -19.917   1.708 -17.474  1.00  0.00     0.279 C
HETATM   16  C6  UNL     1     -19.054   2.057 -14.749  1.00  0.00     0.031 C
HETATM   17  C7  UNL     1     -18.510   2.878 -15.887  1.00  0.00     0.010 C
HETATM   18  C8  UNL     1     -18.462   2.054 -17.160  1.00  0.00     0.038 C
ENDBRANCH   1  11
TORSDOF 5
ENDMDL