MODEL 2
REMARK VINA RESULT: -4.621374611      2.979      5.029
REMARK  6 active torsions:
REMARK  status: ('A' for Active; 'I' for Inactive)
REMARK    1  A    between atoms: C2_2  and  C3_3
REMARK    2  A    between atoms: N1_5  and  C5_6
REMARK    3  A    between atoms: C5_6  and  C6_7
REMARK    4  A    between atoms: C6_7  and  N2_8
REMARK    5  A    between atoms: N2_8  and  C7_10
REMARK    6  A    between atoms: C7_10  and  N3_12
ROOT
HETATM    1  C5  UNL     1     -18.895   2.068 -18.026  1.00  0.00     0.292 C
ENDROOT
BRANCH   1   2
HETATM    2  N1  UNL     1     -18.682   2.006 -16.600  1.00  0.00     0.094 N
HETATM    3  C4  UNL     1     -19.932   2.319 -15.969  1.00  0.00     0.304 C
HETATM    4  C3  UNL     1     -20.749   1.224 -15.427  1.00  0.00     0.149 C
HETATM    5  O1  UNL     1     -20.057   0.101 -15.028  1.00  0.00    -0.382 OA
HETATM    6  C10 UNL     1     -19.058  -0.277 -15.878  1.00  0.00     0.198 C
HETATM    7  C9  UNL     1     -18.070   0.796 -16.169  1.00  0.00     0.298 C
BRANCH   4   8
HETATM    8  C2  UNL     1     -21.910   0.825 -16.320  1.00  0.00     0.029 C
HETATM    9  C1  UNL     1     -22.464   2.045 -17.054  1.00  0.00     0.007 C
ENDBRANCH   4   8
ENDBRANCH   1   2
BRANCH   1  10
HETATM   10  C6  UNL     1     -17.662   2.353 -18.815  1.00  0.00     0.152 C
BRANCH  10  11
HETATM   11  N2  UNL     1     -17.696   1.624 -20.080  1.00  0.00    -0.366 N
ATOM     12  H2  UNL     1     -17.949   2.130 -20.929  1.00  0.00     0.161 HD
BRANCH  11  13
HETATM   13  C7  UNL     1     -17.398   0.259 -20.176  1.00  0.00     0.167 C
HETATM   14  S1  UNL     1     -17.951  -0.555 -21.506  1.00  0.00    -0.041 SA
BRANCH  13  15
HETATM   15  N3  UNL     1     -16.673  -0.395 -19.173  1.00  0.00    -0.372 N
HETATM   16  C8  UNL     1     -17.082  -1.748 -18.756  1.00  0.00     0.148 C
ATOM     17  H3  UNL     1     -15.871   0.059 -18.736  1.00  0.00     0.161 HD
ENDBRANCH  13  15
ENDBRANCH  11  13
ENDBRANCH  10  11
ENDBRANCH   1  10
TORSDOF 6
ENDMDL