MODEL 5
REMARK VINA RESULT: -5.556207784      2.211      5.850
REMARK  6 active torsions:
REMARK  status: ('A' for Active; 'I' for Inactive)
REMARK    1  A    between atoms: O1_1  and  C1_3
REMARK    2  A    between atoms: C1_3  and  C2_4
REMARK    3  A    between atoms: C2_4  and  C3_5
REMARK    4  A    between atoms: C3_5  and  N1_6
REMARK    5  A    between atoms: N2_14  and  C11_15
REMARK    6  A    between atoms: C11_15  and  C12_16
ROOT
HETATM    1  C2  UNL     1     -18.970   1.589 -17.643  1.00  0.00     0.034 C
HETATM    2  C8  UNL     1     -18.328   2.807 -17.011  1.00  0.00     0.017 C
HETATM    3  C9  UNL     1     -18.103   2.694 -15.553  1.00  0.00     0.031 C
HETATM    4  C10 UNL     1     -17.994   1.330 -14.962  1.00  0.00     0.272 C
HETATM    5  N2  UNL     1     -18.612   0.275 -15.721  1.00  0.00     0.089 N
HETATM    6  C15 UNL     1     -19.693   0.774 -16.560  1.00  0.00     0.285 C
ENDROOT
BRANCH   1   7
HETATM    7  C1  UNL     1     -20.040   1.977 -18.606  1.00  0.00     0.177 C
BRANCH   7   8
HETATM    8  O1  UNL     1     -21.282   2.217 -18.063  1.00  0.00    -0.400 OA
ATOM      9  H1  UNL     1     -21.968   2.446 -18.679  1.00  0.00     0.209 HD
ENDBRANCH   7   8
ENDBRANCH   1   7
BRANCH   1  10
HETATM   10  C3  UNL     1     -17.877   0.708 -18.146  1.00  0.00     0.285 C
BRANCH  10  11
HETATM   11  N1  UNL     1     -17.981   0.234 -19.493  1.00  0.00     0.089 N
HETATM   12  C4  UNL     1     -17.125   1.105 -20.321  1.00  0.00     0.272 C
HETATM   13  C5  UNL     1     -16.772   0.253 -21.516  1.00  0.00     0.032 C
HETATM   14  C6  UNL     1     -16.491  -1.075 -20.859  1.00  0.00     0.032 C
HETATM   15  C7  UNL     1     -17.342  -1.069 -19.610  1.00  0.00     0.272 C
ENDBRANCH  10  11
ENDBRANCH   1  10
BRANCH   5  16
HETATM   16  C11 UNL     1     -19.235  -0.690 -14.837  1.00  0.00     0.277 C
BRANCH  16  17
HETATM   17  C12 UNL     1     -19.204  -0.263 -13.393  1.00  0.00     0.014 A
HETATM   18  C13 UNL     1     -18.866  -1.430 -12.443  1.00  0.00     0.007 A
HETATM   19  C14 UNL     1     -20.189  -0.722 -12.417  1.00  0.00     0.007 A
ENDBRANCH  16  17
ENDBRANCH   5  16
TORSDOF 6
ENDMDL