MODEL 2
REMARK VINA RESULT: -5.977147784      1.472      2.413
REMARK  6 active torsions:
REMARK  status: ('A' for Active; 'I' for Inactive)
REMARK    1  A    between atoms: C2_2  and  O1_4
REMARK    2  A    between atoms: O1_4  and  C4_5
REMARK    3  A    between atoms: C4_5  and  C5_6
REMARK    4  A    between atoms: C5_6  and  O2_7
REMARK    5  A    between atoms: C5_6  and  C6_9
REMARK    6  A    between atoms: C6_9  and  N1_10
ROOT
HETATM    1  N1  UNL     1     -19.592   0.581 -15.849  1.00  0.00     0.124 N
HETATM    2  C7  UNL     1     -20.785   0.016 -15.415  1.00  0.00     0.276 C
HETATM    3  C8  UNL     1     -21.943   0.913 -15.143  1.00  0.00     0.036 C
HETATM    4  C9  UNL     1     -21.836   2.320 -15.585  1.00  0.00     0.016 C
HETATM    5  C10 UNL     1     -21.942   2.432 -17.097  1.00  0.00     0.010 C
HETATM    6  C11 UNL     1     -20.762   1.712 -17.702  1.00  0.00     0.069 C
HETATM    7  C12 UNL     1     -19.619   1.710 -16.717  1.00  0.00     0.455 C
HETATM    8  N2  UNL     1     -19.541   2.979 -15.970  1.00  0.00     0.118 N
HETATM    9  C13 UNL     1     -18.252   3.021 -15.329  1.00  0.00     0.312 C
HETATM   10  C14 UNL     1     -20.645   3.069 -15.037  1.00  0.00     0.279 C
ENDROOT
BRANCH   1  11
HETATM   11  C6  UNL     1     -18.689  -0.381 -16.397  1.00  0.00     0.308 C
BRANCH  11  12
HETATM   12  C5  UNL     1     -17.689   0.102 -17.392  1.00  0.00     0.170 C
BRANCH  12  13
HETATM   13  C4  UNL     1     -17.517  -0.944 -18.461  1.00  0.00     0.201 C
BRANCH  13  14
HETATM   14  O1  UNL     1     -16.960  -0.643 -19.619  1.00  0.00    -0.384 OA
BRANCH  14  15
HETATM   15  C2  UNL     1     -17.513   0.056 -20.609  1.00  0.00     0.113 C
HETATM   16  C1  UNL     1     -16.423   0.770 -21.406  1.00  0.00     0.039 C
HETATM   17  C3  UNL     1     -18.245  -0.810 -21.640  1.00  0.00     0.039 C
ENDBRANCH  14  15
ENDBRANCH  13  14
ENDBRANCH  12  13
BRANCH  12  18
HETATM   18  O2  UNL     1     -16.468   0.492 -16.907  1.00  0.00    -0.392 OA
ATOM     19  H2  UNL     1     -16.552   0.797 -16.011  1.00  0.00     0.210 HD
ENDBRANCH  12  18
ENDBRANCH  11  12
ENDBRANCH   1  11
TORSDOF 6
ENDMDL