MODEL 1
REMARK VINA RESULT: -5.985974523      0.000      0.000
REMARK  5 active torsions:
REMARK  status: ('A' for Active; 'I' for Inactive)
REMARK    1  A    between atoms: N1_2  and  C2_5
REMARK    2  A    between atoms: C2_5  and  C3_6
REMARK    3  A    between atoms: N2_7  and  C4_9
REMARK    4  A    between atoms: C4_9  and  C5_10
REMARK    5  A    between atoms: C5_10  and  S1_11
ROOT
HETATM    1  C4  UNL     1     -18.613   1.497 -17.694  1.00  0.00     0.041 C
HETATM    2  C7  UNL     1     -19.094   1.985 -19.041  1.00  0.00     0.032 C
HETATM    3  C8  UNL     1     -17.970   1.997 -20.057  1.00  0.00     0.004 C
HETATM    4  C9  UNL     1     -17.595   0.568 -20.313  1.00  0.00     0.019 C
HETATM    5  C10 UNL     1     -17.465  -0.256 -19.077  1.00  0.00     0.095 C
HETATM    6  C11 UNL     1     -16.167  -0.958 -19.129  1.00  0.00     0.064 C
HETATM    7  N3  UNL     1     -15.143  -1.500 -19.181  1.00  0.00    -0.197 NA
HETATM    8  C12 UNL     1     -17.480   0.544 -17.803  1.00  0.00     0.051 C
ENDROOT
BRANCH   1   9
HETATM    9  N2  UNL     1     -19.757   0.784 -17.103  1.00  0.00    -0.391 N
HETATM   10  C3  UNL     1     -20.851   1.419 -17.047  1.00  0.00     0.083 C
ATOM     11  H2  UNL     1     -19.673  -0.172 -16.756  1.00  0.00     0.159 HD
BRANCH  10  12
HETATM   12  C2  UNL     1     -22.092   0.825 -16.475  1.00  0.00     0.275 C
BRANCH  12  13
HETATM   13  N1  UNL     1     -21.761   0.365 -15.133  1.00  0.00    -0.075 N
HETATM   14  C1  UNL     1     -22.884  -0.354 -14.561  1.00  0.00     0.267 C
ATOM     15  H12 UNL     1     -21.453   1.129 -14.532  1.00  0.00     0.277 HD
ATOM     16  H11 UNL     1     -20.906  -0.190 -15.119  1.00  0.00     0.277 HD
ENDBRANCH  12  13
ENDBRANCH  10  12
ENDBRANCH   1   9
BRANCH   1  17
HETATM   17  C5  UNL     1     -18.410   2.669 -16.784  1.00  0.00     0.139 C
BRANCH  17  18
HETATM   18  S1  UNL     1     -17.916   2.331 -15.150  1.00  0.00     0.013 S
HETATM   19  C6  UNL     1     -18.639   3.573 -14.067  1.00  0.00     0.127 C
HETATM   20  O1  UNL     1     -18.520   0.867 -14.596  1.00  0.00    -0.258 OA
ENDBRANCH  17  18
ENDBRANCH   1  17
TORSDOF 5
ENDMDL