MODEL 5
REMARK VINA RESULT: -6.054559877      0.940      1.540
REMARK  6 active torsions:
REMARK  status: ('A' for Active; 'I' for Inactive)
REMARK    1  A    between atoms: N2_6  and  C5_7
REMARK    2  A    between atoms: C5_7  and  C6_8
REMARK    3  A    between atoms: C6_8  and  C7_9
REMARK    4  A    between atoms: C7_9  and  C8_10
REMARK    5  A    between atoms: C8_10  and  N3_11
REMARK    6  A    between atoms: C11_14  and  O1_15
ROOT
HETATM    1  C7  UNL     1     -18.375   2.754 -17.658  1.00  0.00     0.021 C
ENDROOT
BRANCH   1   2
HETATM    2  C6  UNL     1     -19.597   2.389 -16.843  1.00  0.00     0.017 C
BRANCH   2   3
HETATM    3  C5  UNL     1     -19.183   1.856 -15.492  1.00  0.00     0.096 C
BRANCH   3   4
HETATM    4  N2  UNL     1     -20.229   1.036 -14.911  1.00  0.00    -0.279 NA
HETATM    5  C4  UNL     1     -20.705   1.577 -13.659  1.00  0.00     0.098 C
HETATM    6  C3  UNL     1     -21.793   2.603 -13.823  1.00  0.00     0.035 C
HETATM    7  C2  UNL     1     -22.959   2.079 -14.629  1.00  0.00     0.123 C
HETATM    8  N1  UNL     1     -22.614   0.863 -15.306  1.00  0.00    -0.385 N
HETATM    9  C1  UNL     1     -23.047  -0.338 -14.671  1.00  0.00     0.149 C
HETATM   10  C14 UNL     1     -21.295   0.827 -15.863  1.00  0.00     0.148 C
ENDBRANCH   3   4
ENDBRANCH   2   3
ENDBRANCH   1   2
BRANCH   1  11
HETATM   11  C8  UNL     1     -17.391   1.601 -17.732  1.00  0.00     0.127 C
BRANCH  11  12
HETATM   12  N3  UNL     1     -17.940   0.613 -18.612  1.00  0.00    -0.374 N
HETATM   13  C9  UNL     1     -18.063   0.985 -19.961  1.00  0.00     0.065 C
HETATM   14  C10 UNL     1     -17.610  -0.037 -20.971  1.00  0.00     0.076 C
HETATM   15  C11 UNL     1     -16.366  -0.705 -20.375  1.00  0.00     0.127 C
HETATM   16  C12 UNL     1     -16.877  -1.539 -19.225  1.00  0.00     0.076 C
HETATM   17  C13 UNL     1     -17.680  -0.728 -18.274  1.00  0.00     0.065 C
BRANCH  15  18
HETATM   18  O1  UNL     1     -15.694  -1.447 -21.318  1.00  0.00    -0.395 OA
ATOM     19  H1  UNL     1     -15.932  -1.185 -22.200  1.00  0.00     0.210 HD
ENDBRANCH  15  18
ENDBRANCH  11  12
ENDBRANCH   1  11
TORSDOF 6
ENDMDL