MODEL 1
REMARK VINA RESULT: -6.229510948      0.000      0.000
REMARK  6 active torsions:
REMARK  status: ('A' for Active; 'I' for Inactive)
REMARK    1  A    between atoms: O1_2  and  C2_3
REMARK    2  A    between atoms: N1_6  and  C5_7
REMARK    3  A    between atoms: C5_7  and  C6_8
REMARK    4  A    between atoms: C6_8  and  O2_9
REMARK    5  A    between atoms: C6_8  and  C7_11
REMARK    6  A    between atoms: C7_11  and  N2_12
ROOT
HETATM    1  C6  UNL     1     -18.353   2.517 -17.773  1.00  0.00     0.174 C
ENDROOT
BRANCH   1   2
HETATM    2  C5  UNL     1     -18.662   2.843 -16.367  1.00  0.00     0.305 C
BRANCH   2   3
HETATM    3  N1  UNL     1     -20.058   2.582 -16.010  1.00  0.00     0.091 N
HETATM    4  C4  UNL     1     -20.081   1.651 -14.895  1.00  0.00     0.275 C
HETATM    5  C3  UNL     1     -20.823   0.380 -15.249  1.00  0.00     0.062 C
HETATM    6  C2  UNL     1     -22.234   0.670 -15.704  1.00  0.00     0.124 C
HETATM    7  C14 UNL     1     -22.276   1.903 -16.558  1.00  0.00     0.062 C
HETATM    8  C13 UNL     1     -20.856   2.115 -17.098  1.00  0.00     0.275 C
BRANCH   6   9
HETATM    9  O1  UNL     1     -23.094   0.827 -14.624  1.00  0.00    -0.391 OA
HETATM   10  C1  UNL     1     -23.377  -0.354 -13.966  1.00  0.00     0.202 C
ENDBRANCH   6   9
ENDBRANCH   2   3
ENDBRANCH   1   2
BRANCH   1  11
HETATM   11  O2  UNL     1     -17.510   3.580 -18.250  1.00  0.00    -0.392 OA
ATOM     12  H2  UNL     1     -18.044   4.091 -18.846  1.00  0.00     0.210 HD
ENDBRANCH   1  11
BRANCH   1  13
HETATM   13  C7  UNL     1     -17.527   1.295 -17.972  1.00  0.00     0.305 C
BRANCH  13  14
HETATM   14  N2  UNL     1     -17.958   0.287 -18.867  1.00  0.00     0.090 N
HETATM   15  C8  UNL     1     -17.600   0.796 -20.218  1.00  0.00     0.272 C
HETATM   16  C9  UNL     1     -17.798  -0.245 -21.277  1.00  0.00     0.030 C
HETATM   17  C10 UNL     1     -16.745  -1.336 -21.128  1.00  0.00     0.003 C
HETATM   18  C11 UNL     1     -16.164  -1.190 -19.762  1.00  0.00     0.030 C
HETATM   19  C12 UNL     1     -17.315  -0.992 -18.773  1.00  0.00     0.272 C
ENDBRANCH  13  14
ENDBRANCH   1  13
TORSDOF 6
ENDMDL