MODEL 4
REMARK VINA RESULT: -6.248290786      0.931      1.037
REMARK  5 active torsions:
REMARK  status: ('A' for Active; 'I' for Inactive)
REMARK    1  A    between atoms: O1_1  and  C1_3
REMARK    2  A    between atoms: C1_3  and  C2_4
REMARK    3  A    between atoms: C1_3  and  C8_12
REMARK    4  A    between atoms: C2_4  and  C3_5
REMARK    5  A    between atoms: C3_5  and  N1_6
ROOT
HETATM    1  C1  UNL     1     -17.356   1.824 -16.417  1.00  0.00     0.158 C
ENDROOT
BRANCH   1   2
HETATM    2  O1  UNL     1     -16.322   0.778 -16.079  1.00  0.00    -0.390 OA
ATOM      3  H1  UNL     1     -16.241   0.900 -15.141  1.00  0.00     0.210 HD
ENDBRANCH   1   2
BRANCH   1   4
HETATM    4  C2  UNL     1     -17.782   1.377 -17.757  1.00  0.00     0.067 C
BRANCH   4   5
HETATM    5  C3  UNL     1     -17.905  -0.055 -18.073  1.00  0.00     0.275 C
BRANCH   5   6
HETATM    6  N1  UNL     1     -17.834  -0.204 -19.560  1.00  0.00     0.092 N
HETATM    7  C4  UNL     1     -16.969  -1.292 -19.878  1.00  0.00     0.298 C
HETATM    8  C5  UNL     1     -16.288  -1.235 -21.206  1.00  0.00     0.198 C
HETATM    9  O2  UNL     1     -15.704   0.009 -21.436  1.00  0.00    -0.388 OA
HETATM   10  C6  UNL     1     -16.664   1.016 -21.392  1.00  0.00     0.198 C
HETATM   11  C7  UNL     1     -17.477   1.039 -20.149  1.00  0.00     0.298 C
ENDBRANCH   5   6
ENDBRANCH   4   5
ENDBRANCH   1   4
BRANCH   1  12
HETATM   12  C8  UNL     1     -18.227   1.740 -15.229  1.00  0.00     0.094 C
HETATM   13  N2  UNL     1     -19.562   1.492 -15.176  1.00  0.00    -0.371 N
HETATM   14  C9  UNL     1     -20.202   0.275 -15.370  1.00  0.00     0.063 C
HETATM   15  C14 UNL     1     -20.431   2.572 -14.852  1.00  0.00     0.127 C
HETATM   16  C10 UNL     1     -21.194  -0.093 -14.282  1.00  0.00     0.044 C
HETATM   17  C11 UNL     1     -22.571   0.247 -14.793  1.00  0.00     0.005 C
HETATM   18  C12 UNL     1     -22.807   1.733 -14.872  1.00  0.00     0.002 C
HETATM   19  C13 UNL     1     -21.723   2.470 -15.626  1.00  0.00     0.020 C
ENDBRANCH   1  12
TORSDOF 5
ENDMDL