MODEL 5
REMARK VINA RESULT: -5.648460933      1.070      2.062
REMARK  5 active torsions:
REMARK  status: ('A' for Active; 'I' for Inactive)
REMARK    1  A    between atoms: N1_6  and  C6_7
REMARK    2  A    between atoms: C6_7  and  C7_8
REMARK    3  A    between atoms: C7_8  and  N2_9
REMARK    4  A    between atoms: N3_12  and  C10_13
REMARK    5  A    between atoms: C10_13  and  C11_14
ROOT
HETATM    1  N2  UNL     1     -19.568   2.681 -16.726  1.00  0.00     0.093 N
HETATM    2  C8  UNL     1     -20.645   1.956 -17.408  1.00  0.00     0.302 C
HETATM    3  C9  UNL     1     -21.641   1.487 -16.385  1.00  0.00     0.303 C
HETATM    4  N3  UNL     1     -21.062   0.328 -15.725  1.00  0.00     0.096 N
HETATM    5  C12 UNL     1     -19.617   0.515 -15.578  1.00  0.00     0.303 C
HETATM    6  C13 UNL     1     -19.305   2.012 -15.463  1.00  0.00     0.302 C
ENDROOT
BRANCH   1   7
HETATM    7  C7  UNL     1     -18.404   2.721 -17.590  1.00  0.00     0.302 C
BRANCH   7   8
HETATM    8  C6  UNL     1     -18.601   2.107 -18.936  1.00  0.00     0.302 C
BRANCH   8   9
HETATM    9  N1  UNL     1     -17.574   1.138 -19.261  1.00  0.00     0.090 N
HETATM   10  C5  UNL     1     -17.285   1.210 -20.653  1.00  0.00     0.272 C
HETATM   11  C4  UNL     1     -18.176   0.171 -21.340  1.00  0.00     0.031 C
HETATM   12  C3  UNL     1     -17.517  -1.174 -21.020  1.00  0.00     0.007 C
HETATM   13  C2  UNL     1     -17.199  -1.269 -19.543  1.00  0.00     0.010 C
HETATM   14  C1  UNL     1     -15.704  -1.342 -19.291  1.00  0.00     0.011 C
HETATM   15  C14 UNL     1     -17.848  -0.156 -18.755  1.00  0.00     0.276 C
ENDBRANCH   8   9
ENDBRANCH   7   8
ENDBRANCH   1   7
BRANCH   4  16
HETATM   16  C10 UNL     1     -21.631   0.100 -14.426  1.00  0.00     0.316 C
BRANCH  16  17
HETATM   17  C11 UNL     1     -23.028  -0.376 -14.600  1.00  0.00     0.083 C
HETATM   18  N4  UNL     1     -23.868  -0.426 -13.631  1.00  0.00    -0.410 N
ATOM     19  H42 UNL     1     -23.548  -0.122 -12.711  1.00  0.00     0.155 HD
ATOM     20  H41 UNL     1     -24.827  -0.753 -13.750  1.00  0.00     0.155 HD
ENDBRANCH  16  17
ENDBRANCH   4  16
TORSDOF 5
ENDMDL