MODEL 1
REMARK VINA RESULT: -6.037529631      0.000      0.000
REMARK  6 active torsions:
REMARK  status: ('A' for Active; 'I' for Inactive)
REMARK    1  A    between atoms: C4_5  and  O1_6
REMARK    2  A    between atoms: O1_6  and  C5_7
REMARK    3  A    between atoms: C5_7  and  C6_8
REMARK    4  A    between atoms: C6_8  and  O2_9
REMARK    5  A    between atoms: C6_8  and  C7_11
REMARK    6  A    between atoms: C7_11  and  N2_12
ROOT
HETATM    1  C6  UNL     1     -18.073   2.352 -15.333  1.00  0.00     0.170 C
ENDROOT
BRANCH   1   2
HETATM    2  C5  UNL     1     -17.259   1.638 -16.342  1.00  0.00     0.201 C
BRANCH   2   3
HETATM    3  O1  UNL     1     -17.724   0.396 -16.725  1.00  0.00    -0.383 OA
BRANCH   3   4
HETATM    4  C4  UNL     1     -17.938   0.224 -18.028  1.00  0.00     0.124 C
HETATM    5  C3  UNL     1     -16.833  -0.659 -18.679  1.00  0.00     0.062 C
HETATM    6  C2  UNL     1     -17.403  -1.065 -20.020  1.00  0.00     0.274 C
HETATM    7  N1  UNL     1     -17.585   0.093 -20.849  1.00  0.00     0.084 N
HETATM    8  C1  UNL     1     -16.376   0.490 -21.532  1.00  0.00     0.309 C
HETATM    9  C14 UNL     1     -18.300   1.171 -20.247  1.00  0.00     0.274 C
HETATM   10  C13 UNL     1     -17.871   1.498 -18.857  1.00  0.00     0.062 C
ENDBRANCH   3   4
ENDBRANCH   2   3
ENDBRANCH   1   2
BRANCH   1  11
HETATM   11  O2  UNL     1     -17.256   3.160 -14.501  1.00  0.00    -0.392 OA
ATOM     12  H2  UNL     1     -17.780   3.788 -14.016  1.00  0.00     0.210 HD
ENDBRANCH   1  11
BRANCH   1  13
HETATM   13  C7  UNL     1     -19.168   3.191 -15.892  1.00  0.00     0.306 C
BRANCH  13  14
HETATM   14  N2  UNL     1     -20.490   2.716 -15.662  1.00  0.00     0.091 N
HETATM   15  C8  UNL     1     -20.995   2.159 -16.955  1.00  0.00     0.272 C
HETATM   16  C9  UNL     1     -22.419   1.789 -16.747  1.00  0.00     0.030 C
HETATM   17  C10 UNL     1     -22.563   0.652 -15.744  1.00  0.00     0.003 C
HETATM   18  C11 UNL     1     -21.143   0.370 -15.264  1.00  0.00     0.030 C
HETATM   19  C12 UNL     1     -20.581   1.631 -14.687  1.00  0.00     0.272 C
ENDBRANCH  13  14
ENDBRANCH   1  13
TORSDOF 6
ENDMDL