MODEL 2
REMARK VINA RESULT: -5.645683656      1.280      1.644
REMARK  6 active torsions:
REMARK  status: ('A' for Active; 'I' for Inactive)
REMARK    1  A    between atoms: N1_2  and  C2_3
REMARK    2  A    between atoms: N1_2  and  C9_13
REMARK    3  A    between atoms: C2_3  and  C3_4
REMARK    4  A    between atoms: C3_4  and  O1_5
REMARK    5  A    between atoms: C3_4  and  C4_7
REMARK    6  A    between atoms: C4_7  and  N2_8
ROOT
HETATM    1  C2  UNL     1     -17.993   0.862 -15.655  1.00  0.00     0.091 C
ENDROOT
BRANCH   1   2
HETATM    2  N1  UNL     1     -19.022   1.818 -15.663  1.00  0.00    -0.390 N
HETATM    3  C1  UNL     1     -18.607   3.140 -15.830  1.00  0.00     0.149 C
BRANCH   2   4
HETATM    4  C9  UNL     1     -20.258   1.505 -15.079  1.00  0.00     0.084 C
HETATM    5  C10 UNL     1     -21.468   2.042 -15.754  1.00  0.00     0.035 C
HETATM    6  C11 UNL     1     -22.379   0.936 -16.308  1.00  0.00     0.076 C
HETATM    7  S1  UNL     1     -22.977   0.023 -14.841  1.00  0.00    -0.169 SA
HETATM    8  C12 UNL     1     -21.449  -0.373 -13.904  1.00  0.00     0.076 C
HETATM    9  C13 UNL     1     -20.312  -0.006 -14.837  1.00  0.00     0.035 C
ENDBRANCH   2   4
ENDBRANCH   1   2
BRANCH   1  10
HETATM   10  C3  UNL     1     -17.047   0.917 -16.838  1.00  0.00     0.184 C
BRANCH  10  11
HETATM   11  O1  UNL     1     -15.733   0.739 -16.429  1.00  0.00    -0.389 OA
ATOM     12  H1  UNL     1     -15.369   1.551 -16.097  1.00  0.00     0.210 HD
ENDBRANCH  10  11
BRANCH  10  13
HETATM   13  C4  UNL     1     -17.477  -0.124 -17.822  1.00  0.00     0.309 C
BRANCH  13  14
HETATM   14  N2  UNL     1     -16.740  -0.138 -19.048  1.00  0.00     0.091 N
HETATM   15  C5  UNL     1     -17.539   0.614 -20.026  1.00  0.00     0.272 C
HETATM   16  C6  UNL     1     -16.679   0.392 -21.261  1.00  0.00     0.032 C
HETATM   17  C7  UNL     1     -16.543  -1.135 -21.196  1.00  0.00     0.032 C
HETATM   18  C8  UNL     1     -16.672  -1.423 -19.697  1.00  0.00     0.272 C
ENDBRANCH  13  14
ENDBRANCH  10  13
ENDBRANCH   1  10
TORSDOF 6
ENDMDL