MODEL 3
REMARK VINA RESULT: -6.177900678      3.424      4.467
REMARK  2 active torsions:
REMARK  status: ('A' for Active; 'I' for Inactive)
REMARK    1  A    between atoms: C5_5  and  C6_6
REMARK    2  A    between atoms: C6_6  and  C7_7
ROOT
HETATM    1  C7  UNL     1      47.773  23.270  39.678  1.00  0.00     0.126 C
HETATM    2  C8  UNL     1      47.370  22.117  40.481  1.00  0.00     0.059 C
HETATM    3  N1  UNL     1      47.039  21.204  41.108  1.00  0.00    -0.197 NA
ENDROOT
BRANCH   1   4
HETATM    4  C6  UNL     1      49.066  23.871  40.191  1.00  0.00     0.049 C
BRANCH   4   5
HETATM    5  C5  UNL     1      48.836  25.243  40.785  1.00  0.00     0.161 C
HETATM    6  C4  UNL     1      47.685  25.886  40.109  1.00  0.00     0.038 C
HETATM    7  C3  UNL     1      46.694  26.539  40.995  1.00  0.00     0.037 C
HETATM    8  C2  UNL     1      46.895  26.315  42.455  1.00  0.00     0.156 C
HETATM    9  C1  UNL     1      46.220  27.387  43.252  1.00  0.00     0.042 C
HETATM   10  O2  UNL     1      48.250  26.181  42.736  1.00  0.00    -0.236 OA
HETATM   11  O1  UNL     1      48.628  25.042  42.163  1.00  0.00    -0.235 OA
ENDBRANCH   4   5
ENDBRANCH   1   4
TORSDOF 2
ENDMDL