MODEL 1
REMARK VINA RESULT: -6.201812510      0.000      0.000
REMARK  3 active torsions:
REMARK  status: ('A' for Active; 'I' for Inactive)
REMARK    1  A    between atoms: C2_2  and  C3_3
REMARK    2  A    between atoms: C6_7  and  C7_8
REMARK    3  A    between atoms: C7_8  and  C8_9
ROOT
HETATM    1  C8  UNL     1      48.325  23.023  40.228  1.00  0.00     0.126 C
HETATM    2  C9  UNL     1      47.477  21.918  40.639  1.00  0.00     0.059 C
HETATM    3  N1  UNL     1      46.806  21.032  40.988  1.00  0.00    -0.197 NA
ENDROOT
BRANCH   1   4
HETATM    4  C7  UNL     1      47.566  24.094  39.475  1.00  0.00     0.046 C
BRANCH   4   5
HETATM    5  C6  UNL     1      47.980  25.498  39.886  1.00  0.00     0.127 C
HETATM    6  C5  UNL     1      49.035  25.359  40.955  1.00  0.00     0.058 C
HETATM    7  C4  UNL     1      48.633  25.936  42.273  1.00  0.00     0.173 C
HETATM    8  O1  UNL     1      47.772  26.985  42.222  1.00  0.00    -0.361 OA
HETATM    9  C3  UNL     1      47.370  27.382  40.973  1.00  0.00     0.259 C
HETATM   10  O2  UNL     1      46.909  26.262  40.280  1.00  0.00    -0.356 OA
BRANCH   9  11
HETATM   11  C2  UNL     1      46.256  28.395  41.183  1.00  0.00     0.056 C
HETATM   12  C1  UNL     1      44.903  27.807  41.229  1.00  0.00     0.010 C
ENDBRANCH   9  11
ENDBRANCH   4   5
ENDBRANCH   1   4
TORSDOF 3
ENDMDL