MODEL 4
REMARK VINA RESULT: -5.416566600      1.211      2.076
REMARK  3 active torsions:
REMARK  status: ('A' for Active; 'I' for Inactive)
REMARK    1  A    between atoms: S1_3  and  C2_4
REMARK    2  A    between atoms: C2_4  and  C3_5
REMARK    3  A    between atoms: C3_5  and  N2_6
ROOT
HETATM    1  N1  UNL     1      53.191  23.916  37.168  1.00  0.00    -0.184 NA
HETATM    2  C1  UNL     1      52.747  23.916  38.230  1.00  0.00     0.133 C
HETATM    3  S1  UNL     1      52.085  23.944  39.900  1.00  0.00    -0.049 SA
ENDROOT
BRANCH   3   4
HETATM    4  C2  UNL     1      50.572  24.967  39.850  1.00  0.00     0.120 C
BRANCH   4   5
HETATM    5  C3  UNL     1      49.378  24.141  40.326  1.00  0.00     0.283 C
BRANCH   5   6
HETATM    6  N2  UNL     1      48.432  24.906  41.079  1.00  0.00     0.089 N
HETATM    7  C4  UNL     1      47.676  25.719  40.130  1.00  0.00     0.272 C
HETATM    8  C5  UNL     1      47.309  27.061  40.715  1.00  0.00     0.030 C
HETATM    9  C6  UNL     1      46.835  26.800  42.138  1.00  0.00     0.003 C
HETATM   10  C7  UNL     1      48.081  26.431  42.939  1.00  0.00     0.030 C
HETATM   11  C8  UNL     1      49.103  25.755  42.040  1.00  0.00     0.272 C
ENDBRANCH   5   6
ENDBRANCH   4   5
ENDBRANCH   3   4
TORSDOF 3
ENDMDL