MODEL 5
REMARK VINA RESULT: -5.412030403      1.696      2.436
REMARK  3 active torsions:
REMARK  status: ('A' for Active; 'I' for Inactive)
REMARK    1  A    between atoms: C2_2  and  C3_3
REMARK    2  A    between atoms: C6_6  and  C7_7
REMARK    3  A    between atoms: C7_7  and  N1_8
ROOT
HETATM    1  C3  UNL     1      47.412  27.393  41.089  1.00  0.00     0.144 C
HETATM    2  C4  UNL     1      48.191  27.599  42.350  1.00  0.00     0.038 C
HETATM    3  C5  UNL     1      48.265  26.175  42.907  1.00  0.00     0.036 C
HETATM    4  C6  UNL     1      48.132  25.375  41.637  1.00  0.00     0.146 C
HETATM    5  O3  UNL     1      47.129  26.059  40.958  1.00  0.00    -0.375 OA
ENDROOT
BRANCH   4   6
HETATM    6  C7  UNL     1      49.407  25.395  40.822  1.00  0.00     0.233 C
BRANCH   6   7
HETATM    7  N1  UNL     1      50.116  24.150  40.888  1.00  0.00    -0.153 N
HETATM    8  O1  UNL     1      49.567  23.143  41.336  1.00  0.00    -0.536 OA
HETATM    9  O2  UNL     1      51.403  24.062  40.458  1.00  0.00    -0.536 OA
ENDBRANCH   6   7
ENDBRANCH   4   6
BRANCH   1  10
HETATM   10  C2  UNL     1      46.193  28.239  41.024  1.00  0.00    -0.005 C
HETATM   11  C1  UNL     1      45.002  27.750  41.268  1.00  0.00     0.009 C
ENDBRANCH   1  10
TORSDOF 3
ENDMDL