MODEL 4
REMARK VINA RESULT: -6.327695177      3.372      5.216
REMARK  3 active torsions:
REMARK  status: ('A' for Active; 'I' for Inactive)
REMARK    1  A    between atoms: C2_3  and  C3_4
REMARK    2  A    between atoms: C3_4  and  C4_5
REMARK    3  A    between atoms: C4_5  and  C5_6
ROOT
HETATM    1  N1  UNL     1      46.278  28.139  41.153  1.00  0.00    -0.197 NA
HETATM    2  C1  UNL     1      46.793  27.459  41.931  1.00  0.00     0.059 C
HETATM    3  C2  UNL     1      47.422  26.585  42.916  1.00  0.00     0.124 C
ENDROOT
BRANCH   3   4
HETATM    4  C3  UNL     1      48.889  26.350  42.595  1.00  0.00     0.017 C
BRANCH   4   5
HETATM    5  C4  UNL     1      49.046  25.887  41.185  1.00  0.00     0.033 C
BRANCH   5   6
HETATM    6  C5  UNL     1      49.548  24.484  41.049  1.00  0.00     0.132 C
HETATM    7  C6  UNL     1      50.742  24.567  40.088  1.00  0.00     0.033 C
HETATM    8  C7  UNL     1      51.550  23.293  40.125  1.00  0.00     0.012 C
HETATM    9  C8  UNL     1      52.139  23.198  41.535  1.00  0.00     0.111 C
HETATM   10  C9  UNL     1      50.971  23.036  42.450  1.00  0.00     0.259 C
HETATM   11  O1  UNL     1      50.993  22.145  43.358  1.00  0.00    -0.265 OA
HETATM   12  O2  UNL     1      49.893  23.886  42.264  1.00  0.00    -0.316 OA
ENDBRANCH   5   6
ENDBRANCH   4   5
ENDBRANCH   3   4
TORSDOF 3
ENDMDL