MODEL 1
REMARK VINA RESULT: -6.163151107      0.000      0.000
REMARK  4 active torsions:
REMARK  status: ('A' for Active; 'I' for Inactive)
REMARK    1  A    between atoms: C2_2  and  C3_3
REMARK    2  A    between atoms: C2_2  and  C5_6
REMARK    3  A    between atoms: C3_3  and  C4_4
REMARK    4  A    between atoms: C5_6  and  C6_7
ROOT
HETATM    1  C6  UNL     1      50.615  23.810  41.246  1.00  0.00     0.164 C
HETATM    2  C7  UNL     1      51.743  22.973  40.742  1.00  0.00     0.037 C
HETATM    3  C8  UNL     1      52.539  22.299  41.825  1.00  0.00     0.032 C
HETATM    4  C9  UNL     1      51.708  21.902  43.016  1.00  0.00     0.210 C
HETATM    5  O2  UNL     1      50.393  22.255  42.814  1.00  0.00    -0.241 OA
HETATM    6  O3  UNL     1      50.364  23.553  42.579  1.00  0.00    -0.235 OA
ENDROOT
BRANCH   1   7
HETATM    7  C5  UNL     1      49.329  23.557  40.467  1.00  0.00     0.068 C
BRANCH   7   8
HETATM    8  C2  UNL     1      48.788  24.814  39.894  1.00  0.00    -0.080 C
HETATM    9  C1  UNL     1      49.550  25.509  39.055  1.00  0.00     0.015 C
BRANCH   8  10
HETATM   10  C3  UNL     1      47.438  25.312  40.231  1.00  0.00     0.102 C
BRANCH  10  11
HETATM   11  C4  UNL     1      47.259  25.639  41.655  1.00  0.00     0.235 C
HETATM   12  O1  UNL     1      48.125  26.163  42.324  1.00  0.00    -0.307 OA
ENDBRANCH  10  11
ENDBRANCH   8  10
ENDBRANCH   7   8
ENDBRANCH   1   7
TORSDOF 4
ENDMDL