MODEL 1
REMARK VINA RESULT: -6.390269313      0.000      0.000
REMARK  3 active torsions:
REMARK  status: ('A' for Active; 'I' for Inactive)
REMARK    1  A    between atoms: C2_3  and  C3_4
REMARK    2  A    between atoms: N2_5  and  C4_7
REMARK    3  A    between atoms: C7_10  and  C8_11
ROOT
HETATM    1  N1  UNL     1      46.722  21.241  40.982  1.00  0.00    -0.197 NA
HETATM    2  C1  UNL     1      47.538  21.953  40.620  1.00  0.00     0.064 C
HETATM    3  C2  UNL     1      48.586  22.857  40.182  1.00  0.00     0.167 C
ENDROOT
BRANCH   3   4
HETATM    4  C3  UNL     1      48.306  24.277  40.519  1.00  0.00     0.070 C
HETATM    5  N2  UNL     1      48.920  24.907  41.445  1.00  0.00    -0.397 N
ATOM      6  H2  UNL     1      49.639  24.438  41.997  1.00  0.00     0.159 HD
BRANCH   5   7
HETATM    7  C4  UNL     1      48.588  26.276  41.704  1.00  0.00     0.081 C
HETATM    8  C5  UNL     1      48.090  26.485  43.119  1.00  0.00     0.026 C
HETATM    9  C6  UNL     1      46.639  26.900  43.009  1.00  0.00     0.013 C
HETATM   10  C7  UNL     1      46.613  27.643  41.711  1.00  0.00     0.049 C
HETATM   11  C9  UNL     1      47.453  26.748  40.809  1.00  0.00     0.036 C
BRANCH  10  12
HETATM   12  C8  UNL     1      45.275  27.848  41.163  1.00  0.00     0.235 C
HETATM   13  O1  UNL     1      44.935  28.942  40.779  1.00  0.00    -0.306 OA
ENDBRANCH  10  12
ENDBRANCH   5   7
ENDBRANCH   3   4
TORSDOF 3
ENDMDL