MODEL 4
REMARK VINA RESULT: -7.402260167      2.939      4.634
REMARK  5 active torsions:
REMARK  status: ('A' for Active; 'I' for Inactive)
REMARK    1  A    between atoms: C2_2  and  C3_3
REMARK    2  A    between atoms: C2_2  and  C9_10
REMARK    3  A    between atoms: C9_10  and  O1_12
REMARK    4  A    between atoms: C9_10  and  C11_14
REMARK    5  A    between atoms: N3_20  and  C13_21
ROOT
HETATM    1  C11 UNL     1      47.909  15.505 -26.077  1.00  0.00     0.141 A
HETATM    2  N1  UNL     1      48.740  15.551 -27.132  1.00  0.00    -0.285 N
ATOM      3  H1  UNL     1      48.493  15.334 -28.097  1.00  0.00     0.188 HD
HETATM    4  N2  UNL     1      49.916  15.921 -26.708  1.00  0.00    -0.294 N
ATOM      5  H2  UNL     1      50.743  16.037 -27.293  1.00  0.00     0.187 HD
HETATM    6  C12 UNL     1      49.868  16.123 -25.390  1.00  0.00     0.208 A
HETATM    7  N3  UNL     1      48.586  15.857 -25.006  1.00  0.00    -0.272 N
ENDROOT
BRANCH   1   8
HETATM    8  C9  UNL     1      46.477  15.068 -26.053  1.00  0.00     0.121 C
HETATM    9  C10 UNL     1      45.888  15.614 -27.375  1.00  0.00     0.055 C
BRANCH   8  10
HETATM   10  C2  UNL     1      46.290  13.591 -26.094  1.00  0.00     0.056 C
HETATM   11  C1  UNL     1      46.370  13.010 -27.506  1.00  0.00     0.018 C
BRANCH  10  12
HETATM   12  C3  UNL     1      47.025  12.769 -25.113  1.00  0.00    -0.051 A
HETATM   13  C4  UNL     1      48.251  12.201 -25.252  1.00  0.00     0.009 A
HETATM   14  C5  UNL     1      48.814  11.391 -24.262  1.00  0.00     0.019 A
HETATM   15  C6  UNL     1      48.168  11.122 -23.096  1.00  0.00     0.011 A
HETATM   16 BR1  UNL     1      48.994   9.997 -21.775  1.00  0.00    -0.051 Br
HETATM   17  C7  UNL     1      46.929  11.684 -22.921  1.00  0.00     0.019 A
HETATM   18  C8  UNL     1      46.390  12.475 -23.905  1.00  0.00     0.009 A
ENDBRANCH  10  12
ENDBRANCH   8  10
BRANCH   8  19
HETATM   19  O1  UNL     1      45.823  15.621 -25.000  1.00  0.00    -0.382 OA
ATOM     20  H1  UNL     1      44.891  15.694 -25.170  1.00  0.00     0.211 HD
ENDBRANCH   8  19
ENDBRANCH   1   8
BRANCH   7  21
HETATM   21  C13 UNL     1      48.186  16.035 -23.630  1.00  0.00     0.159 A
HETATM   22  C14 UNL     1      48.613  15.116 -22.663  1.00  0.00     0.062 A
HETATM   23  C15 UNL     1      48.099  15.518 -21.467  1.00  0.00     0.073 A
HETATM   24  C16 UNL     1      47.365  16.677 -21.729  1.00  0.00     0.231 A
HETATM   25  F1  UNL     1      46.706  17.350 -20.766  1.00  0.00    -0.178 F
HETATM   26  O2  UNL     1      47.470  16.907 -23.030  1.00  0.00    -0.266 OA
ENDBRANCH   7  21
TORSDOF 5
ENDMDL