MODEL 3
REMARK VINA RESULT: -9.084506585      1.455      1.811
REMARK  4 active torsions:
REMARK  status: ('A' for Active; 'I' for Inactive)
REMARK    1  A    between atoms: C2_2  and  C4_4
REMARK    2  A    between atoms: C6_6  and  C7_7
REMARK    3  A    between atoms: N1_10  and  C10_11
REMARK    4  A    between atoms: N2_21  and  C18_22
ROOT
HETATM    1  C4  UNL     1      50.255  10.254 -24.024  1.00  0.00     0.032 A
HETATM    2  C5  UNL     1      49.343  11.234 -24.314  1.00  0.00     0.054 A
HETATM    3  C6  UNL     1      49.142  11.998 -23.177  1.00  0.00     0.042 A
HETATM    4  N2  UNL     1      49.927  11.480 -22.219  1.00  0.00    -0.241 N
HETATM    5  N6  UNL     1      50.583  10.437 -22.748  1.00  0.00    -0.296 N
ATOM      6  H6  UNL     1      51.248   9.856 -22.237  1.00  0.00     0.187 HD
ENDROOT
BRANCH   3   7
HETATM    7  C7  UNL     1      48.206  13.158 -23.088  1.00  0.00     0.041 C
HETATM    8  C8  UNL     1      48.983  14.443 -23.164  1.00  0.00     0.030 C
HETATM    9  C9  UNL     1      49.273  14.724 -24.631  1.00  0.00     0.118 C
HETATM   10  N1  UNL     1      48.104  15.262 -25.230  1.00  0.00    -0.408 N
HETATM   11  C16 UNL     1      46.935  14.617 -24.683  1.00  0.00     0.118 C
HETATM   12  C17 UNL     1      47.254  13.193 -24.277  1.00  0.00     0.030 C
BRANCH  10  13
HETATM   13  C10 UNL     1      48.018  16.630 -25.481  1.00  0.00     0.079 C
HETATM   14  C11 UNL     1      47.036  17.349 -24.574  1.00  0.00     0.030 C
HETATM   15  C12 UNL     1      46.726  18.728 -25.161  1.00  0.00     0.081 C
HETATM   16  C13 UNL     1      47.969  19.532 -25.400  1.00  0.00     0.243 C
HETATM   17  F1  UNL     1      48.466  20.030 -24.220  1.00  0.00    -0.206 F
HETATM   18  F2  UNL     1      47.605  20.573 -26.264  1.00  0.00    -0.206 F
HETATM   19  C14 UNL     1      49.039  18.740 -26.101  1.00  0.00     0.081 C
HETATM   20  C15 UNL     1      49.300  17.413 -25.408  1.00  0.00     0.030 C
ENDBRANCH  10  13
ENDBRANCH   3   7
BRANCH   4  21
HETATM   21  C18 UNL     1      50.062  11.932 -20.874  1.00  0.00     0.157 A
HETATM   22  C19 UNL     1      49.064  11.893 -19.939  1.00  0.00     0.156 A
HETATM   23  N3  UNL     1      49.565  12.421 -18.778  1.00  0.00    -0.292 N
HETATM   24  N4  UNL     1      50.831  12.769 -19.006  1.00  0.00    -0.021 NA
ATOM     25  H3  UNL     1      49.060  12.527 -17.899  1.00  0.00     0.183 HD
HETATM   26  N5  UNL     1      51.123  12.469 -20.275  1.00  0.00    -0.267 N
ATOM     27  H5  UNL     1      52.026  12.629 -20.721  1.00  0.00     0.186 HD
ENDBRANCH   4  21
BRANCH   1  28
HETATM   28  C2  UNL     1      50.838   9.198 -24.914  1.00  0.00     0.029 C
HETATM   29  C1  UNL     1      50.784   9.595 -26.345  1.00  0.00     0.016 C
HETATM   30  C3  UNL     1      52.260   8.841 -24.519  1.00  0.00     0.016 C
ENDBRANCH   1  28
TORSDOF 4
ENDMDL