MODEL 2
REMARK VINA RESULT: -9.673589012      1.407      1.686
REMARK  5 active torsions:
REMARK  status: ('A' for Active; 'I' for Inactive)
REMARK    1  A    between atoms: O1_1  and  C1_3
REMARK    2  A    between atoms: C3_5  and  C4_6
REMARK    3  A    between atoms: C4_6  and  C5_7
REMARK    4  A    between atoms: C5_7  and  C6_8
REMARK    5  A    between atoms: C12_17  and  C13_18
ROOT
HETATM    1  C1  UNL     1      49.990  12.552 -24.528  1.00  0.00     0.123 C
HETATM    2  C2  UNL     1      48.920  11.979 -25.421  1.00  0.00     0.063 C
HETATM    3  C3  UNL     1      47.623  12.698 -25.055  1.00  0.00     0.125 C
HETATM    4  O2  UNL     1      47.786  14.020 -25.432  1.00  0.00    -0.373 OA
HETATM    5  C12 UNL     1      48.610  14.653 -24.537  1.00  0.00     0.193 C
HETATM    6  C19 UNL     1      49.561  13.783 -23.808  1.00  0.00     0.071 C
ENDROOT
BRANCH   5   7
HETATM    7  C13 UNL     1      49.333  15.804 -25.179  1.00  0.00     0.129 A
HETATM    8  N1  UNL     1      50.647  15.909 -25.440  1.00  0.00    -0.285 N
HETATM    9  N2  UNL     1      50.898  17.089 -26.017  1.00  0.00    -0.287 N
ATOM     10  H1  UNL     1      51.346  15.196 -25.230  1.00  0.00     0.188 HD
HETATM   11  C14 UNL     1      49.737  17.761 -26.135  1.00  0.00     0.099 A
ATOM     12  H2  UNL     1      51.814  17.422 -26.317  1.00  0.00     0.188 HD
HETATM   13  N3  UNL     1      48.791  16.956 -25.614  1.00  0.00    -0.322 N
HETATM   14  C18 UNL     1      49.313  19.074 -26.663  1.00  0.00     0.078 C
HETATM   15  C15 UNL     1      47.432  17.456 -25.620  1.00  0.00     0.132 C
HETATM   16  C16 UNL     1      47.403  18.857 -25.050  1.00  0.00     0.021 C
HETATM   17  C17 UNL     1      48.379  19.771 -25.713  1.00  0.00     0.009 C
ENDBRANCH   5   7
BRANCH   3  18
HETATM   18  C4  UNL     1      46.493  12.026 -25.797  1.00  0.00     0.036 C
BRANCH  18  19
HETATM   19  C5  UNL     1      46.016  12.842 -26.964  1.00  0.00     0.041 C
BRANCH  19  20
HETATM   20  C6  UNL     1      46.231  12.202 -28.264  1.00  0.00    -0.053 A
HETATM   21  C7  UNL     1      45.815  12.865 -29.410  1.00  0.00     0.049 A
HETATM   22  C8  UNL     1      45.981  12.331 -30.669  1.00  0.00     0.118 A
HETATM   23  F1  UNL     1      45.585  12.955 -31.805  1.00  0.00    -0.206 F
HETATM   24  C9  UNL     1      46.580  11.096 -30.793  1.00  0.00     0.066 A
HETATM   25  C10 UNL     1      47.013  10.390 -29.682  1.00  0.00     0.037 A
HETATM   26 CL1  UNL     1      47.776   8.812 -29.863  1.00  0.00    -0.084 Cl
HETATM   27  C11 UNL     1      46.821  10.973 -28.451  1.00  0.00     0.031 A
ENDBRANCH  19  20
ENDBRANCH  18  19
ENDBRANCH   3  18
BRANCH   1  28
HETATM   28  O1  UNL     1      51.184  12.707 -25.227  1.00  0.00    -0.395 OA
ATOM     29  H1  UNL     1      51.018  12.975 -26.122  1.00  0.00     0.210 HD
ENDBRANCH   1  28
TORSDOF 5
ENDMDL