MODEL 1
REMARK VINA RESULT: -9.295742484      0.000      0.000
REMARK  5 active torsions:
REMARK  status: ('A' for Active; 'I' for Inactive)
REMARK    1  A    between atoms: O1_1  and  C1_3
REMARK    2  A    between atoms: C1_3  and  C2_4
REMARK    3  A    between atoms: C1_3  and  C16_24
REMARK    4  A    between atoms: C4_6  and  N1_7
REMARK    5  A    between atoms: C8_11  and  N2_12
ROOT
HETATM    1  C2  UNL     1      49.752  10.806 -23.596  1.00  0.00     0.047 A
HETATM    2  C3  UNL     1      49.500  12.002 -24.290  1.00  0.00     0.076 A
HETATM    3  C4  UNL     1      48.297  12.636 -24.204  1.00  0.00     0.105 A
HETATM    4  N3  UNL     1      47.350  12.051 -23.411  1.00  0.00    -0.339 N
ATOM      5  H3  UNL     1      46.438  12.498 -23.322  1.00  0.00     0.168 HD
HETATM    6  C15 UNL     1      47.578  10.925 -22.754  1.00  0.00     0.182 A
HETATM    7  N4  UNL     1      48.774  10.305 -22.848  1.00  0.00    -0.353 N
ATOM      8  H4  UNL     1      48.931   9.438 -22.335  1.00  0.00     0.166 HD
ENDROOT
BRANCH   3   9
HETATM    9  N1  UNL     1      47.931  13.816 -24.878  1.00  0.00    -0.365 N
HETATM   10  C5  UNL     1      46.958  13.777 -25.941  1.00  0.00     0.124 C
HETATM   11  C6  UNL     1      45.807  14.662 -25.430  1.00  0.00     0.022 C
HETATM   12  C7  UNL     1      46.326  16.071 -25.393  1.00  0.00     0.028 C
HETATM   13  C8  UNL     1      47.832  16.182 -25.403  1.00  0.00     0.097 C
HETATM   14  C14 UNL     1      48.499  15.099 -24.551  1.00  0.00     0.149 C
BRANCH  13  15
HETATM   15  N2  UNL     1      48.196  17.478 -24.934  1.00  0.00    -0.407 N
HETATM   16  C9  UNL     1      49.593  17.790 -25.091  1.00  0.00     0.117 C
HETATM   17  C10 UNL     1      49.933  18.473 -26.389  1.00  0.00     0.019 C
HETATM   18  C11 UNL     1      48.907  19.483 -26.834  1.00  0.00     0.003 C
HETATM   19  C12 UNL     1      48.082  19.831 -25.633  1.00  0.00     0.019 C
HETATM   20  C13 UNL     1      47.329  18.558 -25.232  1.00  0.00     0.117 C
ENDBRANCH  13  15
ENDBRANCH   3   9
BRANCH   1  21
HETATM   21  C1  UNL     1      51.062  10.127 -23.682  1.00  0.00     0.204 C
BRANCH  21  22
HETATM   22  O1  UNL     1      51.025   8.817 -23.180  1.00  0.00    -0.385 OA
ATOM     23  H1  UNL     1      51.724   8.274 -23.525  1.00  0.00     0.211 HD
ENDBRANCH  21  22
BRANCH  21  24
HETATM   24  C16 UNL     1      51.491  10.077 -25.094  1.00  0.00     0.015 A
HETATM   25  C17 UNL     1      50.961   9.181 -26.001  1.00  0.00     0.016 A
HETATM   26  C18 UNL     1      51.395   9.175 -27.303  1.00  0.00     0.043 A
HETATM   27  C19 UNL     1      52.376  10.069 -27.730  1.00  0.00     0.119 A
HETATM   28  F1  UNL     1      52.831  10.091 -29.020  1.00  0.00    -0.206 F
HETATM   29  C20 UNL     1      52.908  10.964 -26.831  1.00  0.00     0.085 A
HETATM   30  C21 UNL     1      52.459  10.956 -25.525  1.00  0.00     0.128 A
HETATM   31  F2  UNL     1      53.029  11.872 -24.697  1.00  0.00    -0.205 F
ENDBRANCH  21  24
ENDBRANCH   1  21
TORSDOF 5
ENDMDL