MODEL 2
REMARK VINA RESULT: -9.163573112      5.408      7.040
REMARK  4 active torsions:
REMARK  status: ('A' for Active; 'I' for Inactive)
REMARK    1  A    between atoms: C1_2  and  C2_4
REMARK    2  A    between atoms: C4_6  and  C5_7
REMARK    3  A    between atoms: C12_14  and  C13_15
REMARK    4  A    between atoms: C16_20  and  N2_21
ROOT
HETATM    1  C2  UNL     1      50.526   8.264 -28.529  1.00  0.00     0.099 A
HETATM    2  C3  UNL     1      51.046   7.780 -29.735  1.00  0.00     0.040 A
HETATM    3  C4  UNL     1      52.251   8.238 -30.229  1.00  0.00    -0.050 A
HETATM    4  C9  UNL     1      52.914   9.190 -29.483  1.00  0.00     0.039 A
HETATM    5  C10 UNL     1      52.381   9.663 -28.281  1.00  0.00     0.059 A
HETATM    6  C11 UNL     1      52.804  10.583 -27.346  1.00  0.00     0.063 A
HETATM    7  C12 UNL     1      51.886  10.665 -26.344  1.00  0.00     0.062 A
HETATM    8  N4  UNL     1      50.909   9.781 -26.688  1.00  0.00    -0.293 N
ATOM      9  H4  UNL     1      50.068   9.601 -26.139  1.00  0.00     0.187 HD
HETATM   10  N5  UNL     1      51.204   9.191 -27.833  1.00  0.00    -0.255 N
ENDROOT
BRANCH   7  11
HETATM   11  C13 UNL     1      51.871  11.480 -25.141  1.00  0.00     0.010 A
HETATM   12  C14 UNL     1      52.719  11.200 -24.094  1.00  0.00     0.101 A
HETATM   13  N1  UNL     1      52.702  11.965 -22.973  1.00  0.00    -0.372 N
HETATM   14  C15 UNL     1      51.885  13.006 -22.816  1.00  0.00     0.116 A
ATOM     15  H1  UNL     1      53.344  11.733 -22.215  1.00  0.00     0.164 HD
HETATM   16  C16 UNL     1      50.999  13.343 -23.842  1.00  0.00     0.046 A
HETATM   17  C21 UNL     1      51.025  12.556 -24.982  1.00  0.00     0.046 A
BRANCH  16  18
HETATM   18  N2  UNL     1      50.137  14.445 -23.702  1.00  0.00    -0.377 N
HETATM   19  C17 UNL     1      48.754  14.295 -23.318  1.00  0.00     0.150 C
HETATM   20  C18 UNL     1      47.929  14.779 -24.491  1.00  0.00     0.252 C
HETATM   21  N3  UNL     1      48.301  16.175 -24.685  1.00  0.00    -0.072 N
HETATM   22  C19 UNL     1      49.672  16.333 -25.053  1.00  0.00     0.252 C
ATOM     23  H32 UNL     1      47.686  16.627 -25.362  1.00  0.00     0.277 HD
ATOM     24  H31 UNL     1      48.076  16.732 -23.861  1.00  0.00     0.277 HD
HETATM   25  C20 UNL     1      50.596  15.780 -23.950  1.00  0.00     0.150 C
ENDBRANCH  16  18
ENDBRANCH   7  11
BRANCH   1  26
HETATM   26  C1  UNL     1      49.231   7.753 -28.025  1.00  0.00     0.405 C
HETATM   27  F1  UNL     1      48.220   7.912 -28.951  1.00  0.00    -0.207 F
HETATM   28  F2  UNL     1      49.381   6.439 -27.639  1.00  0.00    -0.207 F
ENDBRANCH   1  26
BRANCH   3  29
HETATM   29  C5  UNL     1      52.800   7.722 -31.510  1.00  0.00     0.019 C
HETATM   30  C6  UNL     1      51.797   6.766 -32.167  1.00  0.00     0.009 C
HETATM   31  C7  UNL     1      53.012   5.934 -32.589  1.00  0.00     0.001 C
HETATM   32  C8  UNL     1      53.727   6.533 -31.370  1.00  0.00     0.009 C
ENDBRANCH   3  29
TORSDOF 4
ENDMDL