MODEL 4
REMARK VINA RESULT: -8.632815953      6.877      9.516
REMARK  4 active torsions:
REMARK  status: ('A' for Active; 'I' for Inactive)
REMARK    1  A    between atoms: N2_5  and  C4_6
REMARK    2  A    between atoms: C7_9  and  O1_10
REMARK    3  A    between atoms: O1_10  and  C8_11
REMARK    4  A    between atoms: C16_23  and  C17_24
ROOT
HETATM    1  N1  UNL     1      49.074  15.282 -21.175  1.00  0.00    -0.191 NA
HETATM    2  C1  UNL     1      49.442  14.896 -22.200  1.00  0.00     0.103 C
HETATM    3  C2  UNL     1      49.879  14.401 -23.475  1.00  0.00     0.086 A
HETATM    4  C3  UNL     1      50.316  13.123 -23.747  1.00  0.00     0.141 A
HETATM    5  N2  UNL     1      50.623  13.091 -25.047  1.00  0.00    -0.266 N
HETATM    6  N3  UNL     1      50.391  14.284 -25.563  1.00  0.00    -0.296 N
ATOM      7  H3  UNL     1      50.544  14.526 -26.542  1.00  0.00     0.187 HD
HETATM    8  C16 UNL     1      49.929  15.137 -24.636  1.00  0.00     0.052 A
ENDROOT
BRANCH   8   9
HETATM    9  C17 UNL     1      49.553  16.565 -24.820  1.00  0.00     0.042 C
HETATM   10  C18 UNL     1      48.083  16.626 -25.261  1.00  0.00     0.038 C
HETATM   11  C19 UNL     1      47.717  18.093 -25.295  1.00  0.00     0.233 C
HETATM   12  N4  UNL     1      48.854  18.960 -25.123  1.00  0.00    -0.075 N
HETATM   13  C20 UNL     1      49.954  18.659 -25.992  1.00  0.00     0.233 C
ATOM     14  H42 UNL     1      48.577  19.938 -25.221  1.00  0.00     0.277 HD
ATOM     15  H41 UNL     1      49.157  18.964 -24.150  1.00  0.00     0.277 HD
HETATM   16  C21 UNL     1      50.338  17.194 -25.956  1.00  0.00     0.038 C
ENDBRANCH   8   9
BRANCH   5  17
HETATM   17  C4  UNL     1      51.115  11.980 -25.772  1.00  0.00     0.056 A
HETATM   18  C5  UNL     1      52.400  11.980 -26.261  1.00  0.00     0.034 A
HETATM   19  C6  UNL     1      52.895  10.921 -26.961  1.00  0.00     0.039 A
HETATM   20  C7  UNL     1      52.140   9.773 -27.228  1.00  0.00     0.069 A
HETATM   21  C14 UNL     1      50.856   9.781 -26.735  1.00  0.00     0.039 A
HETATM   22  C15 UNL     1      50.358  10.854 -26.027  1.00  0.00     0.034 A
BRANCH  20  23
HETATM   23  O1  UNL     1      52.719   8.752 -27.942  1.00  0.00    -0.346 OA
BRANCH  23  24
HETATM   24  C8  UNL     1      53.759   8.917 -28.837  1.00  0.00     0.129 C
HETATM   25  C9  UNL     1      53.214   9.454 -30.150  1.00  0.00     0.038 C
HETATM   26  C10 UNL     1      52.125   8.531 -30.631  1.00  0.00     0.081 C
HETATM   27  C11 UNL     1      52.727   7.190 -30.945  1.00  0.00     0.243 C
HETATM   28  F1  UNL     1      52.636   7.003 -32.319  1.00  0.00    -0.206 F
HETATM   29  F2  UNL     1      52.041   6.216 -30.245  1.00  0.00    -0.206 F
HETATM   30  C12 UNL     1      54.182   7.108 -30.540  1.00  0.00     0.081 C
HETATM   31  C13 UNL     1      54.342   7.538 -29.116  1.00  0.00     0.038 C
ENDBRANCH  23  24
ENDBRANCH  20  23
ENDBRANCH   5  17
TORSDOF 4
ENDMDL