MODEL 1
REMARK VINA RESULT: -9.004602114      0.000      0.000
REMARK  5 active torsions:
REMARK  status: ('A' for Active; 'I' for Inactive)
REMARK    1  A    between atoms: C6_7  and  O2_8
REMARK    2  A    between atoms: C7_11  and  O4_12
REMARK    3  A    between atoms: O4_12  and  C8_13
REMARK    4  A    between atoms: C11_16  and  O5_17
REMARK    5  A    between atoms: O5_17  and  C12_18
ROOT
HETATM    1  O1  UNL     1      49.902  12.987 -18.369  1.00  0.00    -0.298 OA
HETATM    2  C1  UNL     1      49.219  12.564 -19.281  1.00  0.00     0.127 C
HETATM    3  C2  UNL     1      48.541  11.256 -19.102  1.00  0.00     0.082 C
HETATM    4  C3  UNL     1      48.923  10.415 -20.301  1.00  0.00     0.042 C
HETATM    5  C4  UNL     1      48.503  11.171 -21.511  1.00  0.00    -0.073 C
HETATM    6  C5  UNL     1      47.642  10.853 -22.433  1.00  0.00     0.044 C
HETATM    7  C6  UNL     1      47.555  11.920 -23.448  1.00  0.00     0.188 C
HETATM    8  O3  UNL     1      46.248  12.097 -23.882  1.00  0.00    -0.321 OA
HETATM    9  C7  UNL     1      46.207  12.902 -25.021  1.00  0.00     0.270 C
HETATM   10  C15 UNL     1      46.649  14.332 -24.669  1.00  0.00     0.061 C
HETATM   11  C16 UNL     1      48.124  14.497 -24.870  1.00  0.00     0.005 C
HETATM   12  C17 UNL     1      48.937  14.011 -23.715  1.00  0.00     0.011 C
HETATM   13  C18 UNL     1      48.121  13.130 -22.781  1.00  0.00     0.061 C
HETATM   14  C19 UNL     1      49.095  12.483 -21.781  1.00  0.00     0.031 C
HETATM   15  C20 UNL     1      49.062  13.315 -20.526  1.00  0.00     0.087 C
ENDROOT
BRANCH   9  16
HETATM   16  O4  UNL     1      46.951  12.441 -26.067  1.00  0.00    -0.320 OA
BRANCH  16  17
HETATM   17  C8  UNL     1      46.624  12.281 -27.385  1.00  0.00     0.072 A
HETATM   18  C9  UNL     1      46.192  13.341 -28.140  1.00  0.00     0.039 A
HETATM   19  C10 UNL     1      45.863  13.162 -29.482  1.00  0.00     0.039 A
HETATM   20  C11 UNL     1      45.969  11.903 -30.075  1.00  0.00     0.075 A
HETATM   21  C13 UNL     1      46.401  10.854 -29.309  1.00  0.00     0.039 A
HETATM   22  C14 UNL     1      46.718  11.042 -28.005  1.00  0.00     0.039 A
BRANCH  20  23
HETATM   23  O5  UNL     1      45.639  11.760 -31.392  1.00  0.00    -0.290 OA
BRANCH  23  24
HETATM   24  C12 UNL     1      45.824  12.681 -32.400  1.00  0.00     0.505 C
HETATM   25  F1  UNL     1      46.930  12.346 -33.203  1.00  0.00    -0.184 F
HETATM   26  F2  UNL     1      44.713  12.604 -33.238  1.00  0.00    -0.184 F
ENDBRANCH  23  24
ENDBRANCH  20  23
ENDBRANCH  16  17
ENDBRANCH   9  16
BRANCH   7  27
HETATM   27  O2  UNL     1      48.428  11.550 -24.474  1.00  0.00    -0.362 OA
ATOM     28  H2  UNL     1      48.016  11.830 -25.283  1.00  0.00     0.213 HD
ENDBRANCH   7  27
TORSDOF 5
ENDMDL