MODEL 2
REMARK VINA RESULT: -8.606552423      1.110      1.242
REMARK  5 active torsions:
REMARK  status: ('A' for Active; 'I' for Inactive)
REMARK    1  A    between atoms: C3_6  and  O1_7
REMARK    2  A    between atoms: O1_7  and  C4_8
REMARK    3  A    between atoms: C8_13  and  C9_14
REMARK    4  A    between atoms: C12_17  and  C13_18
REMARK    5  A    between atoms: C13_18  and  N3_19
ROOT
HETATM    1  N1  UNL     1      49.993   9.057 -19.760  1.00  0.00    -0.190 NA
HETATM    2  C1  UNL     1      49.965  10.061 -20.335  1.00  0.00     0.118 C
HETATM    3  C2  UNL     1      49.944  11.297 -21.067  1.00  0.00     0.127 A
HETATM    4  N2  UNL     1      50.506  11.465 -22.245  1.00  0.00    -0.327 N
ATOM      5  H2  UNL     1      50.995  10.669 -22.654  1.00  0.00     0.168 HD
HETATM    6  C3  UNL     1      50.484  12.602 -22.940  1.00  0.00     0.151 A
HETATM    7  C8  UNL     1      49.844  13.767 -22.486  1.00  0.00     0.011 A
HETATM    8  C16 UNL     1      49.264  13.629 -21.243  1.00  0.00     0.027 A
HETATM    9  C17 UNL     1      48.791  14.686 -20.527  1.00  0.00     0.131 A
HETATM   10  F1  UNL     1      49.024  15.968 -20.964  1.00  0.00    -0.205 F
HETATM   11  C18 UNL     1      48.345  14.569 -19.226  1.00  0.00     0.085 A
HETATM   12  C19 UNL     1      48.368  13.371 -18.574  1.00  0.00     0.120 A
HETATM   13  F2  UNL     1      47.914  13.287 -17.299  1.00  0.00    -0.206 F
HETATM   14  C20 UNL     1      48.855  12.268 -19.233  1.00  0.00     0.057 A
HETATM   15  C21 UNL     1      49.294  12.415 -20.525  1.00  0.00     0.018 A
ENDROOT
BRANCH   6  16
HETATM   16  O1  UNL     1      51.115  12.641 -24.152  1.00  0.00    -0.328 OA
BRANCH  16  17
HETATM   17  C4  UNL     1      51.586  11.490 -24.795  1.00  0.00     0.156 C
HETATM   18  C5  UNL     1      50.644  10.962 -25.850  1.00  0.00     0.061 C
HETATM   19  C6  UNL     1      51.640  10.300 -26.812  1.00  0.00     0.170 C
HETATM   20  O2  UNL     1      52.626  11.272 -26.872  1.00  0.00    -0.389 OA
HETATM   21  C7  UNL     1      52.840  11.745 -25.601  1.00  0.00     0.200 C
ENDBRANCH  16  17
ENDBRANCH   6  16
BRANCH   7  22
HETATM   22  C9  UNL     1      49.905  14.975 -23.259  1.00  0.00     0.024 C
HETATM   23  C10 UNL     1      50.739  14.815 -24.575  1.00  0.00     0.010 C
HETATM   24  C11 UNL     1      50.417  16.017 -25.496  1.00  0.00     0.007 C
HETATM   25  C12 UNL     1      49.349  15.451 -26.431  1.00  0.00     0.011 C
HETATM   26  C14 UNL     1      48.648  14.472 -25.533  1.00  0.00     0.007 C
HETATM   27  C15 UNL     1      48.529  15.012 -24.124  1.00  0.00     0.010 C
BRANCH  25  28
HETATM   28  C13 UNL     1      48.421  16.572 -26.793  1.00  0.00     0.234 C
BRANCH  28  29
HETATM   29  N3  UNL     1      47.333  16.136 -27.648  1.00  0.00    -0.079 N
ATOM     30  H33 UNL     1      47.464  15.169 -27.945  1.00  0.00     0.274 HD
ATOM     31  H32 UNL     1      46.469  16.027 -27.116  1.00  0.00     0.274 HD
ATOM     32  H31 UNL     1      47.196  16.751 -28.450  1.00  0.00     0.274 HD
ENDBRANCH  28  29
ENDBRANCH  25  28
ENDBRANCH   7  22
TORSDOF 5
ENDMDL