MODEL 4
REMARK VINA RESULT: -8.244477466      3.508      7.130
REMARK  5 active torsions:
REMARK  status: ('A' for Active; 'I' for Inactive)
REMARK       I    between atoms: C1_2  and  N1_3
REMARK    1  A    between atoms: C1_2  and  C6_9
REMARK    2  A    between atoms: N1_3  and  C2_5
REMARK    3  A    between atoms: C8_13  and  N3_14
REMARK    4  A    between atoms: C13_21  and  C14_22
REMARK    5  A    between atoms: C17_26  and  C18_27
ROOT
HETATM    1  C6  UNL     1      46.920  13.383 -26.413  1.00  0.00     0.076 A
HETATM    2  C7  UNL     1      46.322  14.577 -26.862  1.00  0.00     0.125 A
HETATM    3  N2  UNL     1      46.790  15.728 -26.458  1.00  0.00    -0.201 N
ATOM      4  H2  UNL     1      46.339  16.577 -26.797  1.00  0.00     0.183 HD
HETATM    5  C8  UNL     1      47.833  15.853 -25.622  1.00  0.00     0.680 A
HETATM    6  N4  UNL     1      48.389  14.714 -25.203  1.00  0.00    -0.189 N
ATOM      7  H4  UNL     1      49.181  14.790 -24.566  1.00  0.00     0.184 HD
HETATM    8  C13 UNL     1      48.000  13.489 -25.545  1.00  0.00     0.084 A
ENDROOT
BRANCH   8   9
HETATM    9  C14 UNL     1      48.589  12.248 -24.987  1.00  0.00     0.048 A
HETATM   10  S1  UNL     1      49.870  11.323 -25.649  1.00  0.00    -0.099 SA
HETATM   11  C15 UNL     1      49.997  10.108 -24.486  1.00  0.00     0.051 A
HETATM   12  C16 UNL     1      49.027  10.446 -23.592  1.00  0.00     0.025 A
HETATM   13  C17 UNL     1      48.289  11.557 -23.840  1.00  0.00     0.067 A
BRANCH  13  14
HETATM   14  C18 UNL     1      47.205  11.978 -22.848  1.00  0.00     0.418 C
HETATM   15  F1  UNL     1      47.072  11.013 -21.855  1.00  0.00    -0.166 F
HETATM   16  F2  UNL     1      45.976  12.077 -23.438  1.00  0.00    -0.166 F
HETATM   17  F3  UNL     1      47.549  13.145 -22.250  1.00  0.00    -0.166 F
ENDBRANCH  13  14
ENDBRANCH   8   9
BRANCH   1  18
HETATM   18  C1  UNL     1      46.407  12.166 -26.977  1.00  0.00     0.255 C
HETATM   19  O1  UNL     1      45.464  11.548 -26.418  1.00  0.00    -0.268 OA
HETATM   20  N1  UNL     1      46.900  11.589 -28.181  1.00  0.00    -0.352 N
ATOM     21  H1  UNL     1      47.668  12.060 -28.661  1.00  0.00     0.163 HD
BRANCH  20  22
HETATM   22  C2  UNL     1      46.380  10.383 -28.758  1.00  0.00     0.084 C
HETATM   23  C3  UNL     1      46.449  10.339 -30.299  1.00  0.00     0.025 C
HETATM   24  C4  UNL     1      47.786   9.641 -30.149  1.00  0.00     0.004 C
HETATM   25  C5  UNL     1      47.381   9.269 -28.737  1.00  0.00     0.025 C
ENDBRANCH  20  22
ENDBRANCH   1  18
BRANCH   5  26
HETATM   26  N3  UNL     1      48.279  17.140 -25.237  1.00  0.00    -0.218 N
HETATM   27  C9  UNL     1      49.497  17.864 -25.535  1.00  0.00     0.141 C
HETATM   28  C10 UNL     1      49.059  19.326 -25.605  1.00  0.00     0.022 C
HETATM   29  C11 UNL     1      47.576  19.312 -25.280  1.00  0.00     0.022 C
HETATM   30  C12 UNL     1      47.511  18.063 -24.400  1.00  0.00     0.141 C
ENDBRANCH   5  26
TORSDOF 5
ENDMDL