MODEL 5
REMARK VINA RESULT: -9.286152805      3.250      5.294
REMARK  5 active torsions:
REMARK  status: ('A' for Active; 'I' for Inactive)
REMARK    1  A    between atoms: C5_7  and  C6_8
REMARK    2  A    between atoms: C6_8  and  C7_9
REMARK    3  A    between atoms: C7_9  and  N1_10
REMARK    4  A    between atoms: C10_15  and  C11_16
REMARK    5  A    between atoms: C20_28  and  O1_30
ROOT
HETATM    1  C1  UNL     1      46.075  15.241 -26.872  1.00  0.00     0.016 C
HETATM    2  C2  UNL     1      46.465  16.148 -26.177  1.00  0.00    -0.067 C
HETATM    3  C3  UNL     1      46.940  17.248 -25.309  1.00  0.00     0.230 C
HETATM    4  F1  UNL     1      46.007  18.261 -25.445  1.00  0.00    -0.222 F
HETATM    5  C4  UNL     1      46.972  16.811 -23.897  1.00  0.00     0.233 C
HETATM    6  F2  UNL     1      46.244  17.705 -23.096  1.00  0.00    -0.244 F
HETATM    7  C5  UNL     1      48.307  16.607 -23.293  1.00  0.00     0.048 C
HETATM    8  C18 UNL     1      49.442  16.491 -24.202  1.00  0.00    -0.020 C
HETATM    9  C19 UNL     1      49.415  17.025 -25.389  1.00  0.00     0.011 C
HETATM   10  C20 UNL     1      48.235  17.763 -25.852  1.00  0.00     0.122 C
HETATM   11  C21 UNL     1      48.464  19.234 -25.482  1.00  0.00     0.055 C
ENDROOT
BRANCH  10  12
HETATM   12  O1  UNL     1      48.172  17.727 -27.243  1.00  0.00    -0.382 OA
ATOM     13  H1  UNL     1      47.803  16.892 -27.505  1.00  0.00     0.211 HD
ENDBRANCH  10  12
BRANCH   7  14
HETATM   14  C6  UNL     1      48.338  15.389 -22.358  1.00  0.00     0.032 C
BRANCH  14  15
HETATM   15  C7  UNL     1      47.779  14.184 -23.106  1.00  0.00     0.128 C
BRANCH  15  16
HETATM   16  N1  UNL     1      48.844  13.341 -23.602  1.00  0.00    -0.363 N
HETATM   17  C8  UNL     1      48.623  12.535 -24.668  1.00  0.00     0.122 A
HETATM   18  C9  UNL     1      49.630  11.739 -25.135  1.00  0.00     0.077 A
HETATM   19  N2  UNL     1      49.761  10.848 -26.135  1.00  0.00    -0.343 N
HETATM   20  C14 UNL     1      50.922  11.791 -24.453  1.00  0.00     0.084 A
HETATM   21  C10 UNL     1      51.023  10.357 -26.115  1.00  0.00     0.085 A
ATOM     22  H2  UNL     1      49.032  10.587 -26.797  1.00  0.00     0.167 HD
HETATM   23  N3  UNL     1      51.708  10.929 -25.104  1.00  0.00    -0.342 N
ATOM     24  H3  UNL     1      52.682  10.733 -24.871  1.00  0.00     0.167 HD
HETATM   25  C15 UNL     1      51.120  12.628 -23.359  1.00  0.00     0.089 A
HETATM   26  C16 UNL     1      52.387  12.683 -22.686  1.00  0.00     0.103 C
HETATM   27  C17 UNL     1      50.033  13.393 -22.968  1.00  0.00     0.115 A
HETATM   28  N4  UNL     1      53.402  12.721 -22.127  1.00  0.00    -0.191 NA
BRANCH  21  29
HETATM   29  C11 UNL     1      51.602   9.347 -27.043  1.00  0.00     0.045 C
HETATM   30  C12 UNL     1      52.648   9.961 -27.935  1.00  0.00     0.017 C
HETATM   31  C13 UNL     1      50.462   8.748 -27.850  1.00  0.00     0.017 C
ENDBRANCH  21  29
ENDBRANCH  15  16
ENDBRANCH  14  15
ENDBRANCH   7  14
TORSDOF 5
ENDMDL