MODEL 3
REMARK VINA RESULT: -8.646217498      0.877      1.238
REMARK  10 active torsions:
REMARK  status: ('A' for Active; 'I' for Inactive)
REMARK    1  A    between atoms: C2_2  and  C3_3
REMARK    2  A    between atoms: C3_3  and  C4_4
REMARK    3  A    between atoms: C4_4  and  C5_5
REMARK    4  A    between atoms: C5_5  and  C6_6
REMARK    5  A    between atoms: C6_6  and  C7_7
REMARK    6  A    between atoms: C7_7  and  C8_8
REMARK    7  A    between atoms: C8_8  and  O2_10
REMARK    8  A    between atoms: O2_10  and  C9_11
REMARK    9  A    between atoms: C19_21  and  O3_22
REMARK   10  A    between atoms: O3_22  and  C20_23
ROOT
HETATM    1  C9  UNL     1       4.279   7.914  16.165  1.00  0.00     0.137 C
HETATM    2  C10 UNL     1       4.855   7.673  14.750  1.00  0.00     0.037 C
HETATM    3  C11 UNL     1       6.320   7.609  14.882  1.00  0.00    -0.012 C
HETATM    4  C12 UNL     1       6.875   6.293  14.317  1.00  0.00     0.010 C
HETATM    5  C13 UNL     1       6.572   7.697  16.393  1.00  0.00    -0.003 C
HETATM    6  C14 UNL     1       7.903   8.273  16.553  1.00  0.00     0.006 C
HETATM    7  C15 UNL     1       8.382   8.481  17.937  1.00  0.00     0.011 C
HETATM    8  C16 UNL     1       7.749   9.524  18.744  1.00  0.00    -0.031 C
HETATM    9  C17 UNL     1       8.118  10.878  18.241  1.00  0.00     0.013 C
HETATM   10  C18 UNL     1       7.206  11.393  17.201  1.00  0.00     0.034 C
HETATM   11  C19 UNL     1       5.853  10.784  17.006  1.00  0.00     0.141 C
HETATM   12  C22 UNL     1       5.488   9.552  17.784  1.00  0.00    -0.002 C
HETATM   13  C23 UNL     1       4.029   9.749  18.288  1.00  0.00     0.019 C
HETATM   14  C24 UNL     1       5.390   8.279  17.037  1.00  0.00     0.031 C
HETATM   15  C25 UNL     1       6.282   9.551  19.040  1.00  0.00    -0.019 C
HETATM   16  C26 UNL     1       5.982  10.907  19.730  1.00  0.00     0.018 C
HETATM   17  C27 UNL     1       6.485   8.619  20.097  1.00  0.00    -0.038 C
HETATM   18  C28 UNL     1       6.417   7.148  20.091  1.00  0.00     0.015 C
HETATM   19  C29 UNL     1       5.905   8.951  21.504  1.00  0.00     0.015 C
HETATM   20  C30 UNL     1       7.931   9.180  20.176  1.00  0.00     0.020 C
ENDROOT
BRANCH   1  21
HETATM   21  O2  UNL     1       3.148   8.652  15.979  1.00  0.00    -0.316 OA
BRANCH  21  22
HETATM   22  C8  UNL     1       1.861   8.276  16.314  1.00  0.00     0.259 C
HETATM   23  O1  UNL     1       1.053   9.222  16.489  1.00  0.00    -0.265 OA
BRANCH  22  24
HETATM   24  C7  UNL     1       1.526   6.841  16.440  1.00  0.00     0.111 C
BRANCH  24  25
HETATM   25  C6  UNL     1       0.265   6.526  17.140  1.00  0.00     0.010 C
BRANCH  25  26
HETATM   26  C5  UNL     1       0.369   5.839  18.455  1.00  0.00     0.000 C
BRANCH  26  27
HETATM   27  C4  UNL     1       0.785   4.368  18.289  1.00  0.00     0.000 C
BRANCH  27  28
HETATM   28  C3  UNL     1       1.778   4.099  19.400  1.00  0.00    -0.000 C
BRANCH  28  29
HETATM   29  C2  UNL     1       2.902   5.108  19.449  1.00  0.00    -0.005 C
HETATM   30  C1  UNL     1       3.933   4.899  18.388  1.00  0.00     0.005 C
ENDBRANCH  28  29
ENDBRANCH  27  28
ENDBRANCH  26  27
ENDBRANCH  25  26
ENDBRANCH  24  25
ENDBRANCH  22  24
ENDBRANCH  21  22
ENDBRANCH   1  21
BRANCH  11  31
HETATM   31  O3  UNL     1       5.702  10.703  15.604  1.00  0.00    -0.316 OA
BRANCH  31  32
HETATM   32  C20 UNL     1       5.141  11.700  14.878  1.00  0.00     0.255 C
HETATM   33  C21 UNL     1       3.784  12.267  15.212  1.00  0.00     0.126 C
HETATM   34  O4  UNL     1       5.708  12.222  13.879  1.00  0.00    -0.266 OA
ENDBRANCH  31  32
ENDBRANCH  11  31
TORSDOF 10
ENDMDL