MODEL 4
REMARK VINA RESULT: -9.052480753      2.167      4.593
REMARK  10 active torsions:
REMARK  status: ('A' for Active; 'I' for Inactive)
REMARK    1  A    between atoms: C2_2  and  C3_3
REMARK    2  A    between atoms: C13_13  and  O1_14
REMARK    3  A    between atoms: O1_14  and  C14_15
REMARK    4  A    between atoms: C14_15  and  C15_17
REMARK    5  A    between atoms: C15_17  and  C16_18
REMARK    6  A    between atoms: C18_20  and  C19_21
REMARK    7  A    between atoms: C19_21  and  O3_22
REMARK    8  A    between atoms: O3_22  and  C20_23
REMARK    9  A    between atoms: C20_23  and  C21_27
REMARK   10  A    between atoms: C21_27  and  C22_28
ROOT
HETATM    1  C3  UNL     1       1.047   6.115  18.227  1.00  0.00    -0.026 C
HETATM    2  C4  UNL     1       0.712   4.649  17.928  1.00  0.00     0.019 C
HETATM    3  C5  UNL     1       1.788   6.277  19.511  1.00  0.00     0.014 C
HETATM    4  C6  UNL     1       3.255   6.081  19.437  1.00  0.00     0.011 C
HETATM    5  C7  UNL     1       3.844   5.918  18.099  1.00  0.00    -0.035 C
HETATM    6  C8  UNL     1       4.351   4.518  17.826  1.00  0.00     0.016 C
HETATM    7  C9  UNL     1       5.019   6.896  17.913  1.00  0.00     0.021 C
HETATM    8  C10 UNL     1       4.045   7.800  17.191  1.00  0.00    -0.021 C
HETATM    9  C11 UNL     1       3.586   8.943  17.990  1.00  0.00     0.014 C
HETATM   10  C12 UNL     1       3.981  10.230  17.245  1.00  0.00     0.034 C
HETATM   11  C13 UNL     1       4.953   9.765  16.179  1.00  0.00     0.141 C
HETATM   12  C25 UNL     1       4.579   8.360  15.869  1.00  0.00     0.053 C
HETATM   13  C26 UNL     1       3.528   8.248  14.835  1.00  0.00    -0.082 C
HETATM   14  C27 UNL     1       2.905   9.226  14.224  1.00  0.00     0.015 C
HETATM   15  C28 UNL     1       3.142   6.838  14.467  1.00  0.00     0.034 C
HETATM   16  C29 UNL     1       3.605   5.986  15.648  1.00  0.00     0.015 C
HETATM   17  C30 UNL     1       3.171   6.615  16.972  1.00  0.00    -0.023 C
HETATM   18  C31 UNL     1       1.712   6.763  17.046  1.00  0.00     0.024 C
ENDROOT
BRANCH  11  19
HETATM   19  O1  UNL     1       6.286   9.865  16.700  1.00  0.00    -0.315 OA
BRANCH  19  20
HETATM   20  C14 UNL     1       6.878  11.058  17.001  1.00  0.00     0.263 C
HETATM   21  O2  UNL     1       6.497  12.092  16.374  1.00  0.00    -0.265 OA
BRANCH  20  22
HETATM   22  C15 UNL     1       7.944  11.224  18.024  1.00  0.00     0.144 C
BRANCH  22  23
HETATM   23  C16 UNL     1       8.190   9.967  18.770  1.00  0.00    -0.076 C
HETATM   24  C17 UNL     1       8.828   8.819  18.082  1.00  0.00     0.043 C
HETATM   25  C18 UNL     1       7.852   9.847  20.036  1.00  0.00     0.002 C
BRANCH  25  26
HETATM   26  C19 UNL     1       8.096   8.609  20.764  1.00  0.00     0.204 C
BRANCH  26  27
HETATM   27  O3  UNL     1       7.775   8.553  22.105  1.00  0.00    -0.336 OA
BRANCH  27  28
HETATM   28  C20 UNL     1       7.169   7.533  22.804  1.00  0.00     0.115 C
HETATM   29  N1  UNL     1       7.646   7.368  24.004  1.00  0.00    -0.383 N
ATOM     30  H12 UNL     1       8.398   7.957  24.362  1.00  0.00     0.157 HD
ATOM     31  H11 UNL     1       7.198   6.612  24.522  1.00  0.00     0.157 HD
BRANCH  28  32
HETATM   32  C21 UNL     1       6.089   6.687  22.289  1.00  0.00     0.116 C
BRANCH  32  33
HETATM   33  C22 UNL     1       4.741   7.252  22.343  1.00  0.00    -0.086 C
HETATM   34  C23 UNL     1       3.787   6.671  23.045  1.00  0.00     0.014 C
HETATM   35  C24 UNL     1       4.434   8.498  21.595  1.00  0.00     0.043 C
ENDBRANCH  32  33
ENDBRANCH  28  32
ENDBRANCH  27  28
ENDBRANCH  26  27
ENDBRANCH  25  26
ENDBRANCH  22  23
ENDBRANCH  20  22
ENDBRANCH  19  20
ENDBRANCH  11  19
BRANCH   1  36
HETATM   36  C2  UNL     1      -0.284   6.794  18.399  1.00  0.00    -0.028 C
HETATM   37  C1  UNL     1      -0.485   7.937  17.751  1.00  0.00     0.007 C
ENDBRANCH   1  36
TORSDOF 10
ENDMDL