MODEL 1
REMARK VINA RESULT: -8.835347435      0.000      0.000
REMARK  8 active torsions:
REMARK  status: ('A' for Active; 'I' for Inactive)
REMARK    1  A    between atoms: C2_2  and  C3_3
REMARK    2  A    between atoms: C3_3  and  C4_4
REMARK    3  A    between atoms: C11_11  and  C12_12
REMARK    4  A    between atoms: C12_12  and  O1_14
REMARK    5  A    between atoms: C12_12  and  C14_16
REMARK    6  A    between atoms: C14_16  and  O2_17
REMARK    7  A    between atoms: O2_17  and  S1_18
REMARK    8  A    between atoms: S1_18  and  O5_21
ROOT
HETATM    1  C4  UNL     1       6.962   7.950  20.508  1.00  0.00    -0.006 C
HETATM    2  C5  UNL     1       6.281   6.888  19.708  1.00  0.00     0.006 C
HETATM    3  C6  UNL     1       5.840   7.316  18.312  1.00  0.00     0.011 C
HETATM    4  C7  UNL     1       6.569   8.338  17.598  1.00  0.00    -0.029 C
HETATM    5  C8  UNL     1       6.140   8.112  16.220  1.00  0.00     0.037 C
HETATM    6  C9  UNL     1       4.809   8.847  15.997  1.00  0.00    -0.022 C
HETATM    7  C10 UNL     1       4.398  10.170  16.268  1.00  0.00    -0.072 C
HETATM    8  C11 UNL     1       4.407  11.097  15.052  1.00  0.00     0.051 C
HETATM    9  C16 UNL     1       5.289  12.244  15.314  1.00  0.00     0.013 C
HETATM   10  C17 UNL     1       5.487  12.300  16.819  1.00  0.00     0.010 C
HETATM   11  C18 UNL     1       4.830  11.112  17.427  1.00  0.00     0.023 C
HETATM   12  C19 UNL     1       5.495  10.263  18.380  1.00  0.00    -0.032 C
HETATM   13  C20 UNL     1       4.289   9.626  18.895  1.00  0.00     0.016 C
HETATM   14  C21 UNL     1       6.339  10.233  19.548  1.00  0.00     0.020 C
HETATM   15  C22 UNL     1       7.385   9.160  19.653  1.00  0.00    -0.035 C
HETATM   16  C23 UNL     1       8.578   9.704  20.398  1.00  0.00     0.016 C
HETATM   17  C24 UNL     1       7.784   8.392  18.366  1.00  0.00     0.003 C
HETATM   18  C25 UNL     1       8.767   9.182  17.598  1.00  0.00     0.006 C
HETATM   19  C26 UNL     1       7.932  10.399  17.639  1.00  0.00     0.006 C
HETATM   20  C27 UNL     1       6.536   9.790  17.472  1.00  0.00     0.004 C
ENDROOT
BRANCH   8  21
HETATM   21  C12 UNL     1       3.042  11.476  14.567  1.00  0.00     0.084 C
HETATM   22  C13 UNL     1       2.598  10.701  13.355  1.00  0.00     0.049 C
BRANCH  21  23
HETATM   23  O1  UNL     1       3.124  12.835  14.177  1.00  0.00    -0.387 OA
ATOM     24  H1  UNL     1       2.685  12.898  13.337  1.00  0.00     0.210 HD
ENDBRANCH  21  23
BRANCH  21  25
HETATM   25  C14 UNL     1       2.018  11.384  15.623  1.00  0.00     0.230 C
BRANCH  25  26
HETATM   26  O2  UNL     1       1.076  10.410  15.216  1.00  0.00    -0.251 OA
BRANCH  26  27
HETATM   27  S1  UNL     1       0.815   9.278  16.406  1.00  0.00     0.401 S
HETATM   28  O3  UNL     1       1.187   9.869  17.737  1.00  0.00    -0.169 OA
HETATM   29  O4  UNL     1      -0.672   8.992  16.458  1.00  0.00    -0.169 OA
BRANCH  27  30
HETATM   30  O5  UNL     1       1.589   7.830  16.121  1.00  0.00    -0.259 OA
HETATM   31  C15 UNL     1       1.697   7.112  17.326  1.00  0.00     0.228 C
ENDBRANCH  27  30
ENDBRANCH  26  27
ENDBRANCH  25  26
ENDBRANCH  21  25
ENDBRANCH   8  21
BRANCH   1  32
HETATM   32  C3  UNL     1       6.442   8.268  21.845  1.00  0.00     0.005 C
BRANCH  32  33
HETATM   33  C2  UNL     1       6.551   7.035  22.730  1.00  0.00    -0.004 C
HETATM   34  C1  UNL     1       7.553   7.339  23.800  1.00  0.00     0.005 C
ENDBRANCH  32  33
ENDBRANCH   1  32
TORSDOF 8
ENDMDL