MODEL 1
REMARK VINA RESULT: -8.996222865      0.000      0.000
REMARK  9 active torsions:
REMARK  status: ('A' for Active; 'I' for Inactive)
REMARK    1  A    between atoms: C2_2  and  C3_3
REMARK    2  A    between atoms: C3_3  and  O1_4
REMARK    3  A    between atoms: C10_12  and  C11_13
REMARK    4  A    between atoms: C15_18  and  C16_19
REMARK    5  A    between atoms: C16_19  and  C18_21
REMARK    6  A    between atoms: C18_21  and  C19_22
REMARK    7  A    between atoms: C19_22  and  C20_23
REMARK    8  A    between atoms: C20_23  and  C21_24
REMARK    9  A    between atoms: C21_24  and  C23_26
ROOT
HETATM    1  C11 UNL     1       2.704   6.142  20.248  1.00  0.00     0.133 C
HETATM    2  C12 UNL     1       3.806   6.301  21.154  1.00  0.00     0.059 C
HETATM    3  N1  UNL     1       4.668   6.424  21.890  1.00  0.00    -0.197 NA
ENDROOT
BRANCH   1   4
HETATM    4  C10 UNL     1       2.958   6.542  18.829  1.00  0.00    -0.028 C
HETATM    5  C9  UNL     1       2.799   8.014  18.649  1.00  0.00     0.021 C
HETATM    6  C8  UNL     1       2.843   8.516  17.263  1.00  0.00    -0.016 C
HETATM    7  C7  UNL     1       2.086   9.876  17.402  1.00  0.00     0.012 C
HETATM    8  C26 UNL     1       4.095   8.639  16.513  1.00  0.00     0.042 C
HETATM    9  C29 UNL     1       1.755   7.741  16.490  1.00  0.00     0.102 C
HETATM   10  C6  UNL     1       3.143  10.835  17.906  1.00  0.00     0.008 C
HETATM   11  C4  UNL     1       3.787  11.186  16.562  1.00  0.00     0.020 C
HETATM   12  C3  UNL     1       4.281   9.980  15.828  1.00  0.00     0.083 C
HETATM   13  C5  UNL     1       4.772  12.267  16.814  1.00  0.00     0.013 C
HETATM   14  C15 UNL     1       5.377   8.092  17.063  1.00  0.00     0.022 C
HETATM   15  C14 UNL     1       5.293   7.242  18.272  1.00  0.00     0.010 C
HETATM   16  C13 UNL     1       4.282   6.139  18.291  1.00  0.00     0.011 C
HETATM   17  C28 UNL     1       1.888   6.267  16.577  1.00  0.00     0.021 C
HETATM   18  C30 UNL     1       0.411   8.072  17.025  1.00  0.00     0.064 C
HETATM   19  C27 UNL     1       1.826   5.870  18.029  1.00  0.00     0.012 C
HETATM   20  N2  UNL     1      -0.642   8.311  17.435  1.00  0.00    -0.197 NA
BRANCH  12  21
HETATM   21  C2  UNL     1       3.660   9.959  14.438  1.00  0.00     0.001 C
HETATM   22  C1  UNL     1       2.849  10.891  14.022  1.00  0.00     0.010 C
ENDBRANCH  12  21
BRANCH  12  23
HETATM   23  O1  UNL     1       5.603  10.323  15.566  1.00  0.00    -0.385 OA
ATOM     24  H1  UNL     1       6.011  10.249  16.421  1.00  0.00     0.211 HD
ENDBRANCH  12  23
BRANCH  14  25
HETATM   25  C16 UNL     1       6.316   7.501  16.054  1.00  0.00    -0.083 C
HETATM   26  C17 UNL     1       5.716   6.506  15.089  1.00  0.00     0.043 C
BRANCH  25  27
HETATM   27  C18 UNL     1       7.706   7.192  16.471  1.00  0.00    -0.020 C
BRANCH  27  28
HETATM   28  C19 UNL     1       8.643   8.223  16.898  1.00  0.00     0.054 C
BRANCH  28  29
HETATM   29  C20 UNL     1       8.567   8.636  18.318  1.00  0.00    -0.018 C
BRANCH  29  30
HETATM   30  C21 UNL     1       8.442  10.012  18.773  1.00  0.00    -0.059 C
HETATM   31  C22 UNL     1       8.118  11.073  17.751  1.00  0.00     0.046 C
BRANCH  30  32
HETATM   32  C23 UNL     1       7.676  10.317  20.009  1.00  0.00     0.151 A
HETATM   33  C24 UNL     1       6.304  10.848  19.969  1.00  0.00     0.063 A
HETATM   34  C25 UNL     1       5.896   9.559  20.646  1.00  0.00     0.171 A
HETATM   35  O2  UNL     1       7.194   9.110  20.570  1.00  0.00    -0.381 OA
ENDBRANCH  30  32
ENDBRANCH  29  30
ENDBRANCH  28  29
ENDBRANCH  27  28
ENDBRANCH  25  27
ENDBRANCH  14  25
ENDBRANCH   1   4
TORSDOF 9
ENDMDL