MODEL 3
REMARK VINA RESULT: -7.659515562      0.846      1.571
REMARK  9 active torsions:
REMARK  status: ('A' for Active; 'I' for Inactive)
REMARK    1  A    between atoms: C2_2  and  C4_4
REMARK    2  A    between atoms: C2_2  and  C5_8
REMARK    3  A    between atoms: C4_4  and  N1_5
REMARK    4  A    between atoms: C12_15  and  O3_16
REMARK    5  A    between atoms: O3_16  and  C13_17
REMARK    6  A    between atoms: C13_17  and  C14_18
REMARK    7  A    between atoms: C14_18  and  C15_19
REMARK    8  A    between atoms: C15_19  and  C16_20
REMARK    9  A    between atoms: C16_20  and  O4_21
ROOT
HETATM    1  C5  UNL     1       5.029  10.974  15.602  1.00  0.00    -0.005 C
HETATM    2  C6  UNL     1       4.699  11.771  16.851  1.00  0.00     0.006 C
HETATM    3  C7  UNL     1       4.165  10.828  17.917  1.00  0.00     0.014 C
HETATM    4  C8  UNL     1       5.166   9.724  18.194  1.00  0.00    -0.017 C
HETATM    5  C9  UNL     1       6.458  10.448  18.614  1.00  0.00     0.020 C
HETATM    6  C10 UNL     1       4.696   8.956  19.349  1.00  0.00    -0.066 C
HETATM    7  C11 UNL     1       4.047   7.788  19.233  1.00  0.00    -0.043 C
HETATM    8  C12 UNL     1       3.809   7.287  17.868  1.00  0.00     0.151 C
HETATM    9  C17 UNL     1       5.064   7.494  17.056  1.00  0.00     0.042 C
HETATM   10  C18 UNL     1       5.413   8.952  16.945  1.00  0.00     0.001 C
HETATM   11  C19 UNL     1       4.656   9.550  15.777  1.00  0.00     0.011 C
HETATM   12  C20 UNL     1       3.616   7.070  20.422  1.00  0.00     0.026 C
HETATM   13  C21 UNL     1       3.663   5.593  20.419  1.00  0.00     0.010 C
HETATM   14  C22 UNL     1       3.801   5.219  21.903  1.00  0.00     0.010 C
HETATM   15  C23 UNL     1       4.013   6.505  22.645  1.00  0.00    -0.040 C
HETATM   16  C24 UNL     1       2.752   7.054  23.262  1.00  0.00     0.015 C
HETATM   17  C25 UNL     1       4.996   6.282  23.797  1.00  0.00     0.015 C
HETATM   18  C26 UNL     1       4.585   7.377  21.578  1.00  0.00    -0.029 C
HETATM   19  C27 UNL     1       5.973   6.931  21.290  1.00  0.00     0.016 C
HETATM   20  C28 UNL     1       4.444   8.846  21.840  1.00  0.00     0.015 C
HETATM   21  C29 UNL     1       4.987   9.590  20.682  1.00  0.00     0.036 C
ENDROOT
BRANCH   1  22
HETATM   22  C2  UNL     1       4.523  11.646  14.368  1.00  0.00    -0.022 C
HETATM   23  C1  UNL     1       5.603  12.554  13.839  1.00  0.00     0.017 C
HETATM   24  C3  UNL     1       4.207  10.530  13.370  1.00  0.00     0.017 C
BRANCH  22  25
HETATM   25  C4  UNL     1       3.311  12.467  14.646  1.00  0.00     0.210 C
BRANCH  25  26
HETATM   26  N1  UNL     1       2.084  11.730  14.592  1.00  0.00    -0.155 N
HETATM   27  O1  UNL     1       1.465  11.658  13.517  1.00  0.00    -0.537 OA
HETATM   28  O2  UNL     1       1.528  11.080  15.668  1.00  0.00    -0.537 OA
ENDBRANCH  25  26
ENDBRANCH  22  25
ENDBRANCH   1  22
BRANCH   8  29
HETATM   29  O3  UNL     1       3.346   6.020  17.835  1.00  0.00    -0.381 OA
BRANCH  29  30
HETATM   30  C13 UNL     1       2.180   5.833  17.107  1.00  0.00     0.168 C
BRANCH  30  31
HETATM   31  C14 UNL     1       1.028   5.785  18.088  1.00  0.00     0.028 C
BRANCH  31  32
HETATM   32  C15 UNL     1       0.458   4.387  18.147  1.00  0.00     0.028 C
BRANCH  32  33
HETATM   33  C16 UNL     1       1.220   3.543  19.121  1.00  0.00     0.164 C
BRANCH  33  34
HETATM   34  O4  UNL     1       1.939   2.538  18.498  1.00  0.00    -0.401 OA
ATOM     35  H4  UNL     1       2.404   1.989  19.118  1.00  0.00     0.209 HD
ENDBRANCH  33  34
ENDBRANCH  32  33
ENDBRANCH  31  32
ENDBRANCH  30  31
ENDBRANCH  29  30
ENDBRANCH   8  29
TORSDOF 9
ENDMDL