MODEL 3
REMARK VINA RESULT: -9.195327590      1.637      2.373
REMARK  11 active torsions:
REMARK  status: ('A' for Active; 'I' for Inactive)
REMARK    1  A    between atoms: C2_2  and  O2_4
REMARK    2  A    between atoms: O2_4  and  C3_5
REMARK    3  A    between atoms: C3_5  and  C4_6
REMARK    4  A    between atoms: C3_5  and  C15_18
REMARK    5  A    between atoms: C4_6  and  C6_8
REMARK    6  A    between atoms: C6_8  and  C7_9
REMARK    7  A    between atoms: C7_9  and  C9_11
REMARK    8  A    between atoms: C9_11  and  C10_12
REMARK    9  A    between atoms: C11_13  and  C13_15
REMARK   10  A    between atoms: C15_18  and  C17_20
REMARK   11  A    between atoms: C26_29  and  O4_30
ROOT
HETATM    1  C15 UNL     1       4.247   6.862  17.705  1.00  0.00     0.020 C
HETATM    2  C16 UNL     1       5.645   6.305  17.949  1.00  0.00     0.013 C
ENDROOT
BRANCH   1   3
HETATM    3  C3  UNL     1       3.233   5.741  17.759  1.00  0.00     0.164 C
BRANCH   3   4
HETATM    4  O2  UNL     1       2.023   6.010  17.146  1.00  0.00    -0.311 OA
BRANCH   4   5
HETATM    5  C2  UNL     1       0.753   6.017  17.587  1.00  0.00     0.255 C
HETATM    6  C1  UNL     1       0.124   7.317  17.971  1.00  0.00     0.126 C
HETATM    7  O1  UNL     1       0.139   4.955  17.665  1.00  0.00    -0.266 OA
ENDBRANCH   4   5
ENDBRANCH   3   4
BRANCH   3   8
HETATM    8  C4  UNL     1       3.010   5.305  19.203  1.00  0.00    -0.054 C
HETATM    9  C5  UNL     1       2.817   3.910  19.572  1.00  0.00     0.046 C
BRANCH   8  10
HETATM   10  C6  UNL     1       2.994   6.218  20.140  1.00  0.00     0.007 C
BRANCH  10  11
HETATM   11  C7  UNL     1       3.745   6.465  21.337  1.00  0.00    -0.080 C
HETATM   12  C8  UNL     1       3.230   6.068  22.664  1.00  0.00     0.043 C
BRANCH  11  13
HETATM   13  C9  UNL     1       4.374   7.865  21.435  1.00  0.00     0.061 C
BRANCH  13  14
HETATM   14  C10 UNL     1       5.844   7.816  21.181  1.00  0.00    -0.012 C
HETATM   15  C11 UNL     1       6.520   8.887  20.808  1.00  0.00    -0.020 C
HETATM   16  C12 UNL     1       5.761  10.164  20.647  1.00  0.00     0.052 C
BRANCH  15  17
HETATM   17  C13 UNL     1       7.940   8.900  20.546  1.00  0.00     0.151 C
HETATM   18  C14 UNL     1       8.555   8.360  19.324  1.00  0.00     0.096 C
HETATM   19  O3  UNL     1       8.712   9.399  21.400  1.00  0.00    -0.293 OA
ENDBRANCH  15  17
ENDBRANCH  13  14
ENDBRANCH  11  13
ENDBRANCH  10  11
ENDBRANCH   8  10
ENDBRANCH   3   8
ENDBRANCH   1   3
BRANCH   1  20
HETATM   20  C17 UNL     1       4.170   7.768  16.555  1.00  0.00     0.004 C
HETATM   21  C18 UNL     1       4.907   7.594  15.327  1.00  0.00    -0.013 C
HETATM   22  C19 UNL     1       5.496   6.358  14.837  1.00  0.00     0.010 C
HETATM   23  C20 UNL     1       3.985   8.052  14.173  1.00  0.00     0.005 C
HETATM   24  C21 UNL     1       3.869   9.542  14.381  1.00  0.00     0.006 C
HETATM   25  C22 UNL     1       3.488   9.976  15.750  1.00  0.00     0.004 C
HETATM   26  C23 UNL     1       3.563  11.477  15.784  1.00  0.00    -0.017 C
HETATM   27  C29 UNL     1       4.166   9.275  16.893  1.00  0.00    -0.035 C
HETATM   28  C24 UNL     1       2.316  12.115  16.416  1.00  0.00     0.018 C
HETATM   29  C25 UNL     1       3.524  12.038  14.343  1.00  0.00     0.018 C
HETATM   30  C26 UNL     1       4.802  12.042  16.388  1.00  0.00     0.126 C
HETATM   31  C27 UNL     1       5.920  11.050  16.554  1.00  0.00     0.033 C
HETATM   32  C28 UNL     1       5.505   9.794  17.260  1.00  0.00     0.012 C
HETATM   33  C30 UNL     1       3.265   9.381  18.128  1.00  0.00     0.016 C
BRANCH  30  34
HETATM   34  O4  UNL     1       4.592  12.640  17.653  1.00  0.00    -0.395 OA
ATOM     35  H4  UNL     1       5.301  12.488  18.267  1.00  0.00     0.210 HD
ENDBRANCH  30  34
ENDBRANCH   1  20
TORSDOF 11
ENDMDL