MODEL 1
REMARK VINA RESULT: -8.856065732      0.000      0.000
REMARK  11 active torsions:
REMARK  status: ('A' for Active; 'I' for Inactive)
REMARK    1  A    between atoms: C2_2  and  C3_3
REMARK    2  A    between atoms: C3_3  and  C4_4
REMARK    3  A    between atoms: C3_3  and  C6_6
REMARK    4  A    between atoms: C6_6  and  N1_7
REMARK    5  A    between atoms: C6_6  and  O3_32
REMARK    6  A    between atoms: N1_7  and  C7_9
REMARK    7  A    between atoms: C11_13  and  C12_14
REMARK    8  A    between atoms: C12_14  and  O1_15
REMARK    9  A    between atoms: O1_15  and  C13_16
REMARK   10  A    between atoms: C13_16  and  C14_18
REMARK   11  A    between atoms: O3_32  and  C28_33
ROOT
HETATM    1  C7  UNL     1       2.762   7.487  18.248  1.00  0.00    -0.007 C
HETATM    2  C8  UNL     1       1.597   7.132  17.395  1.00  0.00     0.053 C
HETATM    3  C9  UNL     1       2.039   6.614  16.038  1.00  0.00     0.006 C
HETATM    4  C10 UNL     1       2.765   7.781  15.404  1.00  0.00     0.012 C
HETATM    5  C11 UNL     1       4.078   8.053  16.142  1.00  0.00    -0.009 C
HETATM    6  C20 UNL     1       4.741   9.131  15.388  1.00  0.00     0.013 C
HETATM    7  C21 UNL     1       4.040  10.478  15.375  1.00  0.00     0.005 C
HETATM    8  C22 UNL     1       4.490  11.412  16.462  1.00  0.00    -0.015 C
HETATM    9  C23 UNL     1       5.816  12.084  16.139  1.00  0.00     0.010 C
HETATM   10  C24 UNL     1       4.456  10.804  17.825  1.00  0.00    -0.014 C
HETATM   11  C25 UNL     1       4.130  11.911  18.809  1.00  0.00     0.010 C
HETATM   12  C26 UNL     1       3.335   9.799  17.814  1.00  0.00     0.016 C
HETATM   13  C27 UNL     1       3.767   8.398  17.572  1.00  0.00     0.042 C
ENDROOT
BRANCH   1  14
HETATM   14  N1  UNL     1       3.295   6.461  18.997  1.00  0.00    -0.347 N
ATOM     15  H1  UNL     1       4.007   5.908  18.520  1.00  0.00     0.167 HD
BRANCH  14  16
HETATM   16  C6  UNL     1       3.021   6.063  20.287  1.00  0.00     0.131 C
BRANCH  16  17
HETATM   17  C3  UNL     1       3.972   6.300  21.412  1.00  0.00     0.060 C
BRANCH  17  18
HETATM   18  C2  UNL     1       3.183   6.945  22.582  1.00  0.00     0.008 C
HETATM   19  C1  UNL     1       3.064   5.979  23.721  1.00  0.00     0.006 C
ENDBRANCH  17  18
BRANCH  17  20
HETATM   20  C4  UNL     1       5.068   7.260  21.021  1.00  0.00     0.008 C
HETATM   21  C5  UNL     1       4.724   8.710  21.269  1.00  0.00     0.006 C
ENDBRANCH  17  20
ENDBRANCH  16  17
BRANCH  16  22
HETATM   22  O3  UNL     1       2.449   4.748  20.371  1.00  0.00    -0.265 OA
BRANCH  22  23
HETATM   23  C28 UNL     1       2.233   3.907  19.319  1.00  0.00     0.261 C
HETATM   24  C29 UNL     1       0.884   3.638  18.739  1.00  0.00     0.126 C
HETATM   25  O4  UNL     1       3.243   3.338  18.829  1.00  0.00    -0.265 OA
ENDBRANCH  22  23
ENDBRANCH  16  22
ENDBRANCH  14  16
ENDBRANCH   1  14
BRANCH   5  26
HETATM   26  C12 UNL     1       4.925   6.810  16.169  1.00  0.00     0.189 C
BRANCH  26  27
HETATM   27  O1  UNL     1       5.753   6.530  17.206  1.00  0.00    -0.320 OA
BRANCH  27  28
HETATM   28  C13 UNL     1       6.977   6.882  17.644  1.00  0.00     0.263 C
HETATM   29  O2  UNL     1       7.960   6.142  17.409  1.00  0.00    -0.265 OA
BRANCH  28  30
HETATM   30  C14 UNL     1       7.270   8.126  18.412  1.00  0.00     0.085 C
HETATM   31  C15 UNL     1       8.339   7.837  19.413  1.00  0.00     0.014 C
HETATM   32  C16 UNL     1       8.388   8.984  20.399  1.00  0.00     0.001 C
HETATM   33  C17 UNL     1       7.893  10.247  19.741  1.00  0.00     0.000 C
HETATM   34  C18 UNL     1       8.310  10.343  18.300  1.00  0.00     0.001 C
HETATM   35  C19 UNL     1       7.718   9.211  17.488  1.00  0.00     0.014 C
ENDBRANCH  28  30
ENDBRANCH  27  28
ENDBRANCH  26  27
ENDBRANCH   5  26
TORSDOF 11
ENDMDL