MODEL 2
REMARK VINA RESULT: -5.899053640      1.535      1.982
REMARK  9 active torsions:
REMARK  status: ('A' for Active; 'I' for Inactive)
REMARK    1  A    between atoms: C2_2  and  C3_3
REMARK    2  A    between atoms: C2_2  and  C9_10
REMARK    3  A    between atoms: C3_3  and  C4_4
REMARK    4  A    between atoms: C4_4  and  C5_5
REMARK    5  A    between atoms: C5_5  and  C6_6
REMARK    6  A    between atoms: C6_6  and  C7_7
REMARK    7  A    between atoms: C18_19  and  O1_20
REMARK    8  A    between atoms: O1_20  and  S1_21
REMARK    9  A    between atoms: S1_21  and  N2_22
ROOT
HETATM    1  C7  UNL     1       7.795  10.404  18.004  1.00  0.00     0.124 C
HETATM    2  C8  UNL     1       7.927  10.386  19.482  1.00  0.00     0.059 C
HETATM    3  N1  UNL     1       8.049  10.368  20.631  1.00  0.00    -0.197 NA
ENDROOT
BRANCH   1   4
HETATM    4  C6  UNL     1       6.876  11.543  17.693  1.00  0.00     0.014 C
BRANCH   4   5
HETATM    5  C5  UNL     1       6.923  11.933  16.208  1.00  0.00     0.001 C
BRANCH   5   6
HETATM    6  C4  UNL     1       5.632  12.444  15.749  1.00  0.00     0.000 C
BRANCH   6   7
HETATM    7  C3  UNL     1       4.978  11.966  14.528  1.00  0.00     0.005 C
BRANCH   7   8
HETATM    8  C2  UNL     1       3.510  12.031  14.353  1.00  0.00    -0.014 C
HETATM    9  C1  UNL     1       2.920  12.758  15.547  1.00  0.00     0.010 C
BRANCH   8  10
HETATM   10  C9  UNL     1       2.910  10.649  14.355  1.00  0.00    -0.002 C
HETATM   11  C10 UNL     1       3.748   9.658  13.524  1.00  0.00     0.006 C
HETATM   12  C11 UNL     1       3.121   8.331  14.052  1.00  0.00     0.006 C
HETATM   13  C12 UNL     1       3.357   8.621  15.484  1.00  0.00    -0.001 C
HETATM   14  C13 UNL     1       3.141   7.619  16.492  1.00  0.00    -0.001 C
HETATM   15  C26 UNL     1       2.736   9.993  15.688  1.00  0.00    -0.036 C
HETATM   16  C14 UNL     1       1.871   6.863  16.592  1.00  0.00     0.033 C
HETATM   17  C23 UNL     1       3.362   8.259  17.870  1.00  0.00     0.003 C
HETATM   18  C15 UNL     1       2.144   5.822  17.665  1.00  0.00    -0.023 C
HETATM   19  C16 UNL     1       3.038   5.991  18.605  1.00  0.00    -0.072 C
HETATM   20  C17 UNL     1       3.241   4.910  19.624  1.00  0.00     0.068 C
HETATM   21  C21 UNL     1       3.909   7.211  18.760  1.00  0.00    -0.017 C
HETATM   22  C18 UNL     1       2.924   5.486  20.978  1.00  0.00     0.148 C
HETATM   23  C19 UNL     1       2.698   6.972  20.901  1.00  0.00     0.035 C
HETATM   24  C20 UNL     1       3.800   7.693  20.196  1.00  0.00     0.016 C
HETATM   25  C22 UNL     1       5.320   6.814  18.490  1.00  0.00     0.020 C
HETATM   26  C24 UNL     1       4.169   9.483  17.715  1.00  0.00     0.007 C
HETATM   27  C25 UNL     1       3.427  10.530  16.873  1.00  0.00     0.010 C
HETATM   28  C27 UNL     1       1.221   9.881  15.908  1.00  0.00     0.016 C
BRANCH  22  29
HETATM   29  O1  UNL     1       3.975   5.246  21.851  1.00  0.00    -0.254 OA
BRANCH  29  30
HETATM   30  S1  UNL     1       3.763   6.177  23.211  1.00  0.00     0.355 S
HETATM   31  O2  UNL     1       2.724   7.218  22.920  1.00  0.00    -0.176 OA
HETATM   32  O3  UNL     1       3.334   5.290  24.359  1.00  0.00    -0.176 OA
BRANCH  30  33
HETATM   33  N2  UNL     1       5.209   6.980  23.691  1.00  0.00    -0.306 N
ATOM     34  H22 UNL     1       6.038   7.031  23.098  1.00  0.00     0.171 HD
ATOM     35  H21 UNL     1       5.136   7.390  24.622  1.00  0.00     0.171 HD
ENDBRANCH  30  33
ENDBRANCH  29  30
ENDBRANCH  22  29
ENDBRANCH   8  10
ENDBRANCH   7   8
ENDBRANCH   6   7
ENDBRANCH   5   6
ENDBRANCH   4   5
ENDBRANCH   1   4
TORSDOF 9
ENDMDL