MODEL 1
REMARK VINA RESULT: -8.888965600      0.000      0.000
REMARK  10 active torsions:
REMARK  status: ('A' for Active; 'I' for Inactive)
REMARK    1  A    between atoms: C2_2  and  C3_3
REMARK    2  A    between atoms: C5_5  and  O1_6
REMARK    3  A    between atoms: O1_6  and  C6_7
REMARK    4  A    between atoms: C14_16  and  C15_17
REMARK    5  A    between atoms: C15_17  and  C17_19
REMARK    6  A    between atoms: C17_19  and  C18_20
REMARK    7  A    between atoms: C18_20  and  C19_21
REMARK    8  A    between atoms: C19_21  and  C20_22
REMARK    9  A    between atoms: C26_28  and  C28_30
REMARK   10  A    between atoms: C28_30  and  O3_31
ROOT
HETATM    1  C3  UNL     1       2.524   6.711  17.236  1.00  0.00     0.008 C
HETATM    2  C4  UNL     1       1.767   6.709  15.888  1.00  0.00     0.023 C
HETATM    3  C5  UNL     1       3.196   5.389  17.318  1.00  0.00     0.144 C
HETATM    4  C8  UNL     1       4.553   5.392  17.942  1.00  0.00     0.034 C
HETATM    5  C9  UNL     1       5.356   6.634  18.046  1.00  0.00     0.013 C
HETATM    6  C10 UNL     1       4.519   7.881  18.309  1.00  0.00    -0.028 C
HETATM    7  C11 UNL     1       3.942   7.448  19.639  1.00  0.00     0.016 C
HETATM    8  C12 UNL     1       5.222   9.161  18.477  1.00  0.00    -0.028 C
HETATM    9  C13 UNL     1       4.724   9.756  19.810  1.00  0.00     0.016 C
HETATM   10  C14 UNL     1       6.643   9.445  18.479  1.00  0.00    -0.002 C
HETATM   11  C23 UNL     1       6.995  10.546  17.479  1.00  0.00     0.006 C
HETATM   12  C24 UNL     1       5.688  11.379  17.596  1.00  0.00     0.007 C
HETATM   13  C25 UNL     1       4.784  10.219  17.441  1.00  0.00     0.005 C
HETATM   14  C26 UNL     1       3.396  10.375  17.096  1.00  0.00    -0.018 C
HETATM   15  C27 UNL     1       2.508  11.172  18.062  1.00  0.00     0.018 C
HETATM   16  C29 UNL     1       2.776   9.049  16.829  1.00  0.00     0.022 C
HETATM   17  C30 UNL     1       3.568   7.814  17.125  1.00  0.00    -0.022 C
HETATM   18  C31 UNL     1       4.285   7.440  15.836  1.00  0.00     0.017 C
ENDROOT
BRANCH  10  19
HETATM   19  C15 UNL     1       7.804   8.590  18.677  1.00  0.00    -0.014 C
HETATM   20  C16 UNL     1       8.790   8.955  17.507  1.00  0.00     0.010 C
BRANCH  19  21
HETATM   21  C17 UNL     1       8.723   9.085  19.817  1.00  0.00     0.005 C
BRANCH  21  22
HETATM   22  C18 UNL     1       8.133   9.102  21.156  1.00  0.00     0.001 C
BRANCH  22  23
HETATM   23  C19 UNL     1       7.455   7.730  21.348  1.00  0.00     0.004 C
BRANCH  23  24
HETATM   24  C20 UNL     1       6.697   7.707  22.656  1.00  0.00    -0.023 C
HETATM   25  C21 UNL     1       7.653   7.303  23.758  1.00  0.00     0.009 C
HETATM   26  C22 UNL     1       5.597   6.668  22.626  1.00  0.00     0.009 C
ENDBRANCH  23  24
ENDBRANCH  22  23
ENDBRANCH  21  22
ENDBRANCH  19  21
ENDBRANCH  10  19
BRANCH  14  27
HETATM   27  C28 UNL     1       3.353  11.283  15.839  1.00  0.00     0.173 C
BRANCH  27  28
HETATM   28  O3  UNL     1       3.168  10.641  14.666  1.00  0.00    -0.400 OA
ATOM     29  H3  UNL     1       3.951  10.277  14.270  1.00  0.00     0.209 HD
ENDBRANCH  27  28
ENDBRANCH  14  27
BRANCH   1  30
HETATM   30  C2  UNL     1       1.432   6.971  18.169  1.00  0.00    -0.024 C
HETATM   31  C1  UNL     1       0.168   6.842  17.771  1.00  0.00     0.008 C
ENDBRANCH   1  30
BRANCH   3  32
HETATM   32  O1  UNL     1       2.348   4.467  18.001  1.00  0.00    -0.315 OA
BRANCH  32  33
HETATM   33  C6  UNL     1       2.678   3.745  19.117  1.00  0.00     0.255 C
HETATM   34  C7  UNL     1       2.514   4.327  20.488  1.00  0.00     0.126 C
HETATM   35  O2  UNL     1       3.133   2.558  18.969  1.00  0.00    -0.266 OA
ENDBRANCH  32  33
ENDBRANCH   3  32
TORSDOF 10
ENDMDL