MODEL 5
REMARK VINA RESULT: -9.563893325      2.167      6.773
REMARK  11 active torsions:
REMARK  status: ('A' for Active; 'I' for Inactive)
REMARK    1  A    between atoms: C2_2  and  C3_3
REMARK    2  A    between atoms: C2_2  and  C25_31
REMARK    3  A    between atoms: C3_3  and  C4_4
REMARK    4  A    between atoms: C4_4  and  O2_6
REMARK    5  A    between atoms: O2_6  and  C5_7
REMARK    6  A    between atoms: C5_7  and  C6_8
REMARK    7  A    between atoms: C15_17  and  C16_18
REMARK    8  A    between atoms: C16_18  and  N1_19
REMARK       I    between atoms: N1_19  and  C17_21
REMARK    9  A    between atoms: C17_21  and  O4_23
REMARK   10  A    between atoms: O4_23  and  C18_24
REMARK   11  A    between atoms: C25_31  and  C28_34
ROOT
HETATM    1  C6  UNL     1       3.998   6.788  19.519  1.00  0.00    -0.017 C
HETATM    2  C7  UNL     1       2.913   6.253  20.450  1.00  0.00     0.017 C
HETATM    3  C8  UNL     1       1.936   5.366  19.709  1.00  0.00    -0.005 C
HETATM    4  C9  UNL     1       2.701   4.270  19.074  1.00  0.00    -0.010 C
HETATM    5  C10 UNL     1       1.940   3.088  18.600  1.00  0.00     0.011 C
HETATM    6  C11 UNL     1       3.606   4.890  18.027  1.00  0.00    -0.005 C
HETATM    7  C12 UNL     1       4.652   5.669  18.826  1.00  0.00     0.017 C
HETATM    8  C13 UNL     1       2.848   5.685  17.033  1.00  0.00    -0.000 C
HETATM    9  C14 UNL     1       3.682   6.071  15.862  1.00  0.00     0.011 C
HETATM   10  C15 UNL     1       2.224   6.912  17.754  1.00  0.00    -0.000 C
HETATM   11  C22 UNL     1       3.330   7.637  18.412  1.00  0.00     0.027 C
HETATM   12  C23 UNL     1       1.232   6.308  18.701  1.00  0.00    -0.000 C
HETATM   13  C24 UNL     1       0.095   5.612  18.053  1.00  0.00     0.011 C
ENDROOT
BRANCH   1  14
HETATM   14  C5  UNL     1       4.804   7.771  20.279  1.00  0.00     0.188 C
BRANCH  14  15
HETATM   15  O2  UNL     1       5.922   7.461  20.943  1.00  0.00    -0.320 OA
BRANCH  15  16
HETATM   16  C4  UNL     1       7.237   7.863  20.767  1.00  0.00     0.262 C
HETATM   17  O1  UNL     1       7.713   8.535  21.714  1.00  0.00    -0.265 OA
BRANCH  16  18
HETATM   18  C3  UNL     1       7.962   7.502  19.544  1.00  0.00     0.145 C
BRANCH  18  19
HETATM   19  C2  UNL     1       7.974   8.408  18.410  1.00  0.00    -0.072 C
HETATM   20  C1  UNL     1       8.318   9.659  18.360  1.00  0.00     0.015 C
BRANCH  19  21
HETATM   21  C25 UNL     1       7.504   7.748  17.111  1.00  0.00    -0.025 C
HETATM   22  C26 UNL     1       8.572   8.066  16.076  1.00  0.00     0.019 C
HETATM   23  C27 UNL     1       6.235   8.455  16.668  1.00  0.00     0.019 C
BRANCH  21  24
HETATM   24  C28 UNL     1       7.311   6.299  17.351  1.00  0.00     0.009 C
HETATM   25  C29 UNL     1       7.635   5.458  16.123  1.00  0.00     0.006 C
ENDBRANCH  21  24
ENDBRANCH  19  21
ENDBRANCH  18  19
ENDBRANCH  16  18
ENDBRANCH  15  16
ENDBRANCH  14  15
ENDBRANCH   1  14
BRANCH  10  26
HETATM   26  C16 UNL     1       1.592   7.800  16.752  1.00  0.00     0.076 C
BRANCH  26  27
HETATM   27  N1  UNL     1       1.756   9.201  16.759  1.00  0.00    -0.316 N
HETATM   28  C17 UNL     1       2.358  10.172  15.971  1.00  0.00     0.365 C
HETATM   29  O3  UNL     1       3.009  10.086  14.923  1.00  0.00    -0.238 OA
ATOM     30  H1  UNL     1       1.304   9.618  17.572  1.00  0.00     0.170 HD
BRANCH  28  31
HETATM   31  O4  UNL     1       2.235  11.531  16.408  1.00  0.00    -0.294 OA
BRANCH  31  32
HETATM   32  C18 UNL     1       3.352  12.141  16.979  1.00  0.00     0.061 C
HETATM   33  C19 UNL     1       2.835  13.294  17.849  1.00  0.00     0.046 C
HETATM   34  C20 UNL     1       4.306  12.720  15.987  1.00  0.00     0.046 C
HETATM   35  C21 UNL     1       4.099  11.172  17.877  1.00  0.00     0.046 C
ENDBRANCH  31  32
ENDBRANCH  28  31
ENDBRANCH  26  27
ENDBRANCH  10  26
TORSDOF 11
ENDMDL