MODEL 4
REMARK VINA RESULT: -7.064863996      4.209      5.772
REMARK  8 active torsions:
REMARK  status: ('A' for Active; 'I' for Inactive)
REMARK    1  A    between atoms: N1_2  and  C2_4
REMARK    2  A    between atoms: C2_4  and  O1_5
REMARK    3  A    between atoms: C2_4  and  C6_16
REMARK    4  A    between atoms: O1_5  and  C3_6
REMARK    5  A    between atoms: C5_11  and  O2_12
REMARK    6  A    between atoms: C5_11  and  O3_14
REMARK    7  A    between atoms: C7_19  and  N4_20
REMARK    8  A    between atoms: C9_27  and  N6_28
ROOT
HETATM    1  C6  UNL     1      13.706 -11.550 -11.287  1.00  0.00     0.104 A
HETATM    2  N3  UNL     1      12.458 -11.271 -10.893  1.00  0.00    -0.189 N
ATOM      3  H3  UNL     1      12.357 -10.566 -10.163  1.00  0.00     0.184 HD
HETATM    4  C7  UNL     1      11.330 -11.817 -11.352  1.00  0.00     0.677 A
HETATM    5  N5  UNL     1      11.452 -12.746 -12.309  1.00  0.00    -0.183 N
ATOM      6  H5  UNL     1      10.619 -13.194 -12.691  1.00  0.00     0.185 HD
HETATM    7  C8  UNL     1      12.690 -13.099 -12.778  1.00  0.00     0.122 A
HETATM    8  S1  UNL     1      13.285 -14.176 -13.964  1.00  0.00    -0.027 SA
HETATM    9  C9  UNL     1      14.976 -13.843 -13.791  1.00  0.00     0.218 A
HETATM   10  N7  UNL     1      14.961 -12.935 -12.837  1.00  0.00    -0.328 N
ATOM     11  H7  UNL     1      15.842 -12.538 -12.510  1.00  0.00     0.168 HD
HETATM   12  C10 UNL     1      13.844 -12.536 -12.305  1.00  0.00     0.097 A
ENDROOT
BRANCH   1  13
HETATM   13  C2  UNL     1      14.860 -10.955 -10.637  1.00  0.00     0.273 C
BRANCH  13  14
HETATM   14  N1  UNL     1      15.444  -9.877 -11.304  1.00  0.00    -0.396 N
HETATM   15  C1  UNL     1      16.234  -8.897 -10.727  1.00  0.00     0.143 C
ATOM     16  H1  UNL     1      15.274  -9.805 -12.307  1.00  0.00     0.155 HD
ENDBRANCH  13  14
BRANCH  13  17
HETATM   17  O1  UNL     1      15.859 -11.832 -10.205  1.00  0.00    -0.324 OA
BRANCH  17  18
HETATM   18  C3  UNL     1      15.722 -12.117  -8.862  1.00  0.00     0.387 C
HETATM   19  N2  UNL     1      15.688 -10.993  -7.941  1.00  0.00    -0.038 N
HETATM   20  C4  UNL     1      16.257 -11.944  -6.956  1.00  0.00     0.308 C
ATOM     21  H22 UNL     1      16.134 -10.102  -8.156  1.00  0.00     0.280 HD
ATOM     22  H21 UNL     1      14.833 -10.469  -7.756  1.00  0.00     0.280 HD
HETATM   23  C5  UNL     1      16.982 -12.542  -8.189  1.00  0.00     0.237 C
BRANCH  23  24
HETATM   24  O2  UNL     1      18.057 -11.745  -8.578  1.00  0.00    -0.361 OA
ATOM     25  H2  UNL     1      17.863 -10.823  -8.464  1.00  0.00     0.213 HD
ENDBRANCH  23  24
BRANCH  23  26
HETATM   26  O3  UNL     1      17.219 -13.889  -8.098  1.00  0.00    -0.361 OA
ATOM     27  H3  UNL     1      17.928 -14.167  -7.531  1.00  0.00     0.213 HD
ENDBRANCH  23  26
ENDBRANCH  17  18
ENDBRANCH  13  17
ENDBRANCH   1  13
BRANCH   4  28
HETATM   28  N4  UNL     1      10.204 -11.443 -10.873  1.00  0.00    -0.234 N
ATOM     29  H42 UNL     1      10.043 -11.283  -9.878  1.00  0.00     0.174 HD
ATOM     30  H41 UNL     1       9.414 -11.290 -11.499  1.00  0.00     0.174 HD
ENDBRANCH   4  28
BRANCH   9  31
HETATM   31  N6  UNL     1      16.059 -14.430 -14.529  1.00  0.00    -0.090 N
HETATM   32  O4  UNL     1      16.007 -14.332 -15.768  1.00  0.00    -0.530 OA
HETATM   33  O5  UNL     1      17.058 -15.043 -13.883  1.00  0.00    -0.530 OA
ENDBRANCH   9  31
TORSDOF 8
ENDMDL