MODEL 2
REMARK VINA RESULT: -7.681360656      1.026      1.803
REMARK  5 active torsions:
REMARK  status: ('A' for Active; 'I' for Inactive)
REMARK    1  A    between atoms: C2_3  and  O1_6
REMARK    2  A    between atoms: O1_6  and  S1_7
REMARK    3  A    between atoms: S1_7  and  S2_10
REMARK    4  A    between atoms: S2_10  and  C4_11
REMARK    5  A    between atoms: C6_18  and  N5_19
REMARK       I    between atoms: N5_19  and  C7_21
REMARK       I    between atoms: C7_21  and  N6_22
REMARK       I    between atoms: C7_21  and  N7_26
ROOT
HETATM    1  N1  UNL     1      17.154 -14.558 -14.658  1.00  0.00    -0.193 NA
HETATM    2  C1  UNL     1      16.190 -14.129 -14.222  1.00  0.00     0.107 C
HETATM    3  C2  UNL     1      14.953 -13.560 -13.683  1.00  0.00     0.355 C
HETATM    4  C3  UNL     1      13.775 -14.294 -14.175  1.00  0.00     0.107 C
HETATM    5  N2  UNL     1      12.847 -14.868 -14.544  1.00  0.00    -0.193 NA
ENDROOT
BRANCH   3   6
HETATM    6  O1  UNL     1      14.998 -13.758 -12.294  1.00  0.00    -0.232 OA
BRANCH   6   7
HETATM    7  S1  UNL     1      14.662 -12.362 -11.458  1.00  0.00     0.333 S
HETATM    8  O2  UNL     1      15.383 -11.145 -11.925  1.00  0.00    -0.186 OA
HETATM    9  O3  UNL     1      15.023 -12.595 -10.060  1.00  0.00    -0.186 OA
BRANCH   7  10
HETATM   10  S2  UNL     1      12.750 -12.020 -12.068  1.00  0.00     0.069 SA
BRANCH  10  11
HETATM   11  C4  UNL     1      12.412 -10.473 -12.708  1.00  0.00     0.164 A
HETATM   12  N3  UNL     1      12.911 -10.055 -13.889  1.00  0.00    -0.321 N
HETATM   13  C5  UNL     1      12.698  -8.869 -14.457  1.00  0.00     0.131 A
ATOM     14  H3  UNL     1      13.508 -10.709 -14.395  1.00  0.00     0.169 HD
HETATM   15  N4  UNL     1      13.229  -8.544 -15.610  1.00  0.00    -0.383 N
HETATM   16  C6  UNL     1      11.902  -7.959 -13.813  1.00  0.00     0.117 A
ATOM     17  H42 UNL     1      13.822  -9.221 -16.090  1.00  0.00     0.157 HD
ATOM     18  H41 UNL     1      13.066  -7.636 -16.046  1.00  0.00     0.157 HD
HETATM   19  C8  UNL     1      11.375  -8.360 -12.597  1.00  0.00     0.148 A
HETATM   20  N8  UNL     1      10.545  -7.394 -11.938  1.00  0.00    -0.080 NA
HETATM   21  N9  UNL     1      11.620  -9.564 -12.069  1.00  0.00    -0.322 N
ATOM     22  H9  UNL     1      11.206  -9.809 -11.169  1.00  0.00     0.169 HD
BRANCH  16  23
HETATM   23  N5  UNL     1      11.638  -6.689 -14.371  1.00  0.00    -0.335 N
HETATM   24  C7  UNL     1      12.463  -5.523 -14.211  1.00  0.00     0.480 C
HETATM   25  N6  UNL     1      12.643  -5.097 -12.866  1.00  0.00    -0.033 N
HETATM   26  N7  UNL     1      11.883  -4.420 -14.970  1.00  0.00    -0.033 N
ATOM     27  H63 UNL     1      11.739  -4.953 -12.417  1.00  0.00     0.278 HD
ATOM     28  H62 UNL     1      13.004  -5.865 -12.298  1.00  0.00     0.278 HD
ATOM     29  H61 UNL     1      13.229  -4.270 -12.753  1.00  0.00     0.278 HD
ATOM     30  H73 UNL     1      11.735  -4.659 -15.950  1.00  0.00     0.278 HD
ATOM     31  H72 UNL     1      10.910  -4.245 -14.717  1.00  0.00     0.278 HD
ATOM     32  H71 UNL     1      12.468  -3.593 -14.856  1.00  0.00     0.278 HD
ATOM     33  H5  UNL     1      10.793  -6.590 -14.933  1.00  0.00     0.163 HD
ENDBRANCH  16  23
ENDBRANCH  10  11
ENDBRANCH   7  10
ENDBRANCH   6   7
ENDBRANCH   3   6
TORSDOF 5
ENDMDL