MODEL 3
REMARK VINA RESULT: -7.696532458      2.604      4.003
REMARK  8 active torsions:
REMARK  status: ('A' for Active; 'I' for Inactive)
REMARK    1  A    between atoms: C2_7  and  N3_8
REMARK    2  A    between atoms: N3_8  and  C3_10
REMARK    3  A    between atoms: C3_10  and  N4_11
REMARK    4  A    between atoms: C5_17  and  N7_18
REMARK    5  A    between atoms: C8_28  and  N10_29
REMARK    6  A    between atoms: N10_29  and  C9_31
REMARK    7  A    between atoms: C9_31  and  C10_32
REMARK    8  A    between atoms: C10_32  and  O1_33
ROOT
HETATM    1  N3  UNL     1      13.869 -12.029 -13.512  1.00  0.00    -0.352 N
ATOM      2  H3  UNL     1      14.516 -11.739 -14.245  1.00  0.00     0.163 HD
ENDROOT
BRANCH   1   3
HETATM    3  C2  UNL     1      12.754 -11.201 -13.255  1.00  0.00     0.164 A
HETATM    4  N2  UNL     1      12.552  -9.973 -13.725  1.00  0.00    -0.170 N
HETATM    5  C1  UNL     1      11.506  -9.179 -13.493  1.00  0.00     0.679 A
ATOM      6  H2  UNL     1      13.281  -9.596 -14.331  1.00  0.00     0.186 HD
HETATM    7  N1  UNL     1      11.517  -7.994 -14.067  1.00  0.00    -0.234 N
HETATM    8  N11 UNL     1      10.443  -9.460 -12.736  1.00  0.00    -0.170 N
ATOM      9  H12 UNL     1      12.329  -7.780 -14.645  1.00  0.00     0.174 HD
ATOM     10  H11 UNL     1      10.717  -7.387 -13.889  1.00  0.00     0.174 HD
HETATM   11  C8  UNL     1      10.235 -10.603 -12.068  1.00  0.00     0.163 A
ATOM     12  H11 UNL     1       9.724  -8.741 -12.660  1.00  0.00     0.186 HD
HETATM   13  S1  UNL     1      11.477 -11.755 -12.242  1.00  0.00    -0.017 SA
BRANCH  11  14
HETATM   14  N10 UNL     1       9.154 -10.720 -11.378  1.00  0.00    -0.368 N
ATOM     15  H10 UNL     1       8.268 -10.908 -11.847  1.00  0.00     0.161 HD
BRANCH  14  16
HETATM   16  C9  UNL     1       9.197 -10.583  -9.932  1.00  0.00     0.147 C
BRANCH  16  17
HETATM   17  C10 UNL     1       8.712 -11.856  -9.297  1.00  0.00     0.183 C
BRANCH  17  18
HETATM   18  O1  UNL     1       9.724 -12.804  -9.345  1.00  0.00    -0.399 OA
ATOM     19  H1  UNL     1      10.276 -12.712  -8.577  1.00  0.00     0.209 HD
ENDBRANCH  17  18
ENDBRANCH  16  17
ENDBRANCH  14  16
ENDBRANCH  11  14
ENDBRANCH   1   3
BRANCH   1  20
HETATM   20  C3  UNL     1      14.151 -13.235 -12.821  1.00  0.00     0.276 C
BRANCH  20  21
HETATM   21  N4  UNL     1      14.931 -14.118 -13.653  1.00  0.00    -0.242 N
HETATM   22  N5  UNL     1      16.040 -14.759 -13.410  1.00  0.00    -0.237 N
HETATM   23  N6  UNL     1      16.440 -15.486 -14.440  1.00  0.00    -0.279 N
ATOM     24  H5  UNL     1      16.543 -14.705 -12.524  1.00  0.00     0.208 HD
HETATM   25  C4  UNL     1      15.545 -15.322 -15.429  1.00  0.00     0.139 A
ATOM     26  H6  UNL     1      17.278 -16.067 -14.477  1.00  0.00     0.189 HD
HETATM   27  C5  UNL     1      15.399 -15.795 -16.713  1.00  0.00     0.132 A
HETATM   28  C7  UNL     1      14.592 -14.459 -14.933  1.00  0.00     0.158 A
HETATM   29  N8  UNL     1      14.350 -15.421 -17.463  1.00  0.00    -0.337 N
HETATM   30  C6  UNL     1      13.409 -14.568 -16.972  1.00  0.00     0.183 A
ATOM     31  H8  UNL     1      14.257 -15.781 -18.413  1.00  0.00     0.168 HD
HETATM   32  N9  UNL     1      13.547 -14.103 -15.719  1.00  0.00    -0.335 N
ATOM     33  H9  UNL     1      12.844 -13.464 -15.348  1.00  0.00     0.168 HD
BRANCH  27  34
HETATM   34  N7  UNL     1      16.288 -16.602 -17.177  1.00  0.00    -0.383 N
ATOM     35  H72 UNL     1      16.041 -17.553 -17.447  1.00  0.00     0.157 HD
ATOM     36  H71 UNL     1      17.249 -16.270 -17.271  1.00  0.00     0.157 HD
ENDBRANCH  27  34
ENDBRANCH  20  21
ENDBRANCH   1  20
TORSDOF 8
ENDMDL