MODEL 4
REMARK VINA RESULT: -7.257899523      2.906      3.629
REMARK  8 active torsions:
REMARK  status: ('A' for Active; 'I' for Inactive)
REMARK    1  A    between atoms: N1_2  and  C2_3
REMARK    2  A    between atoms: N1_2  and  C5_8
REMARK    3  A    between atoms: C2_3  and  C3_4
REMARK    4  A    between atoms: C3_4  and  C4_5
REMARK    5  A    between atoms: C4_5  and  O1_6
REMARK    6  A    between atoms: C6_11  and  N3_12
REMARK    7  A    between atoms: C8_20  and  C9_21
REMARK    8  A    between atoms: C11_28  and  N9_29
ROOT
HETATM    1  C5  UNL     1      12.139 -10.533 -10.150  1.00  0.00     0.153 A
HETATM    2  N2  UNL     1      10.838 -10.411  -9.736  1.00  0.00    -0.174 N
ATOM      3  H2  UNL     1      10.638  -9.783  -8.958  1.00  0.00     0.186 HD
HETATM    4  C6  UNL     1       9.826 -11.061 -10.288  1.00  0.00     0.679 A
HETATM    5  N4  UNL     1      10.067 -11.883 -11.298  1.00  0.00    -0.174 N
ATOM      6  H4  UNL     1       9.294 -12.390 -11.728  1.00  0.00     0.186 HD
HETATM    7  C7  UNL     1      11.304 -12.059 -11.761  1.00  0.00     0.153 A
HETATM    8  N5  UNL     1      11.791 -12.825 -12.735  1.00  0.00    -0.323 N
ATOM      9  H5  UNL     1      11.237 -13.440 -13.332  1.00  0.00     0.169 HD
HETATM   10  C8  UNL     1      13.136 -12.664 -12.814  1.00  0.00     0.155 A
HETATM   11  N11 UNL     1      13.481 -11.773 -11.864  1.00  0.00    -0.328 N
HETATM   12  C12 UNL     1      14.824 -11.319 -11.663  1.00  0.00     0.158 C
HETATM   13  C13 UNL     1      12.389 -11.375 -11.189  1.00  0.00     0.126 A
ENDROOT
BRANCH  10  14
HETATM   14  C9  UNL     1      13.950 -13.396 -13.768  1.00  0.00     0.168 A
HETATM   15  N6  UNL     1      13.560 -13.464 -15.073  1.00  0.00    -0.313 N
HETATM   16  C10 UNL     1      14.265 -14.147 -15.978  1.00  0.00     0.208 A
ATOM     17  H6  UNL     1      12.711 -12.981 -15.364  1.00  0.00     0.170 HD
HETATM   18  N7  UNL     1      13.837 -14.205 -17.352  1.00  0.00    -0.063 NA
HETATM   19  N8  UNL     1      15.383 -14.784 -15.605  1.00  0.00    -0.164 N
HETATM   20  C11 UNL     1      15.826 -14.754 -14.314  1.00  0.00     0.679 A
ATOM     21  H8  UNL     1      15.915 -15.303 -16.303  1.00  0.00     0.187 HD
HETATM   22  N10 UNL     1      15.058 -14.044 -13.465  1.00  0.00    -0.173 N
ATOM     23  H10 UNL     1      15.363 -14.004 -12.492  1.00  0.00     0.186 HD
BRANCH  20  24
HETATM   24  N9  UNL     1      16.903 -15.372 -13.963  1.00  0.00    -0.234 N
ATOM     25  H92 UNL     1      17.796 -15.272 -14.444  1.00  0.00     0.174 HD
ATOM     26  H91 UNL     1      16.911 -16.006 -13.164  1.00  0.00     0.174 HD
ENDBRANCH  20  24
ENDBRANCH  10  14
BRANCH   1  27
HETATM   27  N1  UNL     1      13.128  -9.802  -9.439  1.00  0.00    -0.349 N
HETATM   28  C1  UNL     1      13.598  -8.566  -9.999  1.00  0.00     0.156 C
BRANCH  27  29
HETATM   29  C2  UNL     1      13.731 -10.418  -8.319  1.00  0.00     0.067 C
BRANCH  29  30
HETATM   30  C3  UNL     1      15.150 -10.639  -8.125  1.00  0.00     0.071 C
BRANCH  30  31
HETATM   31  C4  UNL     1      15.653 -11.984  -7.796  1.00  0.00     0.169 C
BRANCH  31  32
HETATM   32  O1  UNL     1      16.192 -12.745  -8.790  1.00  0.00    -0.401 OA
ATOM     33  H1  UNL     1      16.320 -13.673  -8.637  1.00  0.00     0.209 HD
ENDBRANCH  31  32
ENDBRANCH  30  31
ENDBRANCH  29  30
ENDBRANCH  27  29
ENDBRANCH   1  27
BRANCH   4  34
HETATM   34  N3  UNL     1       8.591 -10.919  -9.864  1.00  0.00    -0.234 N
ATOM     35  H32 UNL     1       7.898 -10.510 -10.491  1.00  0.00     0.174 HD
ATOM     36  H31 UNL     1       8.302 -11.204  -8.928  1.00  0.00     0.174 HD
ENDBRANCH   4  34
TORSDOF 8
ENDMDL