MODEL 2
REMARK VINA RESULT: -6.957550762      0.089      1.718
REMARK  10 active torsions:
REMARK  status: ('A' for Active; 'I' for Inactive)
REMARK    1  A    between atoms: C2_3  and  C3_4
REMARK    2  A    between atoms: C3_4  and  O1_5
REMARK    3  A    between atoms: C4_8  and  S1_9
REMARK    4  A    between atoms: S1_9  and  S2_10
REMARK    5  A    between atoms: S2_10  and  C5_11
REMARK    6  A    between atoms: C6_14  and  N3_15
REMARK    7  A    between atoms: C7_20  and  N5_21
REMARK    8  A    between atoms: C8_27  and  O4_28
REMARK    9  A    between atoms: C8_27  and  C9_30
REMARK   10  A    between atoms: C9_30  and  O5_31
ROOT
HETATM    1  N1  UNL     1       8.983 -12.196  -9.336  1.00  0.00    -0.197 NA
HETATM    2  C1  UNL     1       9.948 -11.767  -9.813  1.00  0.00     0.064 C
HETATM    3  C2  UNL     1      11.144 -11.206 -10.400  1.00  0.00     0.198 C
ENDROOT
BRANCH   3   4
HETATM    4  C3  UNL     1      11.410 -11.644 -11.804  1.00  0.00     0.237 C
HETATM    5  O2  UNL     1      11.848 -10.570 -12.576  1.00  0.00    -0.309 OA
HETATM    6  C4  UNL     1      13.183 -10.436 -12.311  1.00  0.00     0.344 C
HETATM    7  O3  UNL     1      13.617 -11.546 -11.573  1.00  0.00    -0.308 OA
HETATM    8  C8  UNL     1      12.644 -12.516 -11.825  1.00  0.00     0.245 C
BRANCH   4   9
HETATM    9  O1  UNL     1      10.338 -12.303 -12.385  1.00  0.00    -0.360 OA
ATOM     10  H1  UNL     1      10.574 -13.142 -12.765  1.00  0.00     0.213 HD
ENDBRANCH   4   9
BRANCH   6  11
HETATM   11  S1  UNL     1      13.450  -8.875 -11.433  1.00  0.00    -0.029 SA
BRANCH  11  12
HETATM   12  S2  UNL     1      11.759  -7.602 -11.660  1.00  0.00    -0.015 SA
BRANCH  12  13
HETATM   13  C5  UNL     1      11.898  -6.795 -13.252  1.00  0.00     0.185 A
HETATM   14  N2  UNL     1      10.824  -6.149 -13.740  1.00  0.00    -0.169 N
HETATM   15  C6  UNL     1      10.869  -5.531 -14.920  1.00  0.00     0.692 A
ATOM     16  H2  UNL     1       9.960  -6.132 -13.199  1.00  0.00     0.186 HD
HETATM   17  N4  UNL     1      12.021  -5.567 -15.615  1.00  0.00    -0.023 N
HETATM   18  C7  UNL     1      13.120  -6.202 -15.165  1.00  0.00     0.692 A
ATOM     19  H4  UNL     1      12.062  -5.095 -16.518  1.00  0.00     0.203 HD
HETATM   20  N6  UNL     1      13.040  -6.814 -13.974  1.00  0.00    -0.169 N
ATOM     21  H6  UNL     1      13.857  -7.303 -13.607  1.00  0.00     0.186 HD
BRANCH  15  22
HETATM   22  N3  UNL     1       9.825  -4.909 -15.386  1.00  0.00    -0.234 N
ATOM     23  H32 UNL     1       9.838  -3.899 -15.534  1.00  0.00     0.174 HD
ATOM     24  H31 UNL     1       8.971  -5.419 -15.612  1.00  0.00     0.174 HD
ENDBRANCH  15  22
BRANCH  18  25
HETATM   25  N5  UNL     1      14.231  -6.250 -15.812  1.00  0.00    -0.234 N
ATOM     26  H52 UNL     1      14.240  -6.670 -16.741  1.00  0.00     0.174 HD
ATOM     27  H51 UNL     1      15.114  -5.890 -15.448  1.00  0.00     0.174 HD
ENDBRANCH  18  25
ENDBRANCH  12  13
ENDBRANCH  11  12
ENDBRANCH   6  11
BRANCH   8  28
HETATM   28  O4  UNL     1      12.601 -13.524 -10.912  1.00  0.00    -0.359 OA
ATOM     29  H4  UNL     1      11.777 -13.568 -10.442  1.00  0.00     0.213 HD
ENDBRANCH   8  28
BRANCH   8  30
HETATM   30  C9  UNL     1      12.819 -12.996 -13.250  1.00  0.00     0.238 C
BRANCH  30  31
HETATM   31  O5  UNL     1      12.149 -14.182 -13.483  1.00  0.00    -0.395 OA
ATOM     32  H5  UNL     1      11.872 -14.599 -12.676  1.00  0.00     0.209 HD
ENDBRANCH  30  31
ENDBRANCH   8  30
ENDBRANCH   3   4
TORSDOF 10
ENDMDL