MODEL 2
REMARK VINA RESULT: -8.257932304      0.854      1.561
REMARK  7 active torsions:
REMARK  status: ('A' for Active; 'I' for Inactive)
REMARK    1  A    between atoms: C5_14  and  N4_15
REMARK    2  A    between atoms: N4_15  and  N5_17
REMARK    3  A    between atoms: C6_19  and  C7_20
REMARK    4  A    between atoms: C7_20  and  C8_21
REMARK    5  A    between atoms: C8_21  and  O3_22
REMARK    6  A    between atoms: O3_22  and  C9_23
REMARK    7  A    between atoms: C10_26  and  N7_27
ROOT
HETATM    1  N4  UNL     1      11.899 -12.052 -13.057  1.00  0.00    -0.294 N
ATOM      2  H4  UNL     1      12.054 -12.236 -14.048  1.00  0.00     0.187 HD
ENDROOT
BRANCH   1   3
HETATM    3  C5  UNL     1      11.445 -10.781 -12.623  1.00  0.00     0.145 A
HETATM    4  C4  UNL     1      10.545 -10.605 -11.491  1.00  0.00     0.278 A
HETATM    5  N3  UNL     1      10.118  -9.322 -11.092  1.00  0.00    -0.286 N
HETATM    6  O2  UNL     1      10.154 -11.623 -10.870  1.00  0.00    -0.265 OA
HETATM    7  C3  UNL     1      10.544  -8.153 -11.775  1.00  0.00     0.277 A
ATOM      8  H3  UNL     1       9.487  -9.232 -10.295  1.00  0.00     0.172 HD
HETATM    9  C2  UNL     1      11.447  -8.346 -12.910  1.00  0.00     0.133 A
HETATM   10  O1  UNL     1      10.200  -7.000 -11.467  1.00  0.00    -0.266 OA
HETATM   11  N2  UNL     1      11.999  -7.510 -13.715  1.00  0.00    -0.322 N
HETATM   12  C11 UNL     1      11.869  -9.711 -13.290  1.00  0.00     0.101 A
HETATM   13  C1  UNL     1      12.814  -8.192 -14.678  1.00  0.00     0.178 A
ATOM     14  H2  UNL     1      11.875  -6.499 -13.675  1.00  0.00     0.169 HD
HETATM   15  N1  UNL     1      13.514  -7.690 -15.635  1.00  0.00    -0.371 N
HETATM   16  N11 UNL     1      12.733  -9.586 -14.413  1.00  0.00    -0.324 N
ATOM     17  H12 UNL     1      13.572  -6.690 -15.825  1.00  0.00     0.159 HD
ATOM     18  H11 UNL     1      14.093  -8.175 -16.320  1.00  0.00     0.159 HD
ATOM     19  H11 UNL     1      13.198 -10.339 -14.921  1.00  0.00     0.169 HD
ENDBRANCH   1   3
BRANCH   1  20
HETATM   20  N5  UNL     1      12.127 -13.036 -12.117  1.00  0.00    -0.315 N
HETATM   21  C6  UNL     1      13.187 -13.110 -11.387  1.00  0.00     0.082 C
ATOM     22  H5  UNL     1      11.411 -13.751 -11.992  1.00  0.00     0.185 HD
BRANCH  21  23
HETATM   23  C7  UNL     1      14.297 -12.131 -11.475  1.00  0.00     0.073 C
BRANCH  23  24
HETATM   24  C8  UNL     1      15.143 -12.490 -12.652  1.00  0.00     0.184 C
BRANCH  24  25
HETATM   25  O3  UNL     1      15.228 -13.897 -12.847  1.00  0.00    -0.321 OA
BRANCH  25  26
HETATM   26  C9  UNL     1      15.170 -14.458 -14.114  1.00  0.00     0.234 C
HETATM   27  N6  UNL     1      14.149 -14.178 -14.868  1.00  0.00    -0.314 N
HETATM   28  C10 UNL     1      14.068 -14.746 -16.178  1.00  0.00     0.397 C
ATOM     29  H6  UNL     1      13.413 -13.560 -14.528  1.00  0.00     0.166 HD
HETATM   30  N8  UNL     1      15.327 -15.246 -16.677  1.00  0.00    -0.072 NA
HETATM   31  N9  UNL     1      15.973 -16.088 -15.762  1.00  0.00    -0.025 NA
HETATM   32  N10 UNL     1      16.195 -15.327 -14.607  1.00  0.00    -0.252 N
ATOM     33  H10 UNL     1      17.088 -15.393 -14.117  1.00  0.00     0.187 HD
BRANCH  28  34
HETATM   34  N7  UNL     1      13.541 -13.829 -17.165  1.00  0.00    -0.043 N
ATOM     35  H73 UNL     1      12.724 -13.337 -16.804  1.00  0.00     0.278 HD
ATOM     36  H72 UNL     1      14.169 -13.036 -17.296  1.00  0.00     0.278 HD
ATOM     37  H71 UNL     1      13.330 -14.276 -18.057  1.00  0.00     0.278 HD
ENDBRANCH  28  34
ENDBRANCH  25  26
ENDBRANCH  24  25
ENDBRANCH  23  24
ENDBRANCH  21  23
ENDBRANCH   1  20
TORSDOF 7
ENDMDL