MODEL 3
REMARK VINA RESULT: -9.669185115      1.106      1.365
REMARK  7 active torsions:
REMARK  status: ('A' for Active; 'I' for Inactive)
REMARK    1  A    between atoms: N1_1  and  C1_4
REMARK    2  A    between atoms: C3_11  and  N5_12
REMARK    3  A    between atoms: C6_15  and  N6_16
REMARK    4  A    between atoms: N6_16  and  C7_18
REMARK    5  A    between atoms: C7_18  and  O1_19
REMARK    6  A    between atoms: C7_18  and  C8_21
REMARK    7  A    between atoms: C8_21  and  C9_23
ROOT
HETATM    1  N5  UNL     1      12.874  -8.709 -12.788  1.00  0.00    -0.215 N
HETATM    2  C4  UNL     1      13.383  -8.779 -11.438  1.00  0.00     0.143 C
HETATM    3  C5  UNL     1      12.958 -10.154 -10.915  1.00  0.00     0.047 C
HETATM    4  C6  UNL     1      12.168 -10.752 -12.025  1.00  0.00     0.099 C
HETATM    5  C13 UNL     1      12.859 -10.076 -13.262  1.00  0.00     0.166 C
ENDROOT
BRANCH   4   6
HETATM    6  N6  UNL     1      12.146 -12.120 -12.191  1.00  0.00    -0.386 N
ATOM      7  H6  UNL     1      11.496 -12.605 -11.573  1.00  0.00     0.156 HD
BRANCH   6   8
HETATM    8  C7  UNL     1      12.832 -12.941 -13.032  1.00  0.00     0.265 C
BRANCH   8   9
HETATM    9  O1  UNL     1      12.044 -14.118 -13.370  1.00  0.00    -0.372 OA
ATOM     10  H1  UNL     1      11.432 -13.928 -14.072  1.00  0.00     0.212 HD
ENDBRANCH   8   9
BRANCH   8  11
HETATM   11  C8  UNL     1      14.203 -13.441 -12.808  1.00  0.00     0.099 C
HETATM   12  N7  UNL     1      15.155 -12.601 -12.191  1.00  0.00    -0.100 NA
BRANCH  11  13
HETATM   13  C9  UNL     1      14.787 -14.209 -13.950  1.00  0.00     0.072 A
HETATM   14  C10 UNL     1      14.169 -14.217 -15.192  1.00  0.00     0.036 A
HETATM   15  C11 UNL     1      14.684 -14.933 -16.252  1.00  0.00     0.049 A
HETATM   16  C12 UNL     1      15.848 -15.661 -16.056  1.00  0.00     0.130 A
HETATM   17  N8  UNL     1      16.380 -16.401 -17.148  1.00  0.00    -0.081 NA
HETATM   18  N9  UNL     1      16.413 -15.627 -14.843  1.00  0.00    -0.287 N
HETATM   19  N10 UNL     1      15.901 -14.929 -13.836  1.00  0.00    -0.298 N
ATOM     20  H9  UNL     1      17.270 -16.157 -14.686  1.00  0.00     0.188 HD
ATOM     21  H10 UNL     1      16.381 -14.945 -12.936  1.00  0.00     0.187 HD
ENDBRANCH  11  13
ENDBRANCH   8  11
ENDBRANCH   6   8
ENDBRANCH   4   6
BRANCH   1  22
HETATM   22  C3  UNL     1      12.468  -7.554 -13.500  1.00  0.00     0.697 A
HETATM   23  N4  UNL     1      11.458  -6.770 -13.158  1.00  0.00    -0.162 N
HETATM   24  C2  UNL     1      11.094  -5.671 -13.854  1.00  0.00     0.221 A
ATOM     25  H4  UNL     1      10.925  -7.008 -12.322  1.00  0.00     0.187 HD
HETATM   26  N2  UNL     1      11.806  -5.366 -14.956  1.00  0.00    -0.163 N
HETATM   27  N3  UNL     1      10.011  -4.835 -13.487  1.00  0.00    -0.062 NA
HETATM   28  C1  UNL     1      12.849  -6.126 -15.358  1.00  0.00     0.692 A
ATOM     29  H2  UNL     1      11.552  -4.542 -15.501  1.00  0.00     0.187 HD
HETATM   30  N11 UNL     1      13.162  -7.207 -14.623  1.00  0.00    -0.022 N
ATOM     31  H11 UNL     1      13.947  -7.790 -14.915  1.00  0.00     0.203 HD
BRANCH  28  32
HETATM   32  N1  UNL     1      13.541  -5.824 -16.430  1.00  0.00    -0.234 N
ATOM     33  H12 UNL     1      13.571  -4.864 -16.775  1.00  0.00     0.174 HD
ATOM     34  H11 UNL     1      14.062  -6.535 -16.944  1.00  0.00     0.174 HD
ENDBRANCH  28  32
ENDBRANCH   1  22
TORSDOF 7
ENDMDL