MODEL 1
REMARK VINA RESULT: -8.147373603      0.000      0.000
REMARK  7 active torsions:
REMARK  status: ('A' for Active; 'I' for Inactive)
REMARK    1  A    between atoms: C2_6  and  C3_7
REMARK    2  A    between atoms: N4_8  and  N5_10
REMARK    3  A    between atoms: N5_10  and  C4_12
REMARK    4  A    between atoms: C4_12  and  C5_13
REMARK    5  A    between atoms: C5_13  and  C6_17
REMARK    6  A    between atoms: C7_20  and  N8_21
REMARK    7  A    between atoms: C9_30  and  C10_31
ROOT
HETATM    1  C6  UNL     1      12.574 -10.903 -11.841  1.00  0.00     0.090 A
HETATM    2  N7  UNL     1      13.014 -10.211 -12.962  1.00  0.00    -0.189 N
ATOM      3  H7  UNL     1      13.986 -10.323 -13.249  1.00  0.00     0.184 HD
HETATM    4  C7  UNL     1      12.230  -9.407 -13.681  1.00  0.00     0.678 A
HETATM    5  N9  UNL     1      10.945  -9.237 -13.331  1.00  0.00    -0.176 N
ATOM      6  H9  UNL     1      10.355  -8.620 -13.888  1.00  0.00     0.186 HD
HETATM    7  C8  UNL     1      10.422  -9.857 -12.270  1.00  0.00     0.131 A
HETATM    8  N10 UNL     1       9.188  -9.708 -11.921  1.00  0.00    -0.384 N
ATOM      9 1H10 UNL     1       8.788 -10.181 -11.111  1.00  0.00     0.157 HD
ATOM     10 2H10 UNL     1       8.572  -9.098 -12.457  1.00  0.00     0.157 HD
HETATM   11  C9  UNL     1      11.276 -10.703 -11.526  1.00  0.00     0.084 A
ENDROOT
BRANCH   1  12
HETATM   12  C5  UNL     1      13.523 -11.752 -11.146  1.00  0.00     0.051 C
HETATM   13  N6  UNL     1      14.188 -11.155 -10.180  1.00  0.00    -0.399 N
ATOM     14  H62 UNL     1      14.856 -11.752  -9.692  1.00  0.00     0.156 HD
ATOM     15  H61 UNL     1      13.953 -10.181  -9.986  1.00  0.00     0.156 HD
BRANCH  12  16
HETATM   16  C4  UNL     1      13.857 -13.130 -11.421  1.00  0.00     0.198 C
BRANCH  16  17
HETATM   17  N5  UNL     1      12.831 -13.740 -12.291  1.00  0.00    -0.331 N
ATOM     18  H5  UNL     1      11.862 -13.779 -11.974  1.00  0.00     0.180 HD
BRANCH  17  19
HETATM   19  N4  UNL     1      13.163 -14.263 -13.536  1.00  0.00    -0.312 N
HETATM   20  C3  UNL     1      13.940 -13.708 -14.380  1.00  0.00     0.157 C
ATOM     21  H4  UNL     1      12.754 -15.160 -13.794  1.00  0.00     0.185 HD
BRANCH  20  22
HETATM   22  C2  UNL     1      14.184 -14.391 -15.644  1.00  0.00     0.151 A
HETATM   23  N3  UNL     1      13.600 -14.144 -16.829  1.00  0.00    -0.266 N
HETATM   24  N2  UNL     1      14.098 -14.981 -17.724  1.00  0.00    -0.003 NA
ATOM     25  H3  UNL     1      12.893 -13.431 -17.009  1.00  0.00     0.186 HD
HETATM   26  N1  UNL     1      14.995 -15.773 -17.162  1.00  0.00    -0.221 N
HETATM   27  C1  UNL     1      15.757 -16.820 -17.823  1.00  0.00     0.197 C
HETATM   28  N15 UNL     1      15.041 -15.405 -15.892  1.00  0.00    -0.269 N
ATOM     29  H15 UNL     1      15.646 -15.832 -15.191  1.00  0.00     0.190 HD
ENDBRANCH  20  22
ENDBRANCH  17  19
ENDBRANCH  16  17
ENDBRANCH  12  16
ENDBRANCH   1  12
BRANCH  11  30
HETATM   30  C10 UNL     1      10.604 -11.313 -10.400  1.00  0.00     0.153 A
HETATM   31  N11 UNL     1      10.600 -10.928  -9.111  1.00  0.00    -0.268 N
HETATM   32  N12 UNL     1       9.930 -11.804  -8.389  1.00  0.00    -0.227 N
ATOM     33  H11 UNL     1      11.047 -10.087  -8.748  1.00  0.00     0.190 HD
HETATM   34  N13 UNL     1       9.498 -12.749  -9.178  1.00  0.00    -0.227 N
ATOM     35  H12 UNL     1       9.775 -11.751  -7.382  1.00  0.00     0.210 HD
HETATM   36  N14 UNL     1       9.891 -12.480 -10.410  1.00  0.00    -0.268 N
ATOM     37  H13 UNL     1       8.949 -13.560  -8.892  1.00  0.00     0.210 HD
ATOM     38  H14 UNL     1       9.696 -13.048 -11.234  1.00  0.00     0.190 HD
ENDBRANCH  11  30
BRANCH   4  39
HETATM   39  N8  UNL     1      12.736  -8.809 -14.704  1.00  0.00    -0.234 N
ATOM     40  H82 UNL     1      13.713  -8.938 -14.970  1.00  0.00     0.174 HD
ATOM     41  H81 UNL     1      12.136  -8.193 -15.254  1.00  0.00     0.174 HD
ENDBRANCH   4  39
TORSDOF 7
ENDMDL