MODEL 5
REMARK VINA RESULT: -6.792321099      2.368      3.757
REMARK  8 active torsions:
REMARK  status: ('A' for Active; 'I' for Inactive)
REMARK    1  A    between atoms: C2_2  and  N1_3
REMARK    2  A    between atoms: N1_3  and  C3_4
REMARK    3  A    between atoms: N1_3  and  C10_30
REMARK    4  A    between atoms: C3_4  and  C4_5
REMARK    5  A    between atoms: C4_5  and  O1_6
REMARK    6  A    between atoms: N2_9  and  O2_10
REMARK    7  A    between atoms: C8_16  and  N5_17
REMARK    8  A    between atoms: C8_16  and  C9_21
ROOT
HETATM    1  C4  UNL     1      12.272 -11.695 -12.196  1.00  0.00     0.152 C
HETATM    2  C5  UNL     1      12.083 -11.165 -10.808  1.00  0.00     0.203 C
HETATM    3  N2  UNL     1      13.344 -11.123 -10.087  1.00  0.00    -0.227 N
HETATM    4  C7  UNL     1      14.585 -11.455 -10.698  1.00  0.00     0.212 C
HETATM    5  N3  UNL     1      15.840 -10.915 -10.270  1.00  0.00    -0.062 NA
HETATM    6  N4  UNL     1      14.553 -12.306 -11.686  1.00  0.00    -0.321 N
ATOM      7  H4  UNL     1      15.413 -12.580 -12.161  1.00  0.00     0.165 HD
HETATM    8  C8  UNL     1      13.307 -12.843 -12.090  1.00  0.00     0.292 C
ENDROOT
BRANCH   1   9
HETATM    9  C3  UNL     1      12.738 -10.698 -13.184  1.00  0.00     0.185 C
BRANCH   9  10
HETATM   10  N1  UNL     1      12.514  -9.320 -12.931  1.00  0.00    -0.212 N
BRANCH  10  11
HETATM   11  C2  UNL     1      11.332  -8.728 -13.535  1.00  0.00     0.137 C
HETATM   12  C1  UNL     1      11.737  -7.621 -14.510  1.00  0.00     0.027 C
ENDBRANCH  10  11
BRANCH  10  13
HETATM   13  C10 UNL     1      13.307  -8.452 -12.144  1.00  0.00     0.711 A
HETATM   14  N10 UNL     1      14.591  -8.155 -11.929  1.00  0.00    -0.116 N
HETATM   15  N11 UNL     1      14.300  -7.260 -11.018  1.00  0.00    -0.214 N
ATOM     16  H10 UNL     1      15.467  -8.496 -12.325  1.00  0.00     0.207 HD
HETATM   17  N12 UNL     1      13.023  -7.522 -11.197  1.00  0.00    -0.116 N
ATOM     18  H11 UNL     1      14.835  -6.629 -10.421  1.00  0.00     0.209 HD
ATOM     19  H12 UNL     1      12.160  -7.166 -10.787  1.00  0.00     0.207 HD
ENDBRANCH  10  13
ENDBRANCH   9  10
ENDBRANCH   1   9
BRANCH   1  20
HETATM   20  O1  UNL     1      11.145 -12.362 -12.703  1.00  0.00    -0.381 OA
ATOM     21  H1  UNL     1      11.066 -13.211 -12.283  1.00  0.00     0.211 HD
ENDBRANCH   1  20
BRANCH   8  22
HETATM   22  N5  UNL     1      12.799 -13.759 -11.104  1.00  0.00    -0.042 N
ATOM     23  H53 UNL     1      12.936 -13.439 -10.145  1.00  0.00     0.278 HD
ATOM     24  H52 UNL     1      11.780 -13.801 -11.079  1.00  0.00     0.278 HD
ATOM     25  H51 UNL     1      13.236 -14.660 -11.296  1.00  0.00     0.278 HD
ENDBRANCH   8  22
BRANCH   8  26
HETATM   26  C9  UNL     1      13.409 -13.512 -13.419  1.00  0.00     0.174 A
HETATM   27  N6  UNL     1      13.812 -12.985 -14.575  1.00  0.00    -0.268 N
HETATM   28  N7  UNL     1      13.729 -13.933 -15.482  1.00  0.00    -0.227 N
ATOM     29  H6  UNL     1      14.125 -12.026 -14.727  1.00  0.00     0.190 HD
HETATM   30  N8  UNL     1      13.285 -15.050 -14.939  1.00  0.00    -0.227 N
ATOM     31  H7  UNL     1      13.973 -13.821 -16.467  1.00  0.00     0.210 HD
HETATM   32  N9  UNL     1      13.087 -14.791 -13.666  1.00  0.00    -0.268 N
ATOM     33  H8  UNL     1      13.128 -15.940 -15.413  1.00  0.00     0.210 HD
ATOM     34  H9  UNL     1      12.742 -15.457 -12.975  1.00  0.00     0.190 HD
ENDBRANCH   8  26
BRANCH   3  35
HETATM   35  O2  UNL     1      13.385 -10.756  -8.785  1.00  0.00    -0.281 OA
HETATM   36  C6  UNL     1      12.435  -9.833  -8.421  1.00  0.00     0.238 C
ENDBRANCH   3  35
TORSDOF 8
ENDMDL