MODEL 2
REMARK VINA RESULT: -8.990878535      4.456      8.685
REMARK  7 active torsions:
REMARK  status: ('A' for Active; 'I' for Inactive)
REMARK       I    between atoms: C1_2  and  N2_3
REMARK       I    between atoms: C1_2  and  N5_20
REMARK    1  A    between atoms: N2_3  and  N3_4
REMARK    2  A    between atoms: C2_6  and  C3_7
REMARK    3  A    between atoms: C5_9  and  O1_10
REMARK    4  A    between atoms: C6_12  and  O2_13
REMARK    5  A    between atoms: C7_15  and  N4_16
REMARK    6  A    between atoms: N5_20  and  C9_22
REMARK    7  A    between atoms: C9_22  and  C10_23
ROOT
HETATM    1  N1  UNL     1      13.553 -14.101 -12.668  1.00  0.00    -0.047 NA
HETATM    2  C1  UNL     1      13.219 -13.186 -13.774  1.00  0.00     0.287 C
HETATM    3  N2  UNL     1      12.901 -12.132 -13.384  1.00  0.00    -0.292 NA
HETATM    4  N5  UNL     1      13.286 -13.627 -15.117  1.00  0.00    -0.319 N
ATOM      5  H5  UNL     1      12.503 -13.320 -15.694  1.00  0.00     0.166 HD
ENDROOT
BRANCH   3   6
HETATM    6  N3  UNL     1      12.474 -10.810 -13.370  1.00  0.00    -0.243 N
HETATM    7  C2  UNL     1      12.974  -9.951 -14.162  1.00  0.00     0.132 C
ATOM      8  H3  UNL     1      11.747 -10.525 -12.713  1.00  0.00     0.201 HD
BRANCH   7   9
HETATM    9  C3  UNL     1      12.751  -8.565 -14.394  1.00  0.00    -0.013 A
HETATM   10  C4  UNL     1      13.300  -7.807 -15.421  1.00  0.00     0.052 A
HETATM   11  C5  UNL     1      13.055  -6.447 -15.534  1.00  0.00     0.102 A
HETATM   12  C6  UNL     1      12.228  -5.779 -14.602  1.00  0.00     0.132 A
HETATM   13  C7  UNL     1      11.659  -6.491 -13.577  1.00  0.00     0.139 A
HETATM   14  C8  UNL     1      11.934  -7.854 -13.494  1.00  0.00     0.052 A
BRANCH  11  15
HETATM   15  O1  UNL     1      13.622  -5.695 -16.564  1.00  0.00    -0.358 OA
ATOM     16  H1  UNL     1      14.027  -6.115 -17.314  1.00  0.00     0.217 HD
ENDBRANCH  11  15
BRANCH  12  17
HETATM   17  O2  UNL     1      12.028  -4.428 -14.757  1.00  0.00    -0.356 OA
ATOM     18  H2  UNL     1      11.155  -4.082 -14.619  1.00  0.00     0.218 HD
ENDBRANCH  12  17
BRANCH  13  19
HETATM   19  N4  UNL     1      10.806  -5.931 -12.579  1.00  0.00    -0.113 N
HETATM   20  O3  UNL     1      10.192  -4.851 -12.796  1.00  0.00    -0.532 OA
HETATM   21  O4  UNL     1      10.612  -6.501 -11.379  1.00  0.00    -0.532 OA
ENDBRANCH  13  19
ENDBRANCH   7   9
ENDBRANCH   3   6
BRANCH   4  22
HETATM   22  C9  UNL     1      14.234 -14.414 -15.808  1.00  0.00     0.197 C
HETATM   23  C11 UNL     1      13.610 -15.846 -15.999  1.00  0.00     0.189 C
HETATM   24  N10 UNL     1      14.310 -15.791 -17.246  1.00  0.00    -0.141 NA
HETATM   25  N11 UNL     1      14.185 -14.405 -17.251  1.00  0.00    -0.106 NA
BRANCH  22  26
HETATM   26  C10 UNL     1      15.621 -14.571 -15.273  1.00  0.00     0.161 A
HETATM   27  N6  UNL     1      16.757 -14.030 -15.646  1.00  0.00    -0.269 N
HETATM   28  N7  UNL     1      17.715 -14.519 -14.890  1.00  0.00    -0.227 N
ATOM     29  H6  UNL     1      16.877 -13.348 -16.394  1.00  0.00     0.190 HD
HETATM   30  N8  UNL     1      17.187 -15.357 -14.038  1.00  0.00    -0.227 N
ATOM     31  H7  UNL     1      18.705 -14.282 -14.957  1.00  0.00     0.210 HD
HETATM   32  N9  UNL     1      15.906 -15.414 -14.242  1.00  0.00    -0.269 N
ATOM     33  H8  UNL     1      17.698 -15.882 -13.329  1.00  0.00     0.210 HD
ATOM     34  H9  UNL     1      15.236 -15.986 -13.726  1.00  0.00     0.190 HD
ENDBRANCH  22  26
ENDBRANCH   4  22
TORSDOF 7
ENDMDL