MODEL 5
REMARK VINA RESULT: -8.090577425      1.669      4.106
REMARK  9 active torsions:
REMARK  status: ('A' for Active; 'I' for Inactive)
REMARK    1  A    between atoms: N1_2  and  C2_3
REMARK    2  A    between atoms: N1_2  and  C8_16
REMARK    3  A    between atoms: C3_8  and  N4_9
REMARK    4  A    between atoms: C10_25  and  N9_26
REMARK    5  A    between atoms: N9_26  and  N10_28
REMARK    6  A    between atoms: N10_28  and  N11_30
REMARK    7  A    between atoms: N11_30  and  N12_32
REMARK    8  A    between atoms: N12_32  and  N13_34
REMARK    9  A    between atoms: N13_34  and  O2_36
ROOT
HETATM    1  C8  UNL     1      12.752 -10.201 -13.116  1.00  0.00     0.183 A
HETATM    2  N6  UNL     1      12.252  -9.579 -14.176  1.00  0.00    -0.278 N
ATOM      3  H6  UNL     1      11.471  -9.996 -14.682  1.00  0.00     0.189 HD
HETATM    4  N7  UNL     1      12.748  -8.442 -14.579  1.00  0.00    -0.250 N
ATOM      5  H7  UNL     1      12.355  -7.974 -15.395  1.00  0.00     0.192 HD
HETATM    6  C9  UNL     1      13.767  -7.891 -13.923  1.00  0.00     0.340 A
HETATM    7  O1  UNL     1      14.263  -6.801 -14.288  1.00  0.00    -0.245 OA
HETATM    8  N8  UNL     1      14.325  -8.473 -12.832  1.00  0.00    -0.289 N
ATOM      9  H8  UNL     1      15.107  -8.038 -12.342  1.00  0.00     0.172 HD
HETATM   10  C10 UNL     1      13.816  -9.632 -12.426  1.00  0.00     0.172 A
ENDROOT
BRANCH   1  11
HETATM   11  N1  UNL     1      12.199 -11.441 -12.724  1.00  0.00    -0.166 N
HETATM   12  C1  UNL     1      11.121 -11.436 -11.764  1.00  0.00     0.177 C
BRANCH  11  13
HETATM   13  C2  UNL     1      12.676 -12.660 -13.263  1.00  0.00     0.715 A
HETATM   14  N2  UNL     1      12.589 -13.894 -12.694  1.00  0.00    -0.117 N
HETATM   15  N3  UNL     1      13.152 -14.787 -13.476  1.00  0.00    -0.117 N
ATOM     16  H2  UNL     1      12.151 -14.096 -11.796  1.00  0.00     0.206 HD
HETATM   17  C3  UNL     1      13.627 -14.188 -14.575  1.00  0.00     0.709 A
ATOM     18  H3  UNL     1      13.218 -15.785 -13.276  1.00  0.00     0.206 HD
HETATM   19  N5  UNL     1      13.321 -12.871 -14.423  1.00  0.00    -0.019 N
ATOM     20  H5  UNL     1      13.550 -12.142 -15.098  1.00  0.00     0.203 HD
BRANCH  17  21
HETATM   21  N4  UNL     1      14.318 -14.792 -15.678  1.00  0.00    -0.216 N
HETATM   22  C4  UNL     1      15.506 -15.595 -15.650  1.00  0.00     0.141 C
HETATM   23  C5  UNL     1      15.519 -16.329 -16.963  1.00  0.00     0.022 C
HETATM   24  C6  UNL     1      14.850 -15.362 -17.910  1.00  0.00     0.022 C
HETATM   25  C7  UNL     1      13.864 -14.650 -17.049  1.00  0.00     0.141 C
ENDBRANCH  17  21
ENDBRANCH  11  13
ENDBRANCH   1  11
BRANCH  10  26
HETATM   26  N9  UNL     1      14.223 -10.291 -11.415  1.00  0.00    -0.266 N
ATOM     27  H9  UNL     1      14.661 -11.200 -11.570  1.00  0.00     0.190 HD
BRANCH  26  28
HETATM   28  N10 UNL     1      14.096  -9.829 -10.123  1.00  0.00    -0.225 N
ATOM     29  H10 UNL     1      14.313  -8.857  -9.900  1.00  0.00     0.210 HD
BRANCH  28  30
HETATM   30  N11 UNL     1      13.656 -10.727  -9.093  1.00  0.00    -0.212 N
ATOM     31  H11 UNL     1      12.681 -11.016  -9.008  1.00  0.00     0.211 HD
BRANCH  30  32
HETATM   32  N12 UNL     1      14.569 -11.147  -8.282  1.00  0.00    -0.207 N
ATOM     33  H12 UNL     1      14.724 -10.654  -7.402  1.00  0.00     0.212 HD
BRANCH  32  34
HETATM   34  N13 UNL     1      15.342 -12.260  -8.588  1.00  0.00    -0.194 N
ATOM     35  H13 UNL     1      15.432 -13.035  -7.932  1.00  0.00     0.217 HD
BRANCH  34  36
HETATM   36  O2  UNL     1      15.971 -12.281  -9.784  1.00  0.00    -0.273 OA
ATOM     37  H2  UNL     1      16.919 -12.219  -9.788  1.00  0.00     0.246 HD
ENDBRANCH  34  36
ENDBRANCH  32  34
ENDBRANCH  30  32
ENDBRANCH  28  30
ENDBRANCH  26  28
ENDBRANCH  10  26
TORSDOF 9
ENDMDL