MODEL 3
REMARK VINA RESULT: -7.488816882      2.316      7.349
REMARK  8 active torsions:
REMARK  status: ('A' for Active; 'I' for Inactive)
REMARK    1  A    between atoms: N1_1  and  C1_4
REMARK    2  A    between atoms: C4_10  and  N4_11
REMARK    3  A    between atoms: N4_11  and  N5_13
REMARK    4  A    between atoms: C7_20  and  C8_21
REMARK    5  A    between atoms: C8_21  and  N7_22
REMARK    6  A    between atoms: C8_21  and  N8_26
REMARK    7  A    between atoms: N9_31  and  C10_32
REMARK    8  A    between atoms: C11_34  and  N10_35
ROOT
HETATM    1  N5  UNL     1      13.842 -11.349 -14.185  1.00  0.00    -0.131 N
ATOM      2  H5  UNL     1      13.500 -10.927 -15.049  1.00  0.00     0.205 HD
HETATM    3  C5  UNL     1      14.242 -12.455 -14.514  1.00  0.00     0.708 A
HETATM    4  N6  UNL     1      14.135 -12.810 -15.847  1.00  0.00    -0.153 N
ATOM      5  H6  UNL     1      13.723 -12.140 -16.496  1.00  0.00     0.187 HD
HETATM    6  C6  UNL     1      14.546 -13.986 -16.322  1.00  0.00     0.271 A
HETATM    7  O1  UNL     1      14.442 -14.298 -17.551  1.00  0.00    -0.267 OA
HETATM    8  C7  UNL     1      15.109 -14.927 -15.488  1.00  0.00     0.084 A
HETATM    9  C9  UNL     1      15.217 -14.585 -14.168  1.00  0.00     0.134 A
HETATM   10  N9  UNL     1      14.790 -13.378 -13.711  1.00  0.00    -0.132 N
ENDROOT
BRANCH   1  11
HETATM   11  N4  UNL     1      13.638 -10.443 -13.266  1.00  0.00    -0.284 N
ATOM     12  H4  UNL     1      14.478 -10.113 -12.790  1.00  0.00     0.187 HD
BRANCH  11  13
HETATM   13  C4  UNL     1      12.426  -9.848 -12.830  1.00  0.00     0.088 A
HETATM   14  C3  UNL     1      12.168  -8.516 -13.025  1.00  0.00     0.079 A
HETATM   15  C2  UNL     1      10.966  -7.938 -12.591  1.00  0.00     0.120 A
HETATM   16  N2  UNL     1      10.062  -8.706 -11.974  1.00  0.00    -0.329 N
HETATM   17  N3  UNL     1      10.658  -6.563 -12.767  1.00  0.00    -0.083 NA
HETATM   18  C1  UNL     1      10.293 -10.038 -11.765  1.00  0.00     0.136 A
ATOM     19  H2  UNL     1       9.186  -8.292 -11.654  1.00  0.00     0.168 HD
HETATM   20  C11 UNL     1      11.490 -10.618 -12.197  1.00  0.00     0.174 A
BRANCH  18  21
HETATM   21  N1  UNL     1       9.423 -10.754 -11.178  1.00  0.00    -0.383 N
ATOM     22  H12 UNL     1       8.823 -11.370 -11.726  1.00  0.00     0.157 HD
ATOM     23  H11 UNL     1       9.323 -10.713 -10.164  1.00  0.00     0.157 HD
ENDBRANCH  18  21
BRANCH  20  24
HETATM   24  N10 UNL     1      11.645 -12.005 -11.946  1.00  0.00    -0.109 N
HETATM   25  O3  UNL     1      11.459 -12.854 -12.848  1.00  0.00    -0.532 OA
HETATM   26  O4  UNL     1      12.006 -12.454 -10.709  1.00  0.00    -0.532 OA
ENDBRANCH  20  24
ENDBRANCH  11  13
ENDBRANCH   1  11
BRANCH  10  27
HETATM   27  C10 UNL     1      14.958 -13.167 -12.331  1.00  0.00     0.376 C
HETATM   28  O2  UNL     1      15.666 -12.192 -11.885  1.00  0.00    -0.282 OA
ENDBRANCH  10  27
BRANCH   8  29
HETATM   29  C8  UNL     1      15.553 -16.239 -16.020  1.00  0.00     0.418 C
BRANCH  29  30
HETATM   30  N7  UNL     1      14.445 -16.942 -16.691  1.00  0.00    -0.046 N
ATOM     31  H73 UNL     1      13.538 -16.562 -16.417  1.00  0.00     0.277 HD
ATOM     32  H72 UNL     1      14.410 -16.724 -17.687  1.00  0.00     0.277 HD
ATOM     33  H71 UNL     1      14.496 -17.948 -16.528  1.00  0.00     0.277 HD
ENDBRANCH  29  30
BRANCH  29  34
HETATM   34  N8  UNL     1      16.553 -16.079 -17.065  1.00  0.00    -0.046 N
ATOM     35  H83 UNL     1      17.229 -15.353 -16.826  1.00  0.00     0.277 HD
ATOM     36  H82 UNL     1      17.186 -16.877 -17.102  1.00  0.00     0.277 HD
ATOM     37  H81 UNL     1      16.120 -15.902 -17.971  1.00  0.00     0.277 HD
ENDBRANCH  29  34
ENDBRANCH   8  29
TORSDOF 8
ENDMDL