MODEL 5
REMARK VINA RESULT: -7.230771815      3.655      5.214
REMARK  7 active torsions:
REMARK  status: ('A' for Active; 'I' for Inactive)
REMARK    1  A    between atoms: C2_2  and  O1_4
REMARK    2  A    between atoms: C2_2  and  C4_6
REMARK    3  A    between atoms: C4_6  and  N1_7
REMARK    4  A    between atoms: N1_7  and  C5_10
REMARK    5  A    between atoms: C5_10  and  C6_11
REMARK    6  A    between atoms: C7_16  and  N5_17
REMARK    7  A    between atoms: C8_18  and  O2_19
ROOT
HETATM    1  N5  UNL     1      13.471 -10.071 -14.229  1.00  0.00    -0.247 N
HETATM    2  C8  UNL     1      13.693  -9.585 -15.460  1.00  0.00     0.231 A
HETATM    3  N6  UNL     1      13.705  -8.235 -15.362  1.00  0.00    -0.316 N
ATOM      4  H6  UNL     1      13.852  -7.598 -16.145  1.00  0.00     0.169 HD
HETATM    5  C9  UNL     1      13.498  -7.854 -14.107  1.00  0.00     0.124 A
HETATM    6  C10 UNL     1      13.417  -6.635 -13.448  1.00  0.00     0.132 A
HETATM    7  N7  UNL     1      13.561  -5.562 -14.151  1.00  0.00    -0.383 N
ATOM      8  H71 UNL     1      13.502  -4.666 -13.668  1.00  0.00     0.157 HD
ATOM      9  H72 UNL     1      13.729  -5.571 -15.158  1.00  0.00     0.157 HD
HETATM   10  N8  UNL     1      13.196  -6.623 -12.122  1.00  0.00    -0.318 N
ATOM     11  H8  UNL     1      13.139  -5.721 -11.647  1.00  0.00     0.169 HD
HETATM   12  C11 UNL     1      13.049  -7.729 -11.398  1.00  0.00     0.191 A
HETATM   13  C12 UNL     1      12.816  -7.730  -9.980  1.00  0.00     0.137 C
HETATM   14  N9  UNL     1      12.648  -7.720  -8.842  1.00  0.00    -0.188 NA
HETATM   15  N10 UNL     1      13.129  -8.930 -12.053  1.00  0.00    -0.317 N
ATOM     16  H10 UNL     1      13.018  -9.787 -11.513  1.00  0.00     0.169 HD
HETATM   17  C13 UNL     1      13.346  -9.028 -13.368  1.00  0.00     0.149 A
ENDROOT
BRANCH   1  18
HETATM   18  C7  UNL     1      13.385 -11.458 -13.890  1.00  0.00     0.128 C
HETATM   19  C6  UNL     1      14.431 -12.515 -13.957  1.00  0.00     0.192 C
HETATM   20  N2  UNL     1      14.004 -13.352 -12.814  1.00  0.00    -0.112 NA
HETATM   21  N3  UNL     1      12.627 -13.423 -13.180  1.00  0.00    -0.029 NA
HETATM   22  N4  UNL     1      12.320 -12.061 -13.419  1.00  0.00    -0.274 N
ATOM     23  H4  UNL     1      11.416 -11.621 -13.251  1.00  0.00     0.185 HD
BRANCH  19  24
HETATM   24  C5  UNL     1      14.171 -13.289 -15.245  1.00  0.00     0.262 C
BRANCH  24  25
HETATM   25  N1  UNL     1      14.449 -14.689 -15.091  1.00  0.00    -0.070 N
ATOM     26  H12 UNL     1      13.691 -15.262 -15.460  1.00  0.00     0.277 HD
ATOM     27  H11 UNL     1      14.401 -14.974 -14.113  1.00  0.00     0.277 HD
BRANCH  25  28
HETATM   28  C4  UNL     1      15.700 -15.039 -15.675  1.00  0.00     0.269 C
BRANCH  28  29
HETATM   29  C2  UNL     1      15.539 -16.099 -16.750  1.00  0.00     0.074 C
HETATM   30  C1  UNL     1      14.692 -15.487 -17.860  1.00  0.00     0.047 C
HETATM   31  C3  UNL     1      14.947 -17.362 -16.219  1.00  0.00     0.047 C
BRANCH  29  32
HETATM   32  O1  UNL     1      16.796 -16.356 -17.270  1.00  0.00    -0.389 OA
ATOM     33  H1  UNL     1      17.436 -15.962 -16.690  1.00  0.00     0.210 HD
ENDBRANCH  29  32
ENDBRANCH  28  29
ENDBRANCH  25  28
ENDBRANCH  24  25
ENDBRANCH  19  24
ENDBRANCH   1  18
BRANCH   2  34
HETATM   34  O2  UNL     1      13.878 -10.328 -16.631  1.00  0.00    -0.332 OA
ATOM     35  H2  UNL     1      14.087 -11.253 -16.690  1.00  0.00     0.221 HD
ENDBRANCH   2  34
TORSDOF 7
ENDMDL