MODEL 2
REMARK VINA RESULT: -8.270752777      0.090      1.612
REMARK  9 active torsions:
REMARK  status: ('A' for Active; 'I' for Inactive)
REMARK    1  A    between atoms: N1_1  and  C1_4
REMARK    2  A    between atoms: C2_7  and  C3_8
REMARK    3  A    between atoms: C3_8  and  N3_10
REMARK    4  A    between atoms: N3_10  and  O1_12
REMARK    5  A    between atoms: O1_12  and  C4_13
REMARK    6  A    between atoms: C4_13  and  C5_14
REMARK    7  A    between atoms: N4_16  and  C7_17
REMARK    8  A    between atoms: C8_23  and  N7_24
REMARK    9  A    between atoms: C9_33  and  N11_34
ROOT
HETATM    1  N3  UNL     1      11.997 -12.784 -12.157  1.00  0.00    -0.252 N
ATOM      2  H3  UNL     1      11.598 -13.495 -11.544  1.00  0.00     0.195 HD
ENDROOT
BRANCH   1   3
HETATM    3  C3  UNL     1      13.402 -12.618 -12.224  1.00  0.00     0.166 C
HETATM    4  S1  UNL     1      14.161 -11.791 -11.067  1.00  0.00    -0.054 SA
BRANCH   3   5
HETATM    5  C2  UNL     1      14.198 -13.174 -13.312  1.00  0.00     0.176 A
HETATM    6  N2  UNL     1      15.273 -13.958 -13.116  1.00  0.00    -0.173 N
HETATM    7  C1  UNL     1      15.974 -14.444 -14.170  1.00  0.00     0.692 A
ATOM      8  H2  UNL     1      15.563 -14.189 -12.166  1.00  0.00     0.186 HD
HETATM    9  N12 UNL     1      15.590 -14.140 -15.431  1.00  0.00    -0.023 N
HETATM   10  C9  UNL     1      14.532 -13.368 -15.641  1.00  0.00     0.692 A
ATOM     11  H12 UNL     1      16.117 -14.505 -16.225  1.00  0.00     0.203 HD
HETATM   12  N10 UNL     1      13.847 -12.893 -14.572  1.00  0.00    -0.173 N
ATOM     13  H10 UNL     1      13.034 -12.300 -14.735  1.00  0.00     0.186 HD
BRANCH   7  14
HETATM   14  N1  UNL     1      17.011 -15.199 -14.026  1.00  0.00    -0.234 N
ATOM     15  H12 UNL     1      16.981 -15.910 -13.295  1.00  0.00     0.174 HD
ATOM     16  H11 UNL     1      17.842 -15.107 -14.610  1.00  0.00     0.174 HD
ENDBRANCH   7  14
BRANCH  10  17
HETATM   17  N11 UNL     1      14.162 -13.076 -16.821  1.00  0.00    -0.234 N
ATOM     18 2H11 UNL     1      14.744 -13.313 -17.624  1.00  0.00     0.174 HD
ATOM     19 1H11 UNL     1      13.275 -12.598 -16.979  1.00  0.00     0.174 HD
ENDBRANCH  10  17
ENDBRANCH   3   5
ENDBRANCH   1   3
BRANCH   1  20
HETATM   20  O1  UNL     1      11.185 -12.005 -12.901  1.00  0.00    -0.273 OA
BRANCH  20  21
HETATM   21  C4  UNL     1      10.512 -11.055 -12.150  1.00  0.00     0.261 C
BRANCH  21  22
HETATM   22  C5  UNL     1      10.879  -9.686 -12.563  1.00  0.00     0.070 A
HETATM   23  C6  UNL     1      11.730  -9.318 -13.584  1.00  0.00     0.148 A
HETATM   24  N4  UNL     1      11.807  -7.972 -13.646  1.00  0.00    -0.230 N
HETATM   25  N8  UNL     1      11.021  -7.524 -12.687  1.00  0.00    -0.234 N
HETATM   26  N9  UNL     1      10.455  -8.519 -12.025  1.00  0.00    -0.286 N
ATOM     27  H8  UNL     1      10.870  -6.536 -12.482  1.00  0.00     0.209 HD
ATOM     28  H9  UNL     1       9.809  -8.423 -11.242  1.00  0.00     0.188 HD
BRANCH  24  29
HETATM   29  C7  UNL     1      12.575  -7.199 -14.557  1.00  0.00     0.195 A
HETATM   30  N5  UNL     1      13.914  -7.089 -14.587  1.00  0.00    -0.220 N
HETATM   31  O2  UNL     1      14.233  -6.289 -15.568  1.00  0.00    -0.153 OA
ATOM     32  H5  UNL     1      14.567  -7.550 -13.953  1.00  0.00     0.198 HD
HETATM   33  N6  UNL     1      13.157  -5.871 -16.182  1.00  0.00    -0.222 N
HETATM   34  C8  UNL     1      12.095  -6.415 -15.585  1.00  0.00     0.169 A
ATOM     35  H6  UNL     1      13.133  -5.238 -16.982  1.00  0.00     0.198 HD
BRANCH  34  36
HETATM   36  N7  UNL     1      10.849  -6.226 -15.924  1.00  0.00    -0.381 N
ATOM     37  H72 UNL     1      10.040  -6.353 -15.316  1.00  0.00     0.157 HD
ATOM     38  H71 UNL     1      10.491  -5.930 -16.832  1.00  0.00     0.157 HD
ENDBRANCH  34  36
ENDBRANCH  24  29
ENDBRANCH  21  22
ENDBRANCH  20  21
ENDBRANCH   1  20
TORSDOF 9
ENDMDL