MODEL 4
REMARK VINA RESULT: -7.869191942      1.968      5.419
REMARK  6 active torsions:
REMARK  status: ('A' for Active; 'I' for Inactive)
REMARK    1  A    between atoms: C2_10  and  C3_11
REMARK    2  A    between atoms: N7_21  and  N8_23
REMARK    3  A    between atoms: N8_23  and  N9_25
REMARK    4  A    between atoms: N10_29  and  C8_30
REMARK    5  A    between atoms: C8_30  and  C9_31
REMARK    6  A    between atoms: C9_31  and  C10_32
ROOT
HETATM    1  C3  UNL     1      12.746  -9.617 -13.614  1.00  0.00     0.143 A
HETATM    2  N4  UNL     1      13.821  -9.149 -14.294  1.00  0.00    -0.324 N
ATOM      3  H4  UNL     1      14.701  -9.649 -14.413  1.00  0.00     0.169 HD
HETATM    4  C4  UNL     1      13.558  -7.951 -14.779  1.00  0.00     0.139 A
HETATM    5  N5  UNL     1      14.308  -7.082 -15.522  1.00  0.00    -0.337 N
ATOM      6  H5  UNL     1      15.259  -7.329 -15.793  1.00  0.00     0.168 HD
HETATM    7  C5  UNL     1      13.789  -5.902 -15.892  1.00  0.00     0.183 A
HETATM    8  N6  UNL     1      12.536  -5.602 -15.521  1.00  0.00    -0.336 N
ATOM      9  H6  UNL     1      12.150  -4.702 -15.807  1.00  0.00     0.168 HD
HETATM   10  C6  UNL     1      11.754  -6.434 -14.784  1.00  0.00     0.153 A
HETATM   11  N7  UNL     1      10.560  -6.095 -14.456  1.00  0.00    -0.269 N
ATOM     12  H7  UNL     1      10.005  -6.746 -13.902  1.00  0.00     0.190 HD
HETATM   13  C7  UNL     1      12.268  -7.658 -14.391  1.00  0.00     0.126 A
HETATM   14  N10 UNL     1      11.768  -8.702 -13.665  1.00  0.00    -0.325 N
ENDROOT
BRANCH  14  15
HETATM   15  C8  UNL     1      10.458  -8.785 -13.090  1.00  0.00     0.138 C
BRANCH  15  16
HETATM   16  C9  UNL     1      10.386  -8.259 -11.673  1.00  0.00     0.099 C
BRANCH  16  17
HETATM   17  C10 UNL     1       9.357  -8.946 -10.879  1.00  0.00     0.114 A
HETATM   18  N11 UNL     1       8.533  -8.459  -9.913  1.00  0.00    -0.272 N
HETATM   19  N12 UNL     1       7.766  -9.443  -9.472  1.00  0.00    -0.227 N
ATOM     20  H11 UNL     1       8.509  -7.494  -9.583  1.00  0.00     0.190 HD
HETATM   21  N13 UNL     1       8.066 -10.540 -10.118  1.00  0.00    -0.227 N
ATOM     22  H12 UNL     1       7.055  -9.360  -8.746  1.00  0.00     0.210 HD
HETATM   23  N14 UNL     1       9.037 -10.248 -10.982  1.00  0.00    -0.272 N
ATOM     24  H13 UNL     1       7.635 -11.454  -9.985  1.00  0.00     0.210 HD
ATOM     25  H14 UNL     1       9.471 -10.911 -11.624  1.00  0.00     0.190 HD
ENDBRANCH  16  17
ENDBRANCH  15  16
ENDBRANCH  14  15
BRANCH   1  26
HETATM   26  C2  UNL     1      12.763 -10.921 -12.968  1.00  0.00     0.146 A
HETATM   27  C1  UNL     1      12.881 -11.213 -11.630  1.00  0.00     0.154 A
HETATM   28  N1  UNL     1      13.005 -10.440 -10.617  1.00  0.00    -0.382 N
HETATM   29  N2  UNL     1      12.847 -12.580 -11.498  1.00  0.00    -0.224 N
ATOM     30  H12 UNL     1      13.093 -10.657  -9.624  1.00  0.00     0.157 HD
ATOM     31  H11 UNL     1      13.031  -9.425 -10.714  1.00  0.00     0.157 HD
HETATM   32  O1  UNL     1      12.716 -13.067 -12.693  1.00  0.00    -0.155 OA
ATOM     33  H2  UNL     1      12.912 -13.109 -10.629  1.00  0.00     0.198 HD
HETATM   34  N3  UNL     1      12.665 -12.104 -13.567  1.00  0.00    -0.234 N
ATOM     35  H3  UNL     1      12.563 -12.238 -14.574  1.00  0.00     0.197 HD
ENDBRANCH   1  26
BRANCH  11  36
HETATM   36  N8  UNL     1       9.989  -4.886 -14.819  1.00  0.00    -0.248 N
ATOM     37  H8  UNL     1      10.177  -4.065 -14.242  1.00  0.00     0.207 HD
BRANCH  36  38
HETATM   38  N9  UNL     1       9.166  -4.741 -15.940  1.00  0.00    -0.331 N
ATOM     39  H92 UNL     1       9.593  -4.869 -16.858  1.00  0.00     0.178 HD
ATOM     40  H91 UNL     1       8.173  -4.516 -15.874  1.00  0.00     0.178 HD
ENDBRANCH  36  38
ENDBRANCH  11  36
TORSDOF 6
ENDMDL