MODEL 1
REMARK VINA RESULT: -7.895983598      0.000      0.000
REMARK  10 active torsions:
REMARK  status: ('A' for Active; 'I' for Inactive)
REMARK    1  A    between atoms: N1_1  and  C1_4
REMARK    2  A    between atoms: C2_8  and  N4_9
REMARK    3  A    between atoms: C4_18  and  N8_19
REMARK    4  A    between atoms: N8_19  and  N9_20
REMARK    5  A    between atoms: C5_25  and  C6_26
REMARK    6  A    between atoms: C6_26  and  C7_27
REMARK    7  A    between atoms: C7_27  and  S1_28
REMARK    8  A    between atoms: S1_28  and  C8_29
REMARK    9  A    between atoms: C8_29  and  C9_30
REMARK   10  A    between atoms: C9_30  and  O1_31
ROOT
HETATM    1  C1  UNL     1      12.780  -9.612 -14.009  1.00  0.00     0.145 A
HETATM    2  N2  UNL     1      12.158  -8.545 -13.494  1.00  0.00    -0.246 N
ATOM      3  H2  UNL     1      12.261  -7.635 -13.943  1.00  0.00     0.191 HD
HETATM    4  N3  UNL     1      11.412  -8.661 -12.412  1.00  0.00     0.006 N
HETATM    5  C2  UNL     1      10.691  -7.740 -11.712  1.00  0.00     0.730 A
HETATM    6  N5  UNL     1      10.118  -8.399 -10.692  1.00  0.00    -0.113 N
ATOM      7  H5  UNL     1       9.513  -7.984  -9.984  1.00  0.00     0.207 HD
HETATM    8  N6  UNL     1      10.463  -9.659 -10.755  1.00  0.00    -0.204 N
ATOM      9  H6  UNL     1      10.169 -10.388 -10.104  1.00  0.00     0.211 HD
HETATM   10  N7  UNL     1      11.249  -9.833 -11.796  1.00  0.00    -0.138 N
HETATM   11  C3  UNL     1      11.846 -10.943 -12.261  1.00  0.00     0.169 A
HETATM   12  C4  UNL     1      11.643 -12.160 -11.574  1.00  0.00     0.237 A
HETATM   13  N10 UNL     1      12.315 -13.222 -12.162  1.00  0.00    -0.317 N
ATOM     14  H10 UNL     1      12.222 -14.141 -11.729  1.00  0.00     0.170 HD
HETATM   15  C5  UNL     1      13.066 -13.126 -13.243  1.00  0.00     0.084 A
HETATM   16  N11 UNL     1      13.219 -11.948 -13.849  1.00  0.00    -0.341 N
ATOM     17  H11 UNL     1      13.801 -11.888 -14.684  1.00  0.00     0.167 HD
HETATM   18  C10 UNL     1      12.623 -10.838 -13.383  1.00  0.00     0.115 A
ENDROOT
BRANCH  15  19
HETATM   19  C6  UNL     1      13.722 -14.374 -13.742  1.00  0.00     0.087 C
BRANCH  19  20
HETATM   20  C7  UNL     1      15.207 -14.359 -13.484  1.00  0.00     0.081 C
BRANCH  20  21
HETATM   21  S1  UNL     1      16.011 -14.780 -15.080  1.00  0.00    -0.167 SA
BRANCH  21  22
HETATM   22  C8  UNL     1      14.760 -15.476 -16.203  1.00  0.00     0.099 C
BRANCH  22  23
HETATM   23  C9  UNL     1      15.350 -16.569 -17.059  1.00  0.00     0.174 C
BRANCH  23  24
HETATM   24  O1  UNL     1      16.734 -16.409 -17.128  1.00  0.00    -0.400 OA
ATOM     25  H1  UNL     1      17.158 -17.241 -16.955  1.00  0.00     0.209 HD
ENDBRANCH  23  24
ENDBRANCH  22  23
ENDBRANCH  21  22
ENDBRANCH  20  21
ENDBRANCH  19  20
ENDBRANCH  15  19
BRANCH  12  26
HETATM   26  N8  UNL     1      10.978 -12.305 -10.596  1.00  0.00    -0.312 NA
BRANCH  26  27
HETATM   27  N9  UNL     1      10.274 -12.459  -9.563  1.00  0.00    -0.278 N
ATOM     28  H92 UNL     1      10.882 -12.352 -10.374  1.00  0.00     0.191 HD
ATOM     29  H91 UNL     1       9.703 -12.585  -8.726  1.00  0.00     0.191 HD
ENDBRANCH  26  27
ENDBRANCH  12  26
BRANCH   1  30
HETATM   30  N1  UNL     1      13.503  -9.508 -15.056  1.00  0.00    -0.382 N
ATOM     31  H12 UNL     1      14.257  -8.822 -15.098  1.00  0.00     0.157 HD
ATOM     32  H11 UNL     1      13.343 -10.107 -15.865  1.00  0.00     0.157 HD
ENDBRANCH   1  30
BRANCH   5  33
HETATM   33  N4  UNL     1      10.553  -6.492 -11.936  1.00  0.00    -0.230 N
ATOM     34  H42 UNL     1      11.298  -5.878 -12.266  1.00  0.00     0.174 HD
ATOM     35  H41 UNL     1       9.723  -5.911 -11.831  1.00  0.00     0.174 HD
ENDBRANCH   5  33
TORSDOF 10
ENDMDL