MODEL 5
REMARK VINA RESULT: -7.608536243      1.773      6.616
REMARK  7 active torsions:
REMARK  status: ('A' for Active; 'I' for Inactive)
REMARK    1  A    between atoms: N1_1  and  C1_4
REMARK    2  A    between atoms: C3_11  and  C4_12
REMARK    3  A    between atoms: C4_12  and  O2_13
REMARK    4  A    between atoms: C5_15  and  C6_16
REMARK    5  A    between atoms: C8_21  and  N5_22
REMARK    6  A    between atoms: N5_22  and  O4_24
REMARK    7  A    between atoms: C9_26  and  C10_27
ROOT
HETATM    1  C6  UNL     1      13.324 -11.484 -13.301  1.00  0.00     0.124 A
HETATM    2  N4  UNL     1      14.083 -11.916 -12.224  1.00  0.00    -0.307 N
ATOM      3  H4  UNL     1      13.971 -11.427 -11.336  1.00  0.00     0.170 HD
HETATM    4  C7  UNL     1      14.943 -12.921 -12.273  1.00  0.00     0.278 A
HETATM    5  O3  UNL     1      15.629 -13.314 -11.298  1.00  0.00    -0.265 OA
HETATM    6  C8  UNL     1      15.126 -13.612 -13.465  1.00  0.00     0.152 A
HETATM    7  C9  UNL     1      14.392 -13.209 -14.551  1.00  0.00     0.115 A
HETATM    8  N10 UNL     1      13.528 -12.161 -14.405  1.00  0.00    -0.336 N
ATOM      9  H10 UNL     1      12.995 -11.880 -15.228  1.00  0.00     0.168 HD
ENDROOT
BRANCH   1  10
HETATM   10  C5  UNL     1      12.370 -10.412 -13.042  1.00  0.00     0.076 A
HETATM   11  C1  UNL     1      12.767  -9.112 -13.428  1.00  0.00     0.118 A
HETATM   12  N2  UNL     1      12.038  -8.026 -13.187  1.00  0.00    -0.294 N
HETATM   13  C2  UNL     1      10.880  -8.166 -12.553  1.00  0.00     0.326 A
ATOM     14  H2  UNL     1      12.361  -7.105 -13.484  1.00  0.00     0.172 HD
HETATM   15  O1  UNL     1      10.181  -7.131 -12.322  1.00  0.00    -0.247 OA
HETATM   16  N3  UNL     1      10.465  -9.377 -12.170  1.00  0.00    -0.309 N
HETATM   17  C3  UNL     1      11.181 -10.523 -12.395  1.00  0.00     0.054 A
ATOM     18  H3  UNL     1       9.569  -9.452 -11.687  1.00  0.00     0.170 HD
BRANCH  11  19
HETATM   19  N1  UNL     1      13.905  -9.023 -14.053  1.00  0.00    -0.385 N
ATOM     20  H12 UNL     1      14.603  -9.729 -13.815  1.00  0.00     0.157 HD
ATOM     21  H11 UNL     1      14.066  -8.288 -14.742  1.00  0.00     0.157 HD
ENDBRANCH  11  19
BRANCH  17  22
HETATM   22  C4  UNL     1      10.639 -11.813 -11.939  1.00  0.00     0.222 C
BRANCH  22  23
HETATM   23  O2  UNL     1      11.302 -12.150 -10.721  1.00  0.00    -0.395 OA
ATOM     24  H2  UNL     1      11.615 -11.341 -10.332  1.00  0.00     0.209 HD
ENDBRANCH  22  23
ENDBRANCH  17  22
ENDBRANCH   1  10
BRANCH   7  25
HETATM   25  C10 UNL     1      14.520 -13.877 -15.840  1.00  0.00     0.161 A
HETATM   26  N6  UNL     1      14.129 -13.400 -17.033  1.00  0.00    -0.268 N
HETATM   27  N7  UNL     1      14.415 -14.303 -17.982  1.00  0.00    -0.007 NA
ATOM     28  H6  UNL     1      13.686 -12.495 -17.192  1.00  0.00     0.185 HD
HETATM   29  N8  UNL     1      14.982 -15.344 -17.395  1.00  0.00    -0.007 NA
HETATM   30  N9  UNL     1      15.047 -15.083 -16.083  1.00  0.00    -0.268 N
ATOM     31  H9  UNL     1      15.437 -15.707 -15.378  1.00  0.00     0.185 HD
ENDBRANCH   7  25
BRANCH   6  32
HETATM   32  N5  UNL     1      16.038 -14.689 -13.536  1.00  0.00    -0.262 N
ATOM     33  H5  UNL     1      15.719 -15.632 -13.318  1.00  0.00     0.194 HD
BRANCH  32  34
HETATM   34  O4  UNL     1      17.214 -14.505 -13.857  1.00  0.00    -0.289 OA
ATOM     35  H4  UNL     1      17.862 -15.191 -13.754  1.00  0.00     0.244 HD
ENDBRANCH  32  34
ENDBRANCH   6  32
TORSDOF 7
ENDMDL