MODEL 1
REMARK VINA RESULT: -8.633171762      0.000      0.000
REMARK  9 active torsions:
REMARK  status: ('A' for Active; 'I' for Inactive)
REMARK    1  A    between atoms: C2_2  and  C3_3
REMARK    2  A    between atoms: C3_3  and  O1_4
REMARK    3  A    between atoms: N1_7  and  C5_8
REMARK    4  A    between atoms: C6_11  and  N3_12
REMARK    5  A    between atoms: C7_15  and  N4_16
REMARK    6  A    between atoms: N4_16  and  N5_18
REMARK    7  A    between atoms: C8_21  and  N6_22
REMARK    8  A    between atoms: N6_22  and  C9_24
REMARK    9  A    between atoms: C9_24  and  C10_25
ROOT
HETATM    1  C5  UNL     1      13.192 -12.581 -13.116  1.00  0.00     0.683 A
HETATM    2  N2  UNL     1      12.573 -12.993 -12.000  1.00  0.00    -0.175 N
ATOM      3  H2  UNL     1      12.803 -13.906 -11.606  1.00  0.00     0.186 HD
HETATM    4  C6  UNL     1      11.653 -12.224 -11.392  1.00  0.00     0.146 A
HETATM    5  C7  UNL     1      11.302 -10.962 -11.894  1.00  0.00     0.136 A
HETATM    6  C8  UNL     1      11.948 -10.552 -13.044  1.00  0.00     0.149 A
HETATM    7  N11 UNL     1      12.879 -11.385 -13.618  1.00  0.00    -0.174 N
ATOM      8  H11 UNL     1      13.352 -11.075 -14.466  1.00  0.00     0.186 HD
ENDROOT
BRANCH   6   9
HETATM    9  N6  UNL     1      11.673  -9.306 -13.641  1.00  0.00    -0.367 N
ATOM     10  H6  UNL     1      10.911  -9.203 -14.311  1.00  0.00     0.161 HD
BRANCH   9  11
HETATM   11  C9  UNL     1      12.511  -8.165 -13.275  1.00  0.00     0.200 C
BRANCH  11  12
HETATM   12  C10 UNL     1      12.916  -7.357 -14.436  1.00  0.00     0.131 A
HETATM   13  N7  UNL     1      12.112  -6.862 -15.364  1.00  0.00    -0.271 N
HETATM   14  N8  UNL     1      12.851  -6.177 -16.251  1.00  0.00    -0.227 N
ATOM     15  H7  UNL     1      11.099  -6.982 -15.399  1.00  0.00     0.190 HD
HETATM   16  N9  UNL     1      14.105  -6.250 -15.868  1.00  0.00    -0.227 N
ATOM     17  H8  UNL     1      12.501  -5.688 -17.075  1.00  0.00     0.210 HD
HETATM   18  N10 UNL     1      14.181  -6.960 -14.767  1.00  0.00    -0.271 N
ATOM     19  H9  UNL     1      14.896  -5.822 -16.349  1.00  0.00     0.210 HD
ATOM     20  H10 UNL     1      15.033  -7.178 -14.251  1.00  0.00     0.190 HD
ENDBRANCH  11  12
ENDBRANCH   9  11
ENDBRANCH   6   9
BRANCH   5  21
HETATM   21  N4  UNL     1      10.334 -10.233 -11.196  1.00  0.00    -0.301 N
ATOM     22  H4  UNL     1      10.703  -9.685 -10.419  1.00  0.00     0.186 HD
BRANCH  21  23
HETATM   23  N5  UNL     1       8.979 -10.123 -11.367  1.00  0.00    -0.344 N
ATOM     24  H52 UNL     1       8.715  -9.321 -11.939  1.00  0.00     0.176 HD
ATOM     25  H51 UNL     1       8.206 -10.694 -11.027  1.00  0.00     0.176 HD
ENDBRANCH  21  23
ENDBRANCH   5  21
BRANCH   4  26
HETATM   26  N3  UNL     1      11.073 -12.637 -10.324  1.00  0.00    -0.383 N
ATOM     27  H32 UNL     1      11.333 -13.552  -9.956  1.00  0.00     0.157 HD
ATOM     28  H31 UNL     1      10.372 -12.055  -9.866  1.00  0.00     0.157 HD
ENDBRANCH   4  26
BRANCH   1  29
HETATM   29  N1  UNL     1      14.135 -13.404 -13.743  1.00  0.00    -0.213 N
HETATM   30  C4  UNL     1      13.846 -14.386 -14.767  1.00  0.00     0.181 C
HETATM   31  C2  UNL     1      14.897 -14.533 -15.810  1.00  0.00     0.095 C
HETATM   32  C1  UNL     1      14.637 -13.547 -16.958  1.00  0.00     0.050 C
HETATM   33  O2  UNL     1      16.175 -14.324 -15.331  1.00  0.00    -0.375 OA
HETATM   34  C12 UNL     1      16.190 -14.552 -13.961  1.00  0.00     0.189 C
HETATM   35  C11 UNL     1      15.555 -13.296 -13.345  1.00  0.00     0.167 C
BRANCH  31  36
HETATM   36  C3  UNL     1      14.875 -15.944 -16.413  1.00  0.00     0.203 C
BRANCH  36  37
HETATM   37  O1  UNL     1      16.175 -16.242 -16.868  1.00  0.00    -0.398 OA
ATOM     38  H1  UNL     1      16.180 -17.142 -17.171  1.00  0.00     0.209 HD
ENDBRANCH  36  37
ENDBRANCH  31  36
ENDBRANCH   1  29
TORSDOF 9
ENDMDL