MODEL 5
REMARK VINA RESULT: -8.307516576      2.160      3.235
REMARK  9 active torsions:
REMARK  status: ('A' for Active; 'I' for Inactive)
REMARK    1  A    between atoms: N1_1  and  C1_4
REMARK    2  A    between atoms: C2_7  and  N3_8
REMARK    3  A    between atoms: N6_16  and  C4_17
REMARK    4  A    between atoms: C4_17  and  C5_18
REMARK    5  A    between atoms: C5_18  and  O1_19
REMARK    6  A    between atoms: C5_18  and  C6_21
REMARK    7  A    between atoms: C6_21  and  N7_22
REMARK    8  A    between atoms: C7_25  and  N9_26
REMARK    9  A    between atoms: C8_31  and  N11_32
ROOT
HETATM    1  C1  UNL     1      11.302  -8.811 -12.560  1.00  0.00     0.679 A
HETATM    2  N2  UNL     1      10.201  -8.462 -11.851  1.00  0.00    -0.175 N
ATOM      3  H2  UNL     1       9.792  -7.538 -11.986  1.00  0.00     0.186 HD
HETATM    4  C2  UNL     1       9.640  -9.311 -10.972  1.00  0.00     0.147 A
HETATM    5  C3  UNL     1      10.251 -10.548 -10.841  1.00  0.00     0.140 A
HETATM    6  N4  UNL     1       9.976 -11.601 -10.087  1.00  0.00    -0.279 N
ATOM      7  H4  UNL     1       9.199 -11.665  -9.430  1.00  0.00     0.189 HD
HETATM    8  N5  UNL     1      10.858 -12.554 -10.313  1.00  0.00    -0.238 N
ATOM      9  H5  UNL     1      10.862 -13.464  -9.853  1.00  0.00     0.208 HD
HETATM   10  N6  UNL     1      11.723 -12.170 -11.203  1.00  0.00    -0.257 N
HETATM   11  C9  UNL     1      11.372 -10.902 -11.562  1.00  0.00     0.171 A
HETATM   12  N12 UNL     1      11.901 -10.010 -12.436  1.00  0.00    -0.173 N
ATOM     13  H12 UNL     1      12.728 -10.242 -12.985  1.00  0.00     0.186 HD
ENDROOT
BRANCH  10  14
HETATM   14  C4  UNL     1      12.862 -12.851 -11.781  1.00  0.00     0.185 C
BRANCH  14  15
HETATM   15  C5  UNL     1      12.733 -13.085 -13.247  1.00  0.00     0.158 C
BRANCH  15  16
HETATM   16  O1  UNL     1      12.327 -14.368 -13.517  1.00  0.00    -0.392 OA
ATOM     17  H1  UNL     1      11.797 -14.720 -12.812  1.00  0.00     0.210 HD
ENDBRANCH  15  16
BRANCH  15  18
HETATM   18  C6  UNL     1      13.909 -12.663 -14.074  1.00  0.00     0.201 C
BRANCH  18  19
HETATM   19  N7  UNL     1      14.563 -13.758 -14.750  1.00  0.00    -0.119 N
HETATM   20  N8  UNL     1      14.345 -14.181 -15.966  1.00  0.00    -0.249 N
HETATM   21  C7  UNL     1      15.119 -15.215 -16.295  1.00  0.00     0.279 A
ATOM     22  H8  UNL     1      13.659 -13.765 -16.595  1.00  0.00     0.191 HD
HETATM   23  N10 UNL     1      15.890 -15.475 -15.205  1.00  0.00    -0.153 N
HETATM   24  C8  UNL     1      15.541 -14.579 -14.269  1.00  0.00     0.695 A
ATOM     25  H10 UNL     1      16.595 -16.206 -15.117  1.00  0.00     0.187 HD
BRANCH  21  26
HETATM   26  N9  UNL     1      15.151 -15.926 -17.534  1.00  0.00    -0.077 N
HETATM   27  O2  UNL     1      14.179 -15.986 -18.286  1.00  0.00    -0.529 OA
HETATM   28  O3  UNL     1      16.311 -16.556 -17.881  1.00  0.00    -0.529 OA
ENDBRANCH  21  26
BRANCH  24  29
HETATM   29  N11 UNL     1      16.045 -14.487 -13.079  1.00  0.00    -0.233 N
ATOM     30 2H11 UNL     1      15.718 -13.869 -12.337  1.00  0.00     0.174 HD
ATOM     31 1H11 UNL     1      16.839 -15.036 -12.751  1.00  0.00     0.174 HD
ENDBRANCH  24  29
ENDBRANCH  18  19
ENDBRANCH  15  18
ENDBRANCH  14  15
ENDBRANCH  10  14
BRANCH   4  32
HETATM   32  N3  UNL     1       8.591  -8.963 -10.307  1.00  0.00    -0.383 N
ATOM     33  H32 UNL     1       8.259  -8.000 -10.246  1.00  0.00     0.157 HD
ATOM     34  H31 UNL     1       8.045  -9.661  -9.803  1.00  0.00     0.157 HD
ENDBRANCH   4  32
BRANCH   1  35
HETATM   35  N1  UNL     1      11.783  -7.946 -13.381  1.00  0.00    -0.234 N
ATOM     36  H12 UNL     1      12.072  -7.032 -13.035  1.00  0.00     0.174 HD
ATOM     37  H11 UNL     1      11.857  -8.215 -14.363  1.00  0.00     0.174 HD
ENDBRANCH   1  35
TORSDOF 9
ENDMDL