MODEL 4
REMARK VINA RESULT: -6.994504199      2.291      5.745
REMARK  9 active torsions:
REMARK  status: ('A' for Active; 'I' for Inactive)
REMARK    1  A    between atoms: N3_7  and  C3_8
REMARK    2  A    between atoms: C3_8  and  C4_9
REMARK    3  A    between atoms: C4_9  and  C5_10
REMARK    4  A    between atoms: C5_10  and  C6_11
REMARK    5  A    between atoms: C7_12  and  C8_13
REMARK    6  A    between atoms: C8_13  and  O2_14
REMARK    7  A    between atoms: C8_13  and  O3_16
REMARK    8  A    between atoms: C11_29  and  N8_30
REMARK    9  A    between atoms: N8_30  and  N9_32
ROOT
HETATM    1  C6  UNL     1      12.720 -10.525 -12.753  1.00  0.00     0.081 A
HETATM    2  C7  UNL     1      11.872 -10.402 -11.673  1.00  0.00     0.105 A
HETATM    3  N4  UNL     1      11.200  -9.231 -11.886  1.00  0.00    -0.187 N
ATOM      4  H4  UNL     1      10.492  -8.854 -11.255  1.00  0.00     0.184 HD
HETATM    5  C9  UNL     1      11.582  -8.644 -13.017  1.00  0.00     0.718 A
HETATM    6  N5  UNL     1      11.148  -7.487 -13.581  1.00  0.00    -0.021 N
ATOM      7  H5  UNL     1      10.433  -6.926 -13.119  1.00  0.00     0.203 HD
HETATM    8  C10 UNL     1      11.665  -7.090 -14.750  1.00  0.00     0.705 A
HETATM    9  N6  UNL     1      11.261  -5.987 -15.303  1.00  0.00    -0.234 N
ATOM     10  H61 UNL     1      11.656  -5.683 -16.194  1.00  0.00     0.174 HD
ATOM     11  H62 UNL     1      10.551  -5.388 -14.883  1.00  0.00     0.174 HD
HETATM   12  N7  UNL     1      12.593  -7.871 -15.299  1.00  0.00    -0.020 N
ATOM     13  H7  UNL     1      12.996  -7.581 -16.191  1.00  0.00     0.203 HD
HETATM   14  C11 UNL     1      13.041  -9.035 -14.743  1.00  0.00     0.732 A
HETATM   15  N10 UNL     1      12.521  -9.437 -13.561  1.00  0.00     0.023 N
ENDROOT
BRANCH   1  16
HETATM   16  C5  UNL     1      13.648 -11.608 -12.981  1.00  0.00     0.063 C
BRANCH  16  17
HETATM   17  C4  UNL     1      13.157 -12.825 -13.714  1.00  0.00     0.027 C
BRANCH  17  18
HETATM   18  C3  UNL     1      13.674 -14.141 -13.220  1.00  0.00     0.149 C
BRANCH  18  19
HETATM   19  N3  UNL     1      14.986 -14.439 -13.756  1.00  0.00    -0.255 N
HETATM   20  C2  UNL     1      15.357 -14.840 -14.984  1.00  0.00     0.115 A
HETATM   21  C1  UNL     1      14.441 -15.076 -16.112  1.00  0.00     0.092 C
HETATM   22  N1  UNL     1      16.686 -14.977 -14.976  1.00  0.00    -0.231 N
HETATM   23  O1  UNL     1      17.111 -14.673 -13.793  1.00  0.00    -0.141 OA
ATOM     24  H1  UNL     1      17.263 -15.270 -15.764  1.00  0.00     0.197 HD
HETATM   25  N2  UNL     1      16.105 -14.351 -13.060  1.00  0.00     0.051 NA
ENDBRANCH  18  19
ENDBRANCH  17  18
ENDBRANCH  16  17
ENDBRANCH   1  16
BRANCH   2  26
HETATM   26  C8  UNL     1      11.572 -11.216 -10.505  1.00  0.00     0.307 C
BRANCH  26  27
HETATM   27  O2  UNL     1      11.309 -12.527 -10.641  1.00  0.00    -0.366 OA
ATOM     28  H2  UNL     1      12.015 -13.145 -10.792  1.00  0.00     0.213 HD
ENDBRANCH  26  27
BRANCH  26  29
HETATM   29  O3  UNL     1      12.561 -10.965  -9.517  1.00  0.00    -0.366 OA
ATOM     30  H3  UNL     1      13.191 -11.676  -9.536  1.00  0.00     0.213 HD
ENDBRANCH  26  29
ENDBRANCH   2  26
BRANCH  14  31
HETATM   31  N8  UNL     1      13.908  -9.739 -15.352  1.00  0.00    -0.137 N
ATOM     32  H8  UNL     1      14.712 -10.053 -14.807  1.00  0.00     0.205 HD
BRANCH  31  33
HETATM   33  N9  UNL     1      13.865 -10.116 -16.672  1.00  0.00    -0.331 N
ATOM     34  H92 UNL     1      13.013  -9.870 -17.176  1.00  0.00     0.177 HD
ATOM     35  H91 UNL     1      14.598 -10.611 -17.181  1.00  0.00     0.177 HD
ENDBRANCH  31  33
ENDBRANCH  14  31
TORSDOF 9
ENDMDL