MODEL 3
REMARK VINA RESULT: -6.485813439      1.735      2.638
REMARK  0 active torsions:
REMARK  status: ('A' for Active; 'I' for Inactive)
ROOT
HETATM    1  O1  UNL     1      13.083  -9.371  41.584  1.00  0.00    -0.247 OA
HETATM    2  C1  UNL     1      11.957  -9.514  41.023  1.00  0.00     0.328 A
HETATM    3  N1  UNL     1      11.755 -10.620  40.285  1.00  0.00    -0.273 N
ATOM      4  H1  UNL     1      12.481 -11.326  40.175  1.00  0.00     0.173 HD
HETATM    5  C2  UNL     1      10.552 -10.753  39.697  1.00  0.00     0.280 A
HETATM    6  O2  UNL     1      10.360 -11.783  39.008  1.00  0.00    -0.265 OA
HETATM    7  C3  UNL     1       9.541  -9.829  39.816  1.00  0.00     0.146 A
HETATM    8  N2  UNL     1       8.285  -9.709  39.356  1.00  0.00    -0.345 N
ATOM      9  H2  UNL     1       7.819 -10.389  38.757  1.00  0.00     0.167 HD
HETATM   10  C4  UNL     1       7.725  -8.560  39.797  1.00  0.00     0.182 A
HETATM   11  N3  UNL     1       8.656  -7.949  40.552  1.00  0.00    -0.336 N
ATOM     12  H3  UNL     1       8.532  -7.056  41.027  1.00  0.00     0.168 HD
HETATM   13  C5  UNL     1       9.778  -8.696  40.586  1.00  0.00     0.143 A
HETATM   14  N4  UNL     1      10.985  -8.593  41.157  1.00  0.00    -0.292 N
ATOM     15  H4  UNL     1      11.178  -7.769  41.726  1.00  0.00     0.172 HD
ENDROOT
TORSDOF 0
ENDMDL