MODEL 5
REMARK VINA RESULT: -5.195045108      2.350      2.693
REMARK  3 active torsions:
REMARK  status: ('A' for Active; 'I' for Inactive)
REMARK       I    between atoms: N1_2  and  C2_4
REMARK    1  A    between atoms: N3_6  and  O1_8
REMARK    2  A    between atoms: O1_8  and  C3_9
REMARK       I    between atoms: C3_9  and  N4_11
REMARK    3  A    between atoms: N4_11  and  N5_13
ROOT
HETATM    1  O1  UNL     1       8.185 -11.117  38.954  1.00  0.00    -0.177 OA
ENDROOT
BRANCH   1   2
HETATM    2  N3  UNL     1       7.329 -10.065  39.147  1.00  0.00    -0.228 N
HETATM    3  C2  UNL     1       6.686 -10.018  40.270  1.00  0.00     0.208 C
HETATM    4  N1  UNL     1       6.843 -10.999  41.271  1.00  0.00    -0.367 N
HETATM    5  N2  UNL     1       5.806  -8.897  40.414  1.00  0.00    -0.062 NA
HETATM    6  C1  UNL     1       6.700 -10.712  42.681  1.00  0.00     0.148 C
ATOM      7  H1  UNL     1       7.068 -11.952  40.988  1.00  0.00     0.161 HD
ATOM      8  H3  UNL     1       7.202  -9.346  38.434  1.00  0.00     0.198 HD
ENDBRANCH   1   2
BRANCH   1   9
HETATM    9  C3  UNL     1       9.529 -10.911  39.167  1.00  0.00     0.401 C
HETATM   10  O2  UNL     1      10.177 -10.196  38.379  1.00  0.00    -0.235 OA
HETATM   11  N4  UNL     1      10.166 -11.509  40.274  1.00  0.00    -0.250 N
ATOM     12  H4  UNL     1       9.638 -12.094  40.921  1.00  0.00     0.191 HD
BRANCH  11  13
HETATM   13  N5  UNL     1      11.544 -11.287  40.475  1.00  0.00    -0.341 N
ATOM     14  H52 UNL     1      12.087 -10.814  39.753  1.00  0.00     0.177 HD
ATOM     15  H51 UNL     1      11.977 -11.605  41.343  1.00  0.00     0.177 HD
ENDBRANCH  11  13
ENDBRANCH   1   9
TORSDOF 3
ENDMDL