MODEL 3
REMARK VINA RESULT: -6.837777573      1.715      2.808
REMARK  1 active torsions:
REMARK  status: ('A' for Active; 'I' for Inactive)
REMARK    1  A    between atoms: N1_1  and  C1_4
ROOT
HETATM    1  C1  UNL     1       8.034 -10.678  39.431  1.00  0.00     0.144 A
HETATM    2  N2  UNL     1       8.718 -11.810  39.190  1.00  0.00    -0.281 N
ATOM      3  H2  UNL     1       8.234 -12.628  38.820  1.00  0.00     0.188 HD
HETATM    4  N3  UNL     1      10.018 -11.868  39.432  1.00  0.00    -0.263 N
ATOM      5  H3  UNL     1      10.509 -12.741  39.241  1.00  0.00     0.190 HD
HETATM    6  C2  UNL     1      10.718 -10.839  39.916  1.00  0.00     0.290 A
HETATM    7  O1  UNL     1      11.956 -10.899  40.144  1.00  0.00    -0.264 OA
HETATM    8  C3  UNL     1      10.092  -9.645  40.187  1.00  0.00     0.151 A
HETATM    9  N4  UNL     1      10.474  -8.445  40.664  1.00  0.00    -0.279 N
ATOM     10  H4  UNL     1      11.419  -8.179  40.942  1.00  0.00     0.189 HD
HETATM   11  N5  UNL     1       9.400  -7.677  40.705  1.00  0.00    -0.241 N
ATOM     12  H5  UNL     1       9.382  -6.708  41.025  1.00  0.00     0.208 HD
HETATM   13  N6  UNL     1       8.360  -8.347  40.273  1.00  0.00    -0.280 N
ATOM     14  H6  UNL     1       7.412  -7.977  40.205  1.00  0.00     0.188 HD
HETATM   15  C4  UNL     1       8.730  -9.593  39.933  1.00  0.00     0.128 A
ENDROOT
BRANCH   1  16
HETATM   16  N1  UNL     1       6.768 -10.579  39.210  1.00  0.00    -0.382 N
ATOM     17  H12 UNL     1       6.402  -9.759  38.727  1.00  0.00     0.157 HD
ATOM     18  H11 UNL     1       6.106 -11.297  39.502  1.00  0.00     0.157 HD
ENDBRANCH   1  16
TORSDOF 1
ENDMDL