MODEL 4
REMARK VINA RESULT: -4.730956189      2.272      2.791
REMARK  4 active torsions:
REMARK  status: ('A' for Active; 'I' for Inactive)
REMARK    1  A    between atoms: N1_1  and  N2_4
REMARK       I    between atoms: N2_4  and  C1_6
REMARK    2  A    between atoms: C1_6  and  O2_8
REMARK    3  A    between atoms: O2_8  and  N3_9
REMARK    4  A    between atoms: N3_9  and  C2_11
ROOT
HETATM    1  N2  UNL     1      10.274  -8.612  40.281  1.00  0.00    -0.250 N
ATOM      2  H2  UNL     1       9.638  -7.826  40.412  1.00  0.00     0.191 HD
HETATM    3  C1  UNL     1       9.892  -9.715  39.470  1.00  0.00     0.401 C
HETATM    4  O1  UNL     1      10.678 -10.681  39.309  1.00  0.00    -0.235 OA
ENDROOT
BRANCH   3   5
HETATM    5  O2  UNL     1       8.672  -9.769  38.838  1.00  0.00    -0.178 OA
BRANCH   5   6
HETATM    6  N3  UNL     1       7.472  -9.477  39.442  1.00  0.00    -0.233 N
ATOM      7  H3  UNL     1       7.058  -8.557  39.296  1.00  0.00     0.197 HD
BRANCH   6   8
HETATM    8  C2  UNL     1       6.794 -10.410  40.258  1.00  0.00     0.205 C
HETATM    9  N4  UNL     1       5.911 -11.366  39.715  1.00  0.00    -0.068 NA
HETATM   10  S1  UNL     1       7.055 -10.360  41.860  1.00  0.00    -0.043 SA
ENDBRANCH   6   8
ENDBRANCH   5   6
ENDBRANCH   3   5
BRANCH   1  11
HETATM   11  N1  UNL     1      11.530  -8.613  40.898  1.00  0.00    -0.341 N
ATOM     12  H12 UNL     1      11.637  -8.168  41.809  1.00  0.00     0.177 HD
ATOM     13  H11 UNL     1      12.319  -9.058  40.430  1.00  0.00     0.177 HD
ENDBRANCH   1  11
TORSDOF 4
ENDMDL