MODEL 3
REMARK VINA RESULT: -5.912958132      1.736      1.745
REMARK  2 active torsions:
REMARK  status: ('A' for Active; 'I' for Inactive)
REMARK       I    between atoms: C1_2  and  N2_4
REMARK    1  A    between atoms: N2_4  and  N3_6
REMARK    2  A    between atoms: N4_8  and  N5_10
REMARK       I    between atoms: N5_10  and  C2_12
ROOT
HETATM    1  N3  UNL     1      10.437  -8.174  40.202  1.00  0.00    -0.224 N
ATOM      2  H3  UNL     1      10.760  -7.944  39.263  1.00  0.00     0.210 HD
HETATM    3  N4  UNL     1       9.249  -7.887  40.500  1.00  0.00    -0.224 N
ATOM      4  H4  UNL     1       8.634  -7.439  39.820  1.00  0.00     0.210 HD
ENDROOT
BRANCH   1   5
HETATM    5  N2  UNL     1      11.343  -8.786  41.069  1.00  0.00    -0.238 N
HETATM    6  C1  UNL     1      11.791 -10.083  40.736  1.00  0.00     0.348 C
HETATM    7  N1  UNL     1      12.715 -10.718  41.613  1.00  0.00    -0.038 NA
HETATM    8  O1  UNL     1      11.377 -10.666  39.680  1.00  0.00    -0.249 OA
ATOM      9  H2  UNL     1      11.671  -8.314  41.912  1.00  0.00     0.193 HD
ENDBRANCH   1   5
BRANCH   3  10
HETATM   10  N5  UNL     1       8.794  -8.196  41.776  1.00  0.00    -0.238 N
HETATM   11  C2  UNL     1       8.066  -9.387  41.980  1.00  0.00     0.348 C
HETATM   12  N6  UNL     1       7.604  -9.696  43.291  1.00  0.00    -0.038 NA
HETATM   13  O2  UNL     1       7.847 -10.144  41.002  1.00  0.00    -0.249 OA
ATOM     14  H5  UNL     1       8.983  -7.568  42.558  1.00  0.00     0.193 HD
ENDBRANCH   3  10
TORSDOF 2
ENDMDL