MODEL 2
REMARK VINA RESULT: -6.663792819      2.406      3.789
REMARK  2 active torsions:
REMARK  status: ('A' for Active; 'I' for Inactive)
REMARK    1  A    between atoms: C4_8  and  C5_9
REMARK       I    between atoms: C5_9  and  N2_11
REMARK    2  A    between atoms: N2_11  and  N3_13
ROOT
HETATM    1  C1  UNL     1       9.648 -11.221  39.288  1.00  0.00     0.071 C
HETATM    2  C2  UNL     1      10.735 -10.807  40.214  1.00  0.00     0.051 A
HETATM    3  N1  UNL     1      11.968 -11.414  40.281  1.00  0.00    -0.261 N
ATOM      4  H1  UNL     1      12.267 -12.204  39.709  1.00  0.00     0.194 HD
HETATM    5  O1  UNL     1      12.685 -10.833  41.172  1.00  0.00    -0.194 OA
HETATM    6  C3  UNL     1      12.037  -9.855  41.741  1.00  0.00     0.322 A
HETATM    7  O2  UNL     1      12.524  -9.135  42.645  1.00  0.00    -0.257 OA
HETATM    8  C4  UNL     1      10.774  -9.812  41.144  1.00  0.00     0.134 A
ENDROOT
BRANCH   8   9
HETATM    9  C5  UNL     1       9.745  -8.861  41.497  1.00  0.00     0.277 C
HETATM   10  O3  UNL     1       9.055  -9.105  42.569  1.00  0.00    -0.266 OA
HETATM   11  N2  UNL     1       9.377  -7.687  40.832  1.00  0.00    -0.272 N
ATOM     12  H2  UNL     1       9.865  -7.414  39.979  1.00  0.00     0.189 HD
BRANCH  11  13
HETATM   13  N3  UNL     1       8.348  -6.889  41.329  1.00  0.00    -0.342 N
ATOM     14  H32 UNL     1       7.436  -6.920  40.871  1.00  0.00     0.176 HD
ATOM     15  H31 UNL     1       8.506  -6.284  42.135  1.00  0.00     0.176 HD
ENDBRANCH  11  13
ENDBRANCH   8   9
TORSDOF 2
ENDMDL