MODEL 3
REMARK VINA RESULT: -6.093137521      1.982      4.658
REMARK  2 active torsions:
REMARK  status: ('A' for Active; 'I' for Inactive)
REMARK    1  A    between atoms: N1_1  and  N2_4
REMARK       I    between atoms: N2_4  and  C1_6
REMARK    2  A    between atoms: C1_6  and  C2_8
ROOT
HETATM    1  C2  UNL     1       9.250  -9.932  39.935  1.00  0.00     0.195 A
HETATM    2  N3  UNL     1       8.424  -8.889  39.788  1.00  0.00    -0.277 N
ATOM      3  H3  UNL     1       8.668  -7.903  39.878  1.00  0.00     0.189 HD
HETATM    4  N4  UNL     1       7.232  -9.382  39.506  1.00  0.00    -0.250 N
ATOM      5  H4  UNL     1       6.397  -8.821  39.341  1.00  0.00     0.192 HD
HETATM    6  C3  UNL     1       7.270 -10.723  39.466  1.00  0.00     0.340 A
HETATM    7  O2  UNL     1       6.346 -11.546  39.230  1.00  0.00    -0.245 OA
HETATM    8  N5  UNL     1       8.545 -11.060  39.738  1.00  0.00    -0.288 N
ATOM      9  H5  UNL     1       8.913 -12.010  39.786  1.00  0.00     0.172 HD
ENDROOT
BRANCH   1  10
HETATM   10  C1  UNL     1      10.665  -9.806  40.255  1.00  0.00     0.305 C
HETATM   11  N2  UNL     1      11.176  -8.640  40.910  1.00  0.00    -0.270 N
ATOM     12  H2  UNL     1      10.561  -7.869  41.169  1.00  0.00     0.189 HD
HETATM   13  O1  UNL     1      11.399 -10.766  39.927  1.00  0.00    -0.263 OA
BRANCH  11  14
HETATM   14  N1  UNL     1      12.543  -8.595  41.182  1.00  0.00    -0.342 N
ATOM     15  H12 UNL     1      13.099  -9.450  41.165  1.00  0.00     0.176 HD
ATOM     16  H11 UNL     1      12.955  -7.686  41.395  1.00  0.00     0.176 HD
ENDBRANCH  11  14
ENDBRANCH   1  10
TORSDOF 2
ENDMDL