MODEL 4
REMARK VINA RESULT: -4.711268000      1.603      1.814
REMARK  4 active torsions:
REMARK  status: ('A' for Active; 'I' for Inactive)
REMARK       I    between atoms: C2_2  and  N1_4
REMARK    1  A    between atoms: N1_4  and  N2_6
REMARK    2  A    between atoms: N2_6  and  C3_8
REMARK    3  A    between atoms: C3_8  and  N3_10
REMARK    4  A    between atoms: N3_10  and  N4_12
ROOT
HETATM    1  N2  UNL     1      10.167  -9.289  39.234  1.00  0.00    -0.273 N
ATOM      2  H2  UNL     1      10.460  -8.996  38.303  1.00  0.00     0.189 HD
ENDROOT
BRANCH   1   3
HETATM    3  N1  UNL     1       9.787  -8.346  40.176  1.00  0.00    -0.268 N
HETATM    4  C2  UNL     1       8.427  -8.039  40.411  1.00  0.00     0.232 C
HETATM    5  C1  UNL     1       8.109  -7.011  41.443  1.00  0.00     0.119 C
HETATM    6  O1  UNL     1       7.558  -8.642  39.744  1.00  0.00    -0.272 OA
ATOM      7  H1  UNL     1      10.506  -7.861  40.713  1.00  0.00     0.190 HD
ENDBRANCH   1   3
BRANCH   1   8
HETATM    8  C3  UNL     1      10.145 -10.662  39.576  1.00  0.00     0.205 C
HETATM    9  S1  UNL     1       9.376 -11.717  38.596  1.00  0.00    -0.038 SA
BRANCH   8  10
HETATM   10  N3  UNL     1      10.768 -11.171  40.744  1.00  0.00    -0.282 N
ATOM     11  H3  UNL     1      10.205 -11.541  41.510  1.00  0.00     0.189 HD
BRANCH  10  12
HETATM   12  N4  UNL     1      12.154 -11.160  40.830  1.00  0.00    -0.343 N
ATOM     13  H42 UNL     1      12.606 -11.485  41.685  1.00  0.00     0.176 HD
ATOM     14  H41 UNL     1      12.698 -10.825  40.035  1.00  0.00     0.176 HD
ENDBRANCH  10  12
ENDBRANCH   8  10
ENDBRANCH   1   8
TORSDOF 4
ENDMDL