MODEL 3
REMARK VINA RESULT: -5.688308670      1.532      4.079
REMARK  1 active torsions:
REMARK  status: ('A' for Active; 'I' for Inactive)
REMARK    1  A    between atoms: N5_12  and  C3_13
ROOT
HETATM    1  N1  UNL     1      10.398  -8.143  40.578  1.00  0.00    -0.380 N
ATOM      2  H11 UNL     1      11.318  -7.834  40.890  1.00  0.00     0.158 HD
ATOM      3  H12 UNL     1       9.667  -7.433  40.549  1.00  0.00     0.158 HD
HETATM    4  C1  UNL     1      10.184  -9.360  40.243  1.00  0.00     0.192 C
HETATM    5  C2  UNL     1       8.869  -9.802  39.797  1.00  0.00     0.306 C
HETATM    6  O1  UNL     1       7.921  -8.982  39.736  1.00  0.00    -0.263 OA
HETATM    7  N2  UNL     1       8.732 -11.174  39.447  1.00  0.00    -0.250 N
ATOM      8  H2  UNL     1       7.818 -11.624  39.420  1.00  0.00     0.191 HD
HETATM    9  N3  UNL     1       9.873 -11.869  39.149  1.00  0.00    -0.223 N
ATOM     10  H3  UNL     1       9.905 -12.503  38.350  1.00  0.00     0.205 HD
HETATM   11  N4  UNL     1      10.949 -11.696  39.933  1.00  0.00     0.005 NA
HETATM   12  N5  UNL     1      11.212 -10.358  40.284  1.00  0.00    -0.193 N
ENDROOT
BRANCH  12  13
HETATM   13  C3  UNL     1      12.514  -9.972  40.689  1.00  0.00     0.376 C
HETATM   14  O2  UNL     1      12.755  -9.411  41.788  1.00  0.00    -0.282 OA
ENDBRANCH  12  13
TORSDOF 1
ENDMDL