MODEL 5
REMARK VINA RESULT: -7.413280580      2.702      4.376
REMARK  15 active torsions:
REMARK  status: ('A' for Active; 'I' for Inactive)
REMARK    1  A    between atoms: C2_2  and  O1_3
REMARK    2  A    between atoms: O1_3  and  C3_4
REMARK    3  A    between atoms: C3_4  and  C4_6
REMARK    4  A    between atoms: C6_8  and  O3_9
REMARK    5  A    between atoms: C9_13  and  C10_14
REMARK    6  A    between atoms: C10_14  and  O4_15
REMARK    7  A    between atoms: O4_15  and  C11_16
REMARK    8  A    between atoms: C11_16  and  C12_18
REMARK    9  A    between atoms: C13_19  and  C14_20
REMARK   10  A    between atoms: C15_21  and  C16_22
REMARK   11  A    between atoms: C16_22  and  O6_23
REMARK   12  A    between atoms: C19_27  and  O7_28
REMARK   13  A    between atoms: O7_28  and  C20_29
REMARK   14  A    between atoms: C27_38  and  O9_39
REMARK   15  A    between atoms: C33_45  and  O10_46
ROOT
HETATM    1  C4  UNL     1      54.117   3.388   2.536  1.00  0.00     0.095 C
HETATM    2  C5  UNL     1      53.926   4.849   2.171  1.00  0.00     0.047 C
HETATM    3  C6  UNL     1      52.499   5.187   2.584  1.00  0.00     0.132 C
HETATM    4  C7  UNL     1      52.310   5.110   4.066  1.00  0.00     0.042 C
HETATM    5  C8  UNL     1      52.910   6.370   4.669  1.00  0.00     0.024 C
HETATM    6  C9  UNL     1      50.831   5.029   4.429  1.00  0.00     0.162 C
HETATM    7  O8  UNL     1      50.703   4.628   5.761  1.00  0.00    -0.352 OA
HETATM    8  C27 UNL     1      50.883   3.227   5.854  1.00  0.00     0.266 C
HETATM    9  C29 UNL     1      51.940   2.811   4.874  1.00  0.00     0.076 C
HETATM   10  C30 UNL     1      52.837   1.718   5.417  1.00  0.00     0.013 C
HETATM   11  C31 UNL     1      54.037   1.834   4.499  1.00  0.00     0.009 C
HETATM   12  C32 UNL     1      54.073   3.286   4.027  1.00  0.00     0.035 C
HETATM   13  C33 UNL     1      52.962   3.941   4.718  1.00  0.00     0.083 C
ENDROOT
BRANCH   6  14
HETATM   14  C10 UNL     1      50.071   6.272   4.121  1.00  0.00     0.212 C
BRANCH  14  15
HETATM   15  O4  UNL     1      49.372   6.231   2.918  1.00  0.00    -0.316 OA
BRANCH  15  16
HETATM   16  C11 UNL     1      48.508   7.338   2.577  1.00  0.00     0.282 C
HETATM   17  O5  UNL     1      47.773   7.636   3.504  1.00  0.00    -0.260 OA
BRANCH  16  18
HETATM   18  C12 UNL     1      48.612   7.915   1.279  1.00  0.00     0.082 C
HETATM   19  C13 UNL     1      48.076   8.886   0.669  1.00  0.00     0.013 C
BRANCH  19  20
HETATM   20  C14 UNL     1      47.102   9.930   0.911  1.00  0.00    -0.051 C
HETATM   21  C15 UNL     1      46.291  10.287  -0.072  1.00  0.00    -0.050 C
HETATM   22  C17 UNL     1      45.238  11.344   0.105  1.00  0.00     0.039 C
HETATM   23  C18 UNL     1      44.858  11.471   1.562  1.00  0.00     0.037 C
HETATM   24  C19 UNL     1      46.133  11.819   2.334  1.00  0.00     0.133 C
HETATM   25  C26 UNL     1      47.043  10.611   2.220  1.00  0.00     0.071 C
BRANCH  21  26
HETATM   26  C16 UNL     1      46.294   9.690  -1.447  1.00  0.00     0.199 C
BRANCH  26  27
HETATM   27  O6  UNL     1      45.151  10.255  -2.073  1.00  0.00    -0.397 OA
ATOM     28  H6  UNL     1      45.447  10.462  -2.952  1.00  0.00     0.209 HD
ENDBRANCH  26  27
ENDBRANCH  21  26
BRANCH  24  29
HETATM   29  O7  UNL     1      46.723  12.972   1.853  1.00  0.00    -0.346 OA
BRANCH  29  30
HETATM   30  C20 UNL     1      46.447  14.225   2.326  1.00  0.00     0.070 A
HETATM   31  C21 UNL     1      45.296  14.939   2.054  1.00  0.00     0.037 A
HETATM   32  C22 UNL     1      45.093  16.217   2.579  1.00  0.00     0.004 A
HETATM   33  C23 UNL     1      46.025  16.802   3.376  1.00  0.00     0.024 A
HETATM   34  C24 UNL     1      47.172  16.078   3.639  1.00  0.00     0.036 A
HETATM   35 CL1  UNL     1      48.361  16.859   4.672  1.00  0.00    -0.084 Cl
HETATM   36  C25 UNL     1      47.395  14.841   3.146  1.00  0.00     0.060 A
ENDBRANCH  29  30
ENDBRANCH  24  29
ENDBRANCH  19  20
ENDBRANCH  16  18
ENDBRANCH  15  16
ENDBRANCH  14  15
ENDBRANCH   6  14
BRANCH   3  37
HETATM   37  O3  UNL     1      51.660   4.344   1.867  1.00  0.00    -0.395 OA
ATOM     38  H3  UNL     1      51.461   4.785   1.049  1.00  0.00     0.210 HD
ENDBRANCH   3  37
BRANCH  13  39
HETATM   39  O10 UNL     1      53.365   4.261   6.026  1.00  0.00    -0.388 OA
ATOM     40  H10 UNL     1      53.186   3.541   6.619  1.00  0.00     0.210 HD
ENDBRANCH  13  39
BRANCH   8  41
HETATM   41  O9  UNL     1      51.155   2.834   7.144  1.00  0.00    -0.366 OA
HETATM   42  C28 UNL     1      50.298   1.844   7.614  1.00  0.00     0.204 C
ENDBRANCH   8  41
BRANCH   1  43
HETATM   43  C3  UNL     1      55.476   2.920   2.109  1.00  0.00     0.263 C
HETATM   44  O2  UNL     1      55.570   1.938   1.357  1.00  0.00    -0.265 OA
BRANCH  43  45
HETATM   45  O1  UNL     1      56.614   3.552   2.530  1.00  0.00    -0.322 OA
BRANCH  45  46
HETATM   46  C2  UNL     1      57.691   3.915   1.720  1.00  0.00     0.174 C
HETATM   47  C1  UNL     1      59.014   3.354   2.153  1.00  0.00     0.034 C
ENDBRANCH  45  46
ENDBRANCH  43  45
ENDBRANCH   1  43
TORSDOF 15
ENDMDL