MODEL 5
REMARK VINA RESULT: -7.306005763      2.400      3.655
REMARK  12 active torsions:
REMARK  status: ('A' for Active; 'I' for Inactive)
REMARK    1  A    between atoms: C2_2  and  N1_5
REMARK    2  A    between atoms: N1_5  and  C5_8
REMARK    3  A    between atoms: C5_8  and  C6_9
REMARK    4  A    between atoms: C6_9  and  C9_12
REMARK    5  A    between atoms: C9_12  and  C12_15
REMARK    6  A    between atoms: C12_15  and  O1_16
REMARK    7  A    between atoms: O1_16  and  C13_17
REMARK    8  A    between atoms: C16_21  and  C17_22
REMARK    9  A    between atoms: C17_22  and  C18_23
REMARK   10  A    between atoms: C19_26  and  C20_27
REMARK   11  A    between atoms: C20_27  and  C21_28
REMARK   12  A    between atoms: C21_28  and  O5_29
ROOT
HETATM    1  C13 UNL     1      48.171   8.436   1.632  1.00  0.00     0.263 C
HETATM    2  C14 UNL     1      48.487   7.808   3.031  1.00  0.00     0.095 C
HETATM    3  C15 UNL     1      49.675   6.945   2.596  1.00  0.00     0.159 C
HETATM    4  O2  UNL     1      49.771   5.842   3.383  1.00  0.00    -0.376 OA
HETATM    5  C16 UNL     1      50.993   5.212   3.409  1.00  0.00     0.140 C
HETATM    6  C19 UNL     1      51.171   4.303   2.172  1.00  0.00     0.043 C
HETATM    7  C29 UNL     1      49.884   4.162   1.502  1.00  0.00    -0.021 C
HETATM    8  C30 UNL     1      49.100   5.144   1.086  1.00  0.00     0.004 C
HETATM    9  C31 UNL     1      49.278   6.639   1.169  1.00  0.00     0.176 C
HETATM   10  O8  UNL     1      48.058   7.225   0.924  1.00  0.00    -0.350 OA
ENDROOT
BRANCH   1  11
HETATM   11  O1  UNL     1      47.057   9.158   1.675  1.00  0.00    -0.360 OA
BRANCH  11  12
HETATM   12  C12 UNL     1      47.124  10.498   1.653  1.00  0.00     0.180 C
BRANCH  12  13
HETATM   13  C9  UNL     1      46.663  11.306   0.512  1.00  0.00    -0.018 C
HETATM   14  C10 UNL     1      47.773  11.890  -0.320  1.00  0.00     0.018 C
HETATM   15  C11 UNL     1      45.863  10.451  -0.483  1.00  0.00     0.018 C
BRANCH  13  16
HETATM   16  C6  UNL     1      45.747  12.411   1.018  1.00  0.00    -0.015 C
HETATM   17  C7  UNL     1      44.500  11.771   1.649  1.00  0.00     0.017 C
HETATM   18  C8  UNL     1      45.235  13.283  -0.096  1.00  0.00     0.017 C
BRANCH  16  19
HETATM   19  C5  UNL     1      46.452  13.200   2.081  1.00  0.00     0.242 C
BRANCH  19  20
HETATM   20  N1  UNL     1      45.895  14.555   2.201  1.00  0.00    -0.067 N
ATOM     21  H12 UNL     1      44.876  14.572   2.165  1.00  0.00     0.278 HD
ATOM     22  H11 UNL     1      46.066  15.132   1.377  1.00  0.00     0.278 HD
BRANCH  20  23
HETATM   23  C2  UNL     1      46.438  15.146   3.443  1.00  0.00     0.115 C
HETATM   24  C1  UNL     1      47.052  14.011   4.226  1.00  0.00     0.045 C
HETATM   25  C3  UNL     1      47.450  16.218   3.120  1.00  0.00     0.045 C
HETATM   26  C4  UNL     1      45.280  15.734   4.215  1.00  0.00     0.045 C
ENDBRANCH  20  23
ENDBRANCH  19  20
ENDBRANCH  16  19
ENDBRANCH  13  16
ENDBRANCH  12  13
ENDBRANCH  11  12
ENDBRANCH   1  11
BRANCH   5  27
HETATM   27  C17 UNL     1      52.171   6.139   3.428  1.00  0.00     0.145 C
BRANCH  27  28
HETATM   28  C18 UNL     1      52.643   6.442   4.795  1.00  0.00     0.175 C
HETATM   29  O3  UNL     1      53.067   7.603   5.026  1.00  0.00    -0.648 OA
HETATM   30  O4  UNL     1      52.630   5.508   5.798  1.00  0.00    -0.648 OA
ENDBRANCH  27  28
ENDBRANCH   5  27
BRANCH   6  31
HETATM   31  C20 UNL     1      51.845   3.084   2.648  1.00  0.00     0.088 C
BRANCH  31  32
HETATM   32  C21 UNL     1      53.126   2.681   2.047  1.00  0.00     0.235 C
HETATM   33  O6  UNL     1      53.565   3.527   0.998  1.00  0.00    -0.305 OA
HETATM   34  C22 UNL     1      54.967   3.568   1.032  1.00  0.00     0.087 A
HETATM   35  C23 UNL     1      55.906   3.873   0.076  1.00  0.00     0.039 A
HETATM   36  C27 UNL     1      55.404   3.224   2.305  1.00  0.00     0.050 A
HETATM   37  C24 UNL     1      57.267   3.837   0.377  1.00  0.00     0.022 A
HETATM   38  C25 UNL     1      57.720   3.498   1.634  1.00  0.00     0.012 A
HETATM   39 BR1  UNL     1      59.593   3.468   1.981  1.00  0.00    -0.051 Br
HETATM   40  C26 UNL     1      56.766   3.195   2.582  1.00  0.00     0.037 A
HETATM   41  C28 UNL     1      54.199   2.963   3.073  1.00  0.00     0.224 C
HETATM   42  O7  UNL     1      54.127   2.983   4.316  1.00  0.00    -0.286 OA
BRANCH  32  43
HETATM   43  O5  UNL     1      53.276   1.342   1.736  1.00  0.00    -0.359 OA
ATOM     44  H5  UNL     1      53.804   0.820   2.329  1.00  0.00     0.213 HD
ENDBRANCH  32  43
ENDBRANCH  31  32
ENDBRANCH   6  31
TORSDOF 12
ENDMDL