MODEL 5
REMARK VINA RESULT: -6.911730039      2.851      5.070
REMARK  13 active torsions:
REMARK  status: ('A' for Active; 'I' for Inactive)
REMARK    1  A    between atoms: C2_2  and  O1_3
REMARK    2  A    between atoms: C2_2  and  C3_5
REMARK    3  A    between atoms: C2_2  and  C4_8
REMARK    4  A    between atoms: C3_5  and  O2_6
REMARK    5  A    between atoms: C4_8  and  O4_10
REMARK    6  A    between atoms: O4_10  and  C5_11
REMARK    7  A    between atoms: C9_15  and  O5_16
REMARK    8  A    between atoms: O5_16  and  C10_17
REMARK    9  A    between atoms: C10_17  and  C11_18
REMARK   10  A    between atoms: C27_36  and  O7_37
REMARK   11  A    between atoms: C29_40  and  C30_41
REMARK   12  A    between atoms: C30_41  and  O8_42
REMARK   13  A    between atoms: O8_42  and  C31_43
ROOT
HETATM    1  C5  UNL     1      45.470  12.957  -1.714  1.00  0.00     0.143 C
HETATM    2  C6  UNL     1      44.812  13.493  -0.462  1.00  0.00     0.039 C
HETATM    3  C7  UNL     1      45.786  13.200   0.658  1.00  0.00    -0.001 C
HETATM    4  C8  UNL     1      45.440  13.919   1.951  1.00  0.00     0.037 C
HETATM    5  C9  UNL     1      46.752  13.875   2.746  1.00  0.00     0.121 C
HETATM    6  C12 UNL     1      46.943  12.433   3.132  1.00  0.00     0.033 C
HETATM    7  C13 UNL     1      47.093  11.552   1.936  1.00  0.00     0.012 C
HETATM    8  C14 UNL     1      46.039  11.744   0.881  1.00  0.00    -0.035 C
HETATM    9  C15 UNL     1      44.772  11.172   1.535  1.00  0.00     0.016 C
HETATM   10  C16 UNL     1      46.332  11.020  -0.366  1.00  0.00     0.014 C
HETATM   11  C17 UNL     1      47.772  10.821  -0.714  1.00  0.00     0.030 C
HETATM   12  C18 UNL     1      48.606  11.929  -1.147  1.00  0.00     0.035 C
HETATM   13  C19 UNL     1      49.969  11.381  -1.437  1.00  0.00    -0.022 C
HETATM   14  C20 UNL     1      50.026  10.304  -2.211  1.00  0.00    -0.065 C
HETATM   15  C21 UNL     1      51.354   9.694  -2.551  1.00  0.00     0.113 C
HETATM   16  C22 UNL     1      51.291   8.650  -3.571  1.00  0.00     0.130 C
HETATM   17  O6  UNL     1      52.201   8.496  -4.340  1.00  0.00    -0.298 OA
HETATM   18  C23 UNL     1      50.105   7.753  -3.692  1.00  0.00     0.080 C
HETATM   19  C24 UNL     1      48.994   8.206  -2.771  1.00  0.00     0.024 C
HETATM   20  C25 UNL     1      48.796   9.709  -2.732  1.00  0.00     0.011 C
HETATM   21  C26 UNL     1      48.551  10.128  -4.194  1.00  0.00     0.023 C
HETATM   22  C27 UNL     1      47.542   9.989  -1.996  1.00  0.00     0.074 C
HETATM   23  C28 UNL     1      46.509  10.840  -2.670  1.00  0.00     0.054 C
HETATM   24  C29 UNL     1      45.635  11.461  -1.593  1.00  0.00     0.016 C
ENDROOT
BRANCH   1  25
HETATM   25  O4  UNL     1      44.781  13.269  -2.900  1.00  0.00    -0.313 OA
BRANCH  25  26
HETATM   26  C4  UNL     1      43.926  14.332  -3.040  1.00  0.00     0.295 C
HETATM   27  O3  UNL     1      42.712  14.018  -3.067  1.00  0.00    -0.262 OA
BRANCH  26  28
HETATM   28  C2  UNL     1      44.285  15.747  -3.160  1.00  0.00     0.162 C
HETATM   29  C1  UNL     1      45.652  15.872  -3.802  1.00  0.00     0.059 C
BRANCH  28  30
HETATM   30  O1  UNL     1      43.387  16.421  -4.014  1.00  0.00    -0.378 OA
ATOM     31  H1  UNL     1      42.520  16.276  -3.654  1.00  0.00     0.211 HD
ENDBRANCH  28  30
BRANCH  28  32
HETATM   32  C3  UNL     1      44.201  16.489  -1.839  1.00  0.00     0.212 C
BRANCH  32  33
HETATM   33  O2  UNL     1      43.012  16.255  -1.185  1.00  0.00    -0.397 OA
ATOM     34  H2  UNL     1      42.679  15.381  -1.348  1.00  0.00     0.209 HD
ENDBRANCH  32  33
ENDBRANCH  28  32
ENDBRANCH  26  28
ENDBRANCH  25  26
ENDBRANCH   1  25
BRANCH  24  35
HETATM   35  C30 UNL     1      44.232  10.932  -1.783  1.00  0.00     0.188 C
BRANCH  35  36
HETATM   36  O8  UNL     1      44.007   9.614  -1.446  1.00  0.00    -0.349 OA
BRANCH  36  37
HETATM   37  C31 UNL     1      43.400   8.797  -2.385  1.00  0.00     0.084 A
HETATM   38  C32 UNL     1      42.042   8.901  -2.552  1.00  0.00     0.039 A
HETATM   39  C33 UNL     1      41.390   8.102  -3.483  1.00  0.00     0.020 A
HETATM   40  C34 UNL     1      42.109   7.199  -4.242  1.00  0.00     0.088 A
HETATM   41  N1  UNL     1      43.441   7.139  -4.036  1.00  0.00    -0.373 N
HETATM   42  C35 UNL     1      44.085   7.897  -3.149  1.00  0.00     0.124 A
ATOM     43  H1  UNL     1      43.986   6.478  -4.589  1.00  0.00     0.164 HD
ENDBRANCH  36  37
ENDBRANCH  35  36
ENDBRANCH  24  35
BRANCH  22  44
HETATM   44  O7  UNL     1      46.993   8.788  -1.561  1.00  0.00    -0.388 OA
ATOM     45  H7  UNL     1      47.698   8.338  -1.110  1.00  0.00     0.210 HD
ENDBRANCH  22  44
BRANCH   5  46
HETATM   46  O5  UNL     1      46.788  14.759   3.761  1.00  0.00    -0.385 OA
BRANCH  46  47
HETATM   47  C10 UNL     1      47.430  15.943   3.616  1.00  0.00     0.183 C
BRANCH  47  48
HETATM   48  C11 UNL     1      46.520  17.073   4.029  1.00  0.00     0.140 C
HETATM   49 CL1  UNL     1      44.949  16.461   4.603  1.00  0.00    -0.128 Cl
ENDBRANCH  47  48
ENDBRANCH  46  47
ENDBRANCH   5  46
TORSDOF 13
ENDMDL