MODEL 2
REMARK VINA RESULT: -5.616087257      3.007      6.128
REMARK  13 active torsions:
REMARK  status: ('A' for Active; 'I' for Inactive)
REMARK    1  A    between atoms: C2_2  and  C3_3
REMARK    2  A    between atoms: C3_3  and  C5_5
REMARK    3  A    between atoms: C5_5  and  O1_6
REMARK    4  A    between atoms: C6_9  and  C7_10
REMARK    5  A    between atoms: C7_10  and  O3_11
REMARK    6  A    between atoms: C14_21  and  C15_22
REMARK    7  A    between atoms: C15_22  and  C16_23
REMARK    8  A    between atoms: C15_22  and  O5_26
REMARK    9  A    between atoms: C16_23  and  C17_24
REMARK   10  A    between atoms: O5_26  and  C19_27
REMARK   11  A    between atoms: C22_31  and  O7_32
REMARK   12  A    between atoms: C23_34  and  N1_35
REMARK   13  A    between atoms: C33_45  and  O8_46
ROOT
HETATM    1  C5  UNL     1      51.169   6.564   2.416  1.00  0.00     0.220 C
HETATM    2  O2  UNL     1      50.829   5.344   2.677  1.00  0.00    -0.340 OA
HETATM    3  C6  UNL     1      51.361   4.156   2.776  1.00  0.00     0.172 C
HETATM    4  C13 UNL     1      50.715   3.057   1.913  1.00  0.00     0.043 C
HETATM    5  C14 UNL     1      49.323   2.648   2.157  1.00  0.00     0.024 C
HETATM    6  C28 UNL     1      48.305   3.302   1.173  1.00  0.00     0.010 C
HETATM    7  C29 UNL     1      48.083   2.586  -0.106  1.00  0.00     0.015 C
HETATM    8  C30 UNL     1      48.969   4.590   0.793  1.00  0.00    -0.022 C
HETATM    9  C31 UNL     1      48.761   5.846   0.823  1.00  0.00    -0.001 C
HETATM   10  C32 UNL     1      49.695   6.941   0.370  1.00  0.00     0.038 C
HETATM   11  C33 UNL     1      50.761   7.235   1.088  1.00  0.00     0.108 C
ENDROOT
BRANCH   5  12
HETATM   12  C15 UNL     1      49.164   1.130   2.120  1.00  0.00     0.129 C
BRANCH  12  13
HETATM   13  C16 UNL     1      50.578   0.537   2.148  1.00  0.00     0.032 C
BRANCH  13  14
HETATM   14  C17 UNL     1      50.678  -0.886   2.577  1.00  0.00    -0.002 C
HETATM   15  C18 UNL     1      51.452  -0.971   3.900  1.00  0.00     0.005 C
ENDBRANCH  13  14
ENDBRANCH  12  13
BRANCH  12  16
HETATM   16  O5  UNL     1      48.359   0.761   3.140  1.00  0.00    -0.355 OA
BRANCH  16  17
HETATM   17  C19 UNL     1      47.175   0.168   3.041  1.00  0.00     0.266 C
HETATM   18  O6  UNL     1      46.209   1.253   3.349  1.00  0.00    -0.353 OA
HETATM   19  C20 UNL     1      44.943   0.854   3.044  1.00  0.00     0.151 C
HETATM   20  C21 UNL     1      44.460   1.461   1.720  1.00  0.00     0.042 C
HETATM   21  C22 UNL     1      44.726  -0.636   2.961  1.00  0.00     0.169 C
HETATM   22  C23 UNL     1      45.443  -1.260   4.123  1.00  0.00     0.117 C
HETATM   23  C26 UNL     1      46.867  -0.750   4.187  1.00  0.00     0.062 C
HETATM   24  C27 UNL     1      47.858  -1.799   4.509  1.00  0.00     0.017 C
BRANCH  21  25
HETATM   25  O7  UNL     1      43.347  -0.866   3.073  1.00  0.00    -0.391 OA
ATOM     26  H7  UNL     1      42.927  -0.437   2.336  1.00  0.00     0.210 HD
ENDBRANCH  21  25
BRANCH  22  27
HETATM   27  N1  UNL     1      45.275  -2.655   4.270  1.00  0.00    -0.413 N
HETATM   28  C24 UNL     1      45.060  -3.451   3.128  1.00  0.00     0.143 C
HETATM   29  C25 UNL     1      44.473  -3.010   5.399  1.00  0.00     0.143 C
ENDBRANCH  22  27
ENDBRANCH  16  17
ENDBRANCH  12  16
ENDBRANCH   5  12
BRANCH   3  30
HETATM   30  C7  UNL     1      51.637   3.660   4.156  1.00  0.00     0.164 C
HETATM   31  C8  UNL     1      50.454   2.987   4.842  1.00  0.00     0.025 C
HETATM   32  C9  UNL     1      50.969   2.319   5.898  1.00  0.00    -0.059 C
HETATM   33  C10 UNL     1      50.253   1.502   6.899  1.00  0.00     0.045 C
HETATM   34  C11 UNL     1      52.475   2.482   5.902  1.00  0.00     0.183 C
HETATM   35 CL1  UNL     1      53.309   1.072   6.514  1.00  0.00    -0.112 Cl
HETATM   36  C12 UNL     1      52.580   2.590   4.377  1.00  0.00     0.190 C
HETATM   37  O4  UNL     1      53.282   1.905   3.766  1.00  0.00    -0.292 OA
BRANCH  30  38
HETATM   38  O3  UNL     1      51.892   4.722   5.051  1.00  0.00    -0.375 OA
ATOM     39  H3  UNL     1      51.249   4.755   5.749  1.00  0.00     0.211 HD
ENDBRANCH  30  38
ENDBRANCH   3  30
BRANCH   1  40
HETATM   40  C3  UNL     1      50.491   7.539   3.446  1.00  0.00     0.073 C
HETATM   41  C4  UNL     1      51.559   8.209   4.275  1.00  0.00     0.020 C
BRANCH  40  42
HETATM   42  C2  UNL     1      49.541   6.871   4.307  1.00  0.00    -0.027 C
HETATM   43  C1  UNL     1      48.211   7.085   4.259  1.00  0.00     0.007 C
ENDBRANCH  40  42
ENDBRANCH   1  40
BRANCH   1  44
HETATM   44  O1  UNL     1      52.535   6.870   2.587  1.00  0.00    -0.359 OA
ATOM     45  H1  UNL     1      52.819   6.169   3.162  1.00  0.00     0.213 HD
ENDBRANCH   1  44
BRANCH  11  46
HETATM   46  O8  UNL     1      51.630   8.222   0.658  1.00  0.00    -0.355 OA
HETATM   47  C34 UNL     1      51.210   9.212  -0.261  1.00  0.00     0.209 C
ENDBRANCH  11  46
TORSDOF 13
ENDMDL