MODEL 2
REMARK VINA RESULT: -6.017401501      4.669      6.748
REMARK  13 active torsions:
REMARK  status: ('A' for Active; 'I' for Inactive)
REMARK    1  A    between atoms: C3_3  and  C5_5
REMARK    2  A    between atoms: C5_5  and  C6_6
REMARK    3  A    between atoms: C6_6  and  N1_7
REMARK    4  A    between atoms: C6_6  and  C12_16
REMARK       I    between atoms: N1_7  and  C7_9
REMARK    5  A    between atoms: C7_9  and  O2_11
REMARK    6  A    between atoms: O2_11  and  C8_12
REMARK       I    between atoms: C12_16  and  N2_18
REMARK    7  A    between atoms: C16_22  and  C17_23
REMARK       I    between atoms: C17_23  and  N3_25
REMARK    8  A    between atoms: N3_25  and  C18_27
REMARK    9  A    between atoms: C18_27  and  C19_28
REMARK   10  A    between atoms: C19_28  and  C20_29
REMARK   11  A    between atoms: N4_39  and  C27_40
REMARK   12  A    between atoms: C27_40  and  C28_41
REMARK   13  A    between atoms: C28_41  and  O6_43
ROOT
HETATM    1  C1  UNL     1      43.677  12.451  -3.781  1.00  0.00     0.012 C
HETATM    2  C2  UNL     1      44.025  12.937  -2.729  1.00  0.00    -0.113 C
HETATM    3  C3  UNL     1      44.427  13.556  -1.482  1.00  0.00     0.062 C
HETATM    4  C4  UNL     1      44.320  15.074  -1.715  1.00  0.00     0.023 C
ENDROOT
BRANCH   3   5
HETATM    5  C5  UNL     1      45.796  13.251  -0.999  1.00  0.00     0.051 C
BRANCH   5   6
HETATM    6  C6  UNL     1      45.925  12.578   0.329  1.00  0.00     0.180 C
BRANCH   6   7
HETATM    7  N1  UNL     1      45.537  13.531   1.392  1.00  0.00    -0.324 N
HETATM    8  C7  UNL     1      46.364  13.719   2.532  1.00  0.00     0.362 C
HETATM    9  O1  UNL     1      47.460  13.073   2.665  1.00  0.00    -0.238 OA
ATOM     10  H1  UNL     1      44.668  14.058   1.306  1.00  0.00     0.165 HD
BRANCH   8  11
HETATM   11  O2  UNL     1      46.071  14.586   3.559  1.00  0.00    -0.294 OA
BRANCH  11  12
HETATM   12  C8  UNL     1      46.423  15.947   3.563  1.00  0.00     0.061 C
HETATM   13  C9  UNL     1      47.931  16.040   3.524  1.00  0.00     0.046 C
HETATM   14  C10 UNL     1      45.893  16.723   2.400  1.00  0.00     0.046 C
HETATM   15  C11 UNL     1      45.970  16.644   4.834  1.00  0.00     0.046 C
ENDBRANCH  11  12
ENDBRANCH   8  11
ENDBRANCH   6   7
BRANCH   6  16
HETATM   16  C12 UNL     1      45.210  11.311   0.508  1.00  0.00     0.243 C
HETATM   17  O3  UNL     1      44.460  11.125   1.546  1.00  0.00    -0.271 OA
HETATM   18  N2  UNL     1      45.250  10.182  -0.385  1.00  0.00    -0.337 N
HETATM   19  C13 UNL     1      44.450   8.956  -0.225  1.00  0.00     0.127 C
HETATM   20  C16 UNL     1      46.068   9.955  -1.546  1.00  0.00     0.179 C
HETATM   21  C14 UNL     1      44.123   8.592  -1.628  1.00  0.00     0.022 C
HETATM   22  C15 UNL     1      45.147   9.265  -2.509  1.00  0.00     0.037 C
BRANCH  20  23
HETATM   23  C17 UNL     1      47.225   9.019  -1.246  1.00  0.00     0.244 C
HETATM   24  O4  UNL     1      47.391   8.009  -1.961  1.00  0.00    -0.271 OA
HETATM   25  N3  UNL     1      48.111   9.266  -0.181  1.00  0.00    -0.335 N
ATOM     26  H3  UNL     1      47.893  10.104   0.359  1.00  0.00     0.168 HD
BRANCH  25  27
HETATM   27  C18 UNL     1      49.231   8.573   0.269  1.00  0.00     0.092 C
BRANCH  27  28
HETATM   28  C19 UNL     1      50.378   8.174  -0.526  1.00  0.00     0.030 C
BRANCH  28  29
HETATM   29  C20 UNL     1      51.387   7.231  -0.071  1.00  0.00    -0.011 A
HETATM   30  C21 UNL     1      51.446   6.851   1.243  1.00  0.00     0.044 A
HETATM   31  C22 UNL     1      52.382   5.921   1.746  1.00  0.00     0.054 A
HETATM   32  C23 UNL     1      53.242   5.417   0.806  1.00  0.00     0.036 A
HETATM   33  N4  UNL     1      52.522   5.492   2.984  1.00  0.00    -0.322 N
HETATM   34  C24 UNL     1      53.189   5.802  -0.546  1.00  0.00     0.046 A
HETATM   35  S1  UNL     1      54.211   4.356   1.724  1.00  0.00    -0.058 SA
HETATM   36  C25 UNL     1      52.261   6.713  -1.001  1.00  0.00     0.045 A
HETATM   37 CL1  UNL     1      52.291   7.163  -2.690  1.00  0.00    -0.083 Cl
HETATM   38  C26 UNL     1      53.483   4.605   3.240  1.00  0.00     0.146 A
HETATM   39  S2  UNL     1      53.850   3.924   4.707  1.00  0.00    -0.052 SA
BRANCH  33  40
HETATM   40  C27 UNL     1      51.652   5.964   4.102  1.00  0.00     0.241 C
BRANCH  40  41
HETATM   41  C28 UNL     1      51.988   7.326   4.492  1.00  0.00     0.276 C
HETATM   42  O5  UNL     1      53.086   7.601   5.024  1.00  0.00    -0.263 OA
BRANCH  41  43
HETATM   43  O6  UNL     1      51.084   8.348   4.274  1.00  0.00    -0.325 OA
HETATM   44  C29 UNL     1      49.708   8.181   4.061  1.00  0.00     0.213 C
ENDBRANCH  41  43
ENDBRANCH  40  41
ENDBRANCH  33  40
ENDBRANCH  28  29
ENDBRANCH  27  28
ENDBRANCH  25  27
ENDBRANCH  20  23
ENDBRANCH   6  16
ENDBRANCH   5   6
ENDBRANCH   3   5
TORSDOF 13
ENDMDL