MODEL 1
REMARK VINA RESULT: -7.573885344      0.000      0.000
REMARK  12 active torsions:
REMARK  status: ('A' for Active; 'I' for Inactive)
REMARK    1  A    between atoms: C2_2  and  C3_3
REMARK    2  A    between atoms: C3_3  and  N1_4
REMARK    3  A    between atoms: N2_7  and  C6_8
REMARK    4  A    between atoms: C8_10  and  O1_11
REMARK    5  A    between atoms: C10_13  and  N3_14
REMARK    6  A    between atoms: N3_14  and  C11_16
REMARK    7  A    between atoms: C12_19  and  N5_20
REMARK    8  A    between atoms: N5_20  and  C13_22
REMARK    9  A    between atoms: C16_25  and  N6_26
REMARK   10  A    between atoms: N7_29  and  C19_30
REMARK   11  A    between atoms: C23_34  and  N8_35
REMARK   12  A    between atoms: C29_46  and  O2_47
ROOT
HETATM    1  C11 UNL     1      47.552   7.951  -2.248  1.00  0.00     0.144 A
HETATM    2  N4  UNL     1      48.665   7.728  -1.543  1.00  0.00    -0.175 N
ATOM      3  H4  UNL     1      48.673   7.948  -0.546  1.00  0.00     0.186 HD
HETATM    4  C12 UNL     1      49.790   7.215  -2.119  1.00  0.00     0.684 A
HETATM    5  N10 UNL     1      49.817   6.914  -3.426  1.00  0.00    -0.200 N
ATOM      6  H10 UNL     1      50.665   6.531  -3.845  1.00  0.00     0.183 HD
HETATM    7  C27 UNL     1      48.724   7.115  -4.186  1.00  0.00     0.133 A
HETATM    8  C28 UNL     1      47.570   7.644  -3.589  1.00  0.00     0.094 A
HETATM    9 CL1  UNL     1      46.178   7.893  -4.596  1.00  0.00    -0.079 Cl
ENDROOT
BRANCH   1  10
HETATM   10  N3  UNL     1      46.522   8.423  -1.715  1.00  0.00    -0.336 N
ATOM     11  H3  UNL     1      45.647   7.962  -1.965  1.00  0.00     0.168 HD
BRANCH  10  12
HETATM   12  C10 UNL     1      46.405   9.500  -0.821  1.00  0.00     0.101 A
HETATM   13  C8  UNL     1      46.019  10.758  -1.236  1.00  0.00     0.100 A
HETATM   14  C7  UNL     1      45.906  11.818  -0.360  1.00  0.00     0.068 A
HETATM   15  C6  UNL     1      46.178  11.655   0.996  1.00  0.00     0.036 A
HETATM   16  C31 UNL     1      46.560  10.416   1.420  1.00  0.00     0.068 A
HETATM   17  C29 UNL     1      46.675   9.341   0.521  1.00  0.00     0.100 A
BRANCH  13  18
HETATM   18  O1  UNL     1      45.745  10.929  -2.588  1.00  0.00    -0.353 OA
HETATM   19  C9  UNL     1      44.406  11.130  -3.004  1.00  0.00     0.210 C
ENDBRANCH  13  18
BRANCH  15  20
HETATM   20  N2  UNL     1      46.053  12.778   1.895  1.00  0.00    -0.371 N
HETATM   21  C5  UNL     1      45.222  13.887   1.502  1.00  0.00     0.168 C
HETATM   22  C4  UNL     1      45.167  14.991   2.477  1.00  0.00     0.083 C
HETATM   23  N1  UNL     1      46.315  15.195   3.267  1.00  0.00    -0.371 N
HETATM   24  C33 UNL     1      46.909  14.055   3.834  1.00  0.00     0.083 C
HETATM   25  C32 UNL     1      46.745  12.765   3.128  1.00  0.00     0.168 C
BRANCH  23  26
HETATM   26  C3  UNL     1      47.160  16.287   2.957  1.00  0.00     0.127 C
BRANCH  26  27
HETATM   27  C2  UNL     1      48.347  16.474   3.841  1.00  0.00     0.016 C
HETATM   28  C1  UNL     1      47.919  17.412   4.980  1.00  0.00     0.006 C
ENDBRANCH  26  27
ENDBRANCH  23  26
ENDBRANCH  15  20
BRANCH  17  29
HETATM   29  O2  UNL     1      47.063   8.102   0.979  1.00  0.00    -0.353 OA
HETATM   30  C30 UNL     1      48.026   7.986   2.014  1.00  0.00     0.210 C
ENDBRANCH  17  29
ENDBRANCH  10  12
ENDBRANCH   1  10
BRANCH   4  31
HETATM   31  N5  UNL     1      50.853   7.022  -1.378  1.00  0.00    -0.192 N
ATOM     32  H5  UNL     1      51.730   7.450  -1.673  1.00  0.00     0.184 HD
BRANCH  31  33
HETATM   33  C13 UNL     1      50.848   6.253  -0.190  1.00  0.00     0.051 A
HETATM   34  C14 UNL     1      50.050   5.146  -0.010  1.00  0.00     0.032 A
HETATM   35  C15 UNL     1      50.046   4.405   1.143  1.00  0.00     0.034 A
HETATM   36  C16 UNL     1      50.877   4.760   2.211  1.00  0.00     0.057 A
HETATM   37  C23 UNL     1      51.678   5.852   2.062  1.00  0.00     0.062 A
HETATM   38  C26 UNL     1      51.666   6.590   0.879  1.00  0.00     0.061 A
BRANCH  36  39
HETATM   39  N6  UNL     1      50.839   3.957   3.395  1.00  0.00    -0.376 N
HETATM   40  C17 UNL     1      49.800   4.169   4.363  1.00  0.00     0.153 C
HETATM   41  C18 UNL     1      49.807   2.982   5.335  1.00  0.00     0.292 C
HETATM   42  N7  UNL     1      51.088   2.841   5.960  1.00  0.00     0.091 N
HETATM   43  C21 UNL     1      52.196   2.776   5.063  1.00  0.00     0.292 C
HETATM   44  C22 UNL     1      51.826   2.945   3.610  1.00  0.00     0.153 C
BRANCH  42  45
HETATM   45  C19 UNL     1      51.040   1.752   6.899  1.00  0.00     0.268 C
HETATM   46  C20 UNL     1      49.659   1.140   6.852  1.00  0.00     0.037 C
ENDBRANCH  42  45
ENDBRANCH  36  39
BRANCH  37  47
HETATM   47  N8  UNL     1      52.538   6.234   3.134  1.00  0.00    -0.347 N
HETATM   48  C24 UNL     1      52.162   7.120   3.995  1.00  0.00     0.089 C
HETATM   49  C25 UNL     1      50.841   7.800   3.947  1.00  0.00     0.085 C
HETATM   50  N9  UNL     1      53.042   7.468   5.041  1.00  0.00    -0.088 NA
ATOM     51  H8  UNL     1      53.458   5.803   3.222  1.00  0.00     0.167 HD
ENDBRANCH  37  47
ENDBRANCH  31  33
ENDBRANCH   4  31
TORSDOF 12
ENDMDL