MODEL 1
REMARK VINA RESULT: -7.841218146      0.000      0.000
REMARK  15 active torsions:
REMARK  status: ('A' for Active; 'I' for Inactive)
REMARK    1  A    between atoms: C2_2  and  O1_3
REMARK    2  A    between atoms: O1_3  and  C3_4
REMARK    3  A    between atoms: C3_4  and  C4_5
REMARK    4  A    between atoms: C5_7  and  O3_8
REMARK    5  A    between atoms: O3_8  and  C6_9
REMARK    6  A    between atoms: C6_9  and  C7_10
REMARK    7  A    between atoms: C7_10  and  C8_11
REMARK    8  A    between atoms: C8_11  and  C9_12
REMARK    9  A    between atoms: C17_21  and  C18_22
REMARK   10  A    between atoms: C21_26  and  O5_27
REMARK   11  A    between atoms: O5_27  and  C22_28
REMARK   12  A    between atoms: C22_28  and  C23_30
REMARK   13  A    between atoms: C32_39  and  O7_40
REMARK   14  A    between atoms: C33_42  and  O8_43
REMARK   15  A    between atoms: C34_45  and  O9_46
ROOT
HETATM    1  C6  UNL     1      47.969   9.312   0.041  1.00  0.00     0.120 C
HETATM    2  C15 UNL     1      48.743   8.269   0.318  1.00  0.00    -0.029 C
HETATM    3  C16 UNL     1      49.314   7.519  -0.875  1.00  0.00     0.070 C
HETATM    4  C17 UNL     1      50.736   7.103  -0.630  1.00  0.00     0.126 C
HETATM    5  O4  UNL     1      51.128   6.829   0.659  1.00  0.00    -0.377 OA
HETATM    6  C20 UNL     1      50.685   7.809   1.472  1.00  0.00     0.160 C
HETATM    7  C21 UNL     1      51.085   7.916   2.885  1.00  0.00     0.166 C
HETATM    8  C26 UNL     1      49.974   7.640   3.796  1.00  0.00     0.031 A
HETATM    9  C27 UNL     1      48.752   7.848   2.874  1.00  0.00     0.012 A
HETATM   10  C28 UNL     1      49.165   7.632   1.519  1.00  0.00     0.055 C
HETATM   11  C29 UNL     1      48.990   6.586   3.789  1.00  0.00    -0.036 A
HETATM   12  C30 UNL     1      49.002   5.281   3.105  1.00  0.00     0.015 C
HETATM   13  C31 UNL     1      48.006   6.562   4.981  1.00  0.00     0.015 C
ENDROOT
BRANCH   1  14
HETATM   14  O3  UNL     1      47.825   9.500  -1.359  1.00  0.00    -0.309 OA
BRANCH  14  15
HETATM   15  C5  UNL     1      46.625   9.634  -2.000  1.00  0.00     0.299 C
HETATM   16  O2  UNL     1      45.788   8.531  -1.660  1.00  0.00    -0.348 OA
HETATM   17  C4  UNL     1      44.515   8.860  -2.224  1.00  0.00     0.179 C
HETATM   18  C34 UNL     1      44.508   8.547  -3.662  1.00  0.00     0.180 C
HETATM   19  C33 UNL     1      45.937   8.765  -4.202  1.00  0.00     0.183 C
HETATM   20  C32 UNL     1      46.573   9.884  -3.448  1.00  0.00     0.205 C
BRANCH  17  21
HETATM   21  C3  UNL     1      43.466   8.219  -1.390  1.00  0.00     0.202 C
BRANCH  21  22
HETATM   22  O1  UNL     1      42.276   7.940  -1.911  1.00  0.00    -0.389 OA
BRANCH  22  23
HETATM   23  C2  UNL     1      41.397   8.692  -2.528  1.00  0.00     0.163 C
HETATM   24  C1  UNL     1      40.722   8.138  -3.770  1.00  0.00     0.033 C
ENDBRANCH  22  23
ENDBRANCH  21  22
ENDBRANCH  17  21
BRANCH  18  25
HETATM   25  O9  UNL     1      44.249   7.219  -3.992  1.00  0.00    -0.390 OA
ATOM     26  H9  UNL     1      43.897   7.070  -4.861  1.00  0.00     0.210 HD
ENDBRANCH  18  25
BRANCH  19  27
HETATM   27  O8  UNL     1      46.623   7.586  -4.012  1.00  0.00    -0.390 OA
ATOM     28  H8  UNL     1      47.558   7.714  -4.122  1.00  0.00     0.210 HD
ENDBRANCH  19  27
BRANCH  20  29
HETATM   29  O7  UNL     1      45.934  11.115  -3.758  1.00  0.00    -0.388 OA
ATOM     30  H7  UNL     1      45.111  10.987  -4.215  1.00  0.00     0.210 HD
ENDBRANCH  20  29
ENDBRANCH  14  15
ENDBRANCH   1  14
BRANCH   1  31
HETATM   31  C7  UNL     1      47.376  10.155   0.981  1.00  0.00    -0.091 C
BRANCH  31  32
HETATM   32  C8  UNL     1      46.835  10.922   1.839  1.00  0.00     0.069 C
BRANCH  32  33
HETATM   33  C9  UNL     1      46.324  12.268   1.844  1.00  0.00    -0.029 A
HETATM   34  C10 UNL     1      45.240  12.716   1.172  1.00  0.00     0.013 A
HETATM   35  C11 UNL     1      44.769  14.047   1.244  1.00  0.00     0.024 A
HETATM   36  C12 UNL     1      45.438  14.952   2.037  1.00  0.00     0.034 A
HETATM   37 CL1  UNL     1      44.892  16.618   2.158  1.00  0.00    -0.084 Cl
HETATM   38  C13 UNL     1      46.539  14.507   2.721  1.00  0.00     0.024 A
HETATM   39  C14 UNL     1      46.985  13.197   2.636  1.00  0.00     0.013 A
ENDBRANCH  32  33
ENDBRANCH  31  32
ENDBRANCH   1  31
BRANCH   4  40
HETATM   40  C18 UNL     1      51.252   6.103  -1.635  1.00  0.00     0.028 C
HETATM   41  C19 UNL     1      50.596   4.765  -1.557  1.00  0.00     0.007 C
ENDBRANCH   4  40
BRANCH   7  42
HETATM   42  O5  UNL     1      52.340   7.447   3.217  1.00  0.00    -0.313 OA
BRANCH  42  43
HETATM   43  C22 UNL     1      52.685   6.775   4.315  1.00  0.00     0.263 C
HETATM   44  O6  UNL     1      53.135   7.494   5.235  1.00  0.00    -0.265 OA
BRANCH  43  45
HETATM   45  C23 UNL     1      52.609   5.322   4.576  1.00  0.00     0.085 A
HETATM   46  C24 UNL     1      53.505   4.540   3.590  1.00  0.00     0.015 A
HETATM   47  C25 UNL     1      53.850   4.585   5.029  1.00  0.00     0.015 A
ENDBRANCH  43  45
ENDBRANCH  42  43
ENDBRANCH   7  42
TORSDOF 15
ENDMDL