MODEL 5
REMARK VINA RESULT: -7.090760111      3.671      5.333
REMARK  15 active torsions:
REMARK  status: ('A' for Active; 'I' for Inactive)
REMARK    1  A    between atoms: C2_2  and  C3_3
REMARK    2  A    between atoms: C3_3  and  C4_4
REMARK    3  A    between atoms: C4_4  and  O2_6
REMARK    4  A    between atoms: O2_6  and  C5_7
REMARK    5  A    between atoms: C6_8  and  O3_9
REMARK    6  A    between atoms: O3_9  and  C7_10
REMARK    7  A    between atoms: C13_17  and  C14_18
REMARK    8  A    between atoms: C14_18  and  N1_19
REMARK    9  A    between atoms: N1_19  and  C15_21
REMARK   10  A    between atoms: C15_21  and  N2_23
REMARK   11  A    between atoms: N2_23  and  C16_25
REMARK   12  A    between atoms: C23_32  and  O5_33
REMARK   13  A    between atoms: O5_33  and  C24_34
REMARK   14  A    between atoms: C29_43  and  N4_44
REMARK   15  A    between atoms: N4_44  and  N5_46
ROOT
HETATM    1  C7  UNL     1      51.918   3.202   1.378  1.00  0.00     0.270 C
HETATM    2  O4  UNL     1      51.922   2.159   2.310  1.00  0.00    -0.355 OA
HETATM    3  C8  UNL     1      50.595   1.846   2.602  1.00  0.00     0.125 C
HETATM    4  C9  UNL     1      50.068   0.961   1.523  1.00  0.00     0.040 C
HETATM    5  C10 UNL     1      49.963   3.212   2.656  1.00  0.00     0.029 C
HETATM    6  C11 UNL     1      48.502   3.279   2.521  1.00  0.00     0.035 C
HETATM    7  C12 UNL     1      48.110   4.549   1.837  1.00  0.00    -0.015 C
HETATM    8  C13 UNL     1      48.931   5.479   1.395  1.00  0.00    -0.017 C
HETATM    9  C23 UNL     1      50.447   5.279   1.570  1.00  0.00     0.176 C
HETATM   10  C25 UNL     1      50.568   3.802   1.375  1.00  0.00     0.082 C
ENDROOT
BRANCH   1  11
HETATM   11  O3  UNL     1      52.957   4.070   1.526  1.00  0.00    -0.328 OA
BRANCH  11  12
HETATM   12  C6  UNL     1      54.154   3.505   1.178  1.00  0.00     0.295 C
HETATM   13  C5  UNL     1      54.930   2.869   2.280  1.00  0.00     0.214 C
HETATM   14  C29 UNL     1      56.322   2.422   1.894  1.00  0.00     0.171 C
HETATM   15  C28 UNL     1      57.034   3.468   1.076  1.00  0.00     0.225 C
HETATM   16  C26 UNL     1      56.080   3.951  -0.001  1.00  0.00     0.157 C
HETATM   17  F1  UNL     1      57.374   4.515   1.918  1.00  0.00    -0.244 F
HETATM   18  O7  UNL     1      54.922   4.481   0.555  1.00  0.00    -0.351 OA
HETATM   19  C27 UNL     1      56.777   5.037  -0.777  1.00  0.00     0.042 C
BRANCH  13  20
HETATM   20  O2  UNL     1      54.980   3.581   3.491  1.00  0.00    -0.309 OA
BRANCH  20  21
HETATM   21  C4  UNL     1      54.127   3.314   4.548  1.00  0.00     0.259 C
HETATM   22  O1  UNL     1      53.996   2.112   4.904  1.00  0.00    -0.265 OA
BRANCH  21  23
HETATM   23  C3  UNL     1      53.363   4.341   5.286  1.00  0.00     0.111 C
BRANCH  23  24
HETATM   24  C2  UNL     1      51.977   3.864   5.680  1.00  0.00     0.005 C
HETATM   25  C1  UNL     1      51.971   3.801   7.204  1.00  0.00     0.005 C
ENDBRANCH  23  24
ENDBRANCH  21  23
ENDBRANCH  20  21
ENDBRANCH  13  20
BRANCH  14  26
HETATM   26  N4  UNL     1      57.099   2.102   3.086  1.00  0.00    -0.312 N
ATOM     27  H4  UNL     1      57.925   2.643   3.345  1.00  0.00     0.182 HD
BRANCH  26  28
HETATM   28  N5  UNL     1      56.707   1.136   3.775  1.00  0.00    -0.253 N
HETATM   29  N6  UNL     1      56.703   0.405   4.781  1.00  0.00    -0.331 N
ATOM     30  H62 UNL     1      57.422   0.862   5.341  1.00  0.00     0.178 HD
ATOM     31  H61 UNL     1      56.383  -0.383   5.343  1.00  0.00     0.178 HD
ATOM     32  H5  UNL     1      55.994   0.709   3.183  1.00  0.00     0.207 HD
ENDBRANCH  26  28
ENDBRANCH  14  26
ENDBRANCH  11  12
ENDBRANCH   1  11
BRANCH   9  33
HETATM   33  O5  UNL     1      50.666   5.586   2.936  1.00  0.00    -0.296 OA
BRANCH  33  34
HETATM   34  C24 UNL     1      51.062   6.828   3.366  1.00  0.00     0.373 C
HETATM   35  N3  UNL     1      50.107   7.794   3.846  1.00  0.00    -0.032 NA
HETATM   36  O6  UNL     1      52.296   7.073   3.314  1.00  0.00    -0.242 OA
ENDBRANCH  33  34
ENDBRANCH   9  33
BRANCH   8  37
HETATM   37  C14 UNL     1      48.501   6.689   0.737  1.00  0.00     0.100 C
BRANCH  37  38
HETATM   38  N1  UNL     1      47.763   7.624   1.517  1.00  0.00    -0.343 N
ATOM     39  H1  UNL     1      47.185   7.286   2.286  1.00  0.00     0.167 HD
BRANCH  38  40
HETATM   40  C15 UNL     1      47.818   9.044   1.241  1.00  0.00     0.176 C
HETATM   41  S1  UNL     1      48.314   9.500  -0.214  1.00  0.00    -0.041 SA
BRANCH  40  42
HETATM   42  N2  UNL     1      47.412   9.953   2.224  1.00  0.00    -0.333 N
ATOM     43  H2  UNL     1      47.648   9.705   3.185  1.00  0.00     0.168 HD
BRANCH  42  44
HETATM   44  C16 UNL     1      46.722  11.166   2.056  1.00  0.00     0.034 A
HETATM   45  C17 UNL     1      45.543  11.127   1.302  1.00  0.00     0.029 A
HETATM   46  C18 UNL     1      44.805  12.269   1.104  1.00  0.00     0.003 A
HETATM   47  C19 UNL     1      45.185  13.481   1.629  1.00  0.00     0.007 A
HETATM   48  C20 UNL     1      46.339  13.543   2.374  1.00  0.00    -0.060 A
HETATM   49  C21 UNL     1      46.749  14.844   2.942  1.00  0.00     0.048 C
HETATM   50  C22 UNL     1      47.065  12.377   2.560  1.00  0.00     0.036 A
ENDBRANCH  42  44
ENDBRANCH  40  42
ENDBRANCH  38  40
ENDBRANCH  37  38
ENDBRANCH   8  37
TORSDOF 15
ENDMDL