MODEL 3
REMARK VINA RESULT: -6.658610168      7.826     11.378
REMARK  15 active torsions:
REMARK  status: ('A' for Active; 'I' for Inactive)
REMARK    1  A    between atoms: C2_2  and  O2_4
REMARK    2  A    between atoms: O2_4  and  C3_5
REMARK    3  A    between atoms: C4_6  and  O3_7
REMARK    4  A    between atoms: C17_22  and  C18_23
REMARK    5  A    between atoms: C18_23  and  O5_24
REMARK    6  A    between atoms: O5_24  and  C19_25
REMARK    7  A    between atoms: C19_25  and  C21_27
REMARK    8  A    between atoms: C22_28  and  O6_29
REMARK    9  A    between atoms: C22_28  and  C29_37
REMARK   10  A    between atoms: O6_29  and  C23_30
REMARK   11  A    between atoms: C23_30  and  C24_32
REMARK   12  A    between atoms: C24_32  and  C25_33
REMARK   13  A    between atoms: C25_33  and  C26_34
REMARK   14  A    between atoms: C29_37  and  O8_40
REMARK   15  A    between atoms: C33_44  and  O9_45
ROOT
HETATM    1  C3  UNL     1      52.924   1.703   5.243  1.00  0.00     0.169 C
HETATM    2  C4  UNL     1      52.759   1.845   6.715  1.00  0.00     0.170 C
HETATM    3  C5  UNL     1      52.042   3.086   7.103  1.00  0.00     0.004 C
HETATM    4  C6  UNL     1      51.823   4.133   6.322  1.00  0.00    -0.018 C
HETATM    5  C7  UNL     1      52.323   4.084   4.948  1.00  0.00    -0.008 C
HETATM    6  C8  UNL     1      53.836   4.302   5.055  1.00  0.00     0.021 C
HETATM    7  C9  UNL     1      52.068   2.665   4.441  1.00  0.00     0.031 C
HETATM    8  C10 UNL     1      50.612   2.373   4.488  1.00  0.00     0.011 C
HETATM    9  C11 UNL     1      49.710   3.578   4.485  1.00  0.00     0.042 C
HETATM   10  C12 UNL     1      50.284   4.734   3.660  1.00  0.00     0.099 A
HETATM   11  O4  UNL     1      50.008   6.006   4.164  1.00  0.00    -0.376 OA
HETATM   12  C13 UNL     1      51.321   6.319   4.553  1.00  0.00     0.182 A
HETATM   13  C14 UNL     1      51.709   5.005   3.950  1.00  0.00     0.026 A
HETATM   14  C15 UNL     1      52.570   5.141   2.729  1.00  0.00     0.016 C
HETATM   15  C16 UNL     1      52.330   6.336   1.881  1.00  0.00     0.009 C
HETATM   16  C17 UNL     1      50.981   6.647   1.418  1.00  0.00     0.030 C
HETATM   17  C32 UNL     1      49.974   5.579   1.257  1.00  0.00     0.120 C
HETATM   18 CL1  UNL     1      48.367   6.243   0.807  1.00  0.00    -0.122 Cl
HETATM   19  C33 UNL     1      49.864   4.523   2.259  1.00  0.00     0.172 C
ENDROOT
BRANCH  16  20
HETATM   20  C18 UNL     1      50.994   7.485   0.113  1.00  0.00     0.174 C
BRANCH  20  21
HETATM   21  O5  UNL     1      51.372   8.783   0.401  1.00  0.00    -0.382 OA
BRANCH  21  22
HETATM   22  C19 UNL     1      50.638   9.751  -0.227  1.00  0.00     0.142 C
HETATM   23  C20 UNL     1      51.413  10.549  -1.243  1.00  0.00     0.044 C
BRANCH  22  24
HETATM   24  C21 UNL     1      49.399   9.264  -0.878  1.00  0.00     0.040 C
HETATM   25  C22 UNL     1      48.188   9.681  -0.566  1.00  0.00     0.089 C
BRANCH  25  26
HETATM   26  O6  UNL     1      47.945  10.624   0.413  1.00  0.00    -0.280 OA
BRANCH  26  27
HETATM   27  C23 UNL     1      47.368  10.430   1.628  1.00  0.00     0.263 C
HETATM   28  O7  UNL     1      47.461   9.336   2.201  1.00  0.00    -0.265 OA
BRANCH  27  29
HETATM   29  C24 UNL     1      46.623  11.577   2.243  1.00  0.00     0.112 C
BRANCH  29  30
HETATM   30  C25 UNL     1      45.248  11.611   1.650  1.00  0.00     0.013 C
BRANCH  30  31
HETATM   31  C26 UNL     1      44.812  13.004   1.274  1.00  0.00    -0.022 C
HETATM   32  C27 UNL     1      45.602  14.053   2.024  1.00  0.00     0.009 C
HETATM   33  C28 UNL     1      45.017  13.280  -0.202  1.00  0.00     0.009 C
ENDBRANCH  30  31
ENDBRANCH  29  30
ENDBRANCH  27  29
ENDBRANCH  26  27
ENDBRANCH  25  26
BRANCH  25  34
HETATM   34  C29 UNL     1      47.023   9.117  -1.293  1.00  0.00     0.099 C
HETATM   35  C30 UNL     1      46.307  10.209  -2.033  1.00  0.00     0.053 C
HETATM   36  C31 UNL     1      47.499   8.033  -2.253  1.00  0.00     0.053 C
BRANCH  34  37
HETATM   37  O8  UNL     1      46.161   8.500  -0.396  1.00  0.00    -0.384 OA
ATOM     38  H8  UNL     1      45.344   8.981  -0.350  1.00  0.00     0.211 HD
ENDBRANCH  34  37
ENDBRANCH  25  34
ENDBRANCH  22  24
ENDBRANCH  21  22
ENDBRANCH  20  21
ENDBRANCH  16  20
BRANCH  19  39
HETATM   39  O9  UNL     1      50.300   3.290   1.759  1.00  0.00    -0.391 OA
ATOM     40  H9  UNL     1      51.246   3.247   1.688  1.00  0.00     0.210 HD
ENDBRANCH  19  39
BRANCH   1  41
HETATM   41  O2  UNL     1      52.712   0.375   4.861  1.00  0.00    -0.313 OA
BRANCH  41  42
HETATM   42  C2  UNL     1      53.778  -0.418   4.475  1.00  0.00     0.255 C
HETATM   43  C1  UNL     1      55.035   0.118   3.904  1.00  0.00     0.126 C
HETATM   44  O1  UNL     1      53.718  -1.686   4.600  1.00  0.00    -0.266 OA
ENDBRANCH  41  42
ENDBRANCH   1  41
BRANCH   2  45
HETATM   45  O3  UNL     1      52.152   0.710   7.275  1.00  0.00    -0.389 OA
ATOM     46  H3  UNL     1      52.322   0.649   8.207  1.00  0.00     0.210 HD
ENDBRANCH   2  45
TORSDOF 15
ENDMDL