MODEL 5
REMARK VINA RESULT: -6.662739110      5.084      8.891
REMARK  15 active torsions:
REMARK  status: ('A' for Active; 'I' for Inactive)
REMARK    1  A    between atoms: C13_16  and  C14_17
REMARK    2  A    between atoms: C14_17  and  C15_18
REMARK    3  A    between atoms: C15_18  and  C16_19
REMARK    4  A    between atoms: C18_21  and  O3_22
REMARK    5  A    between atoms: C19_24  and  C20_25
REMARK    6  A    between atoms: C20_25  and  O4_26
REMARK    7  A    between atoms: C21_28  and  O5_29
REMARK    8  A    between atoms: C22_31  and  C23_32
REMARK    9  A    between atoms: C23_32  and  O6_33
REMARK   10  A    between atoms: O6_33  and  C24_34
REMARK   11  A    between atoms: C24_34  and  C25_36
REMARK   12  A    between atoms: C25_36  and  C26_37
REMARK   13  A    between atoms: C25_36  and  C28_39
REMARK   14  A    between atoms: C33_44  and  O8_45
REMARK   15  A    between atoms: O8_45  and  C34_46
ROOT
HETATM    1  C16 UNL     1      49.891   6.875   2.390  1.00  0.00    -0.010 C
HETATM    2  C17 UNL     1      50.917   6.489   1.318  1.00  0.00     0.018 C
HETATM    3  C18 UNL     1      50.734   7.919   3.231  1.00  0.00     0.135 C
HETATM    4  C19 UNL     1      51.925   7.348   3.858  1.00  0.00     0.068 C
HETATM    5  C21 UNL     1      51.936   5.952   4.257  1.00  0.00     0.133 C
HETATM    6  C22 UNL     1      50.919   5.036   3.527  1.00  0.00     0.048 C
HETATM    7  C30 UNL     1      49.634   5.761   3.319  1.00  0.00    -0.030 C
HETATM    8  C31 UNL     1      48.574   4.811   2.787  1.00  0.00     0.016 C
HETATM    9  C32 UNL     1      49.066   6.182   4.663  1.00  0.00     0.016 C
ENDROOT
BRANCH   1  10
HETATM   10  C15 UNL     1      48.839   7.726   1.814  1.00  0.00     0.013 C
BRANCH  10  11
HETATM   11  C14 UNL     1      48.377   7.511   0.406  1.00  0.00     0.011 C
BRANCH  11  12
HETATM   12  C13 UNL     1      47.915   8.771  -0.268  1.00  0.00     0.057 C
HETATM   13  C12 UNL     1      47.725   9.849   0.751  1.00  0.00     0.171 C
HETATM   14  C10 UNL     1      47.790  11.192   0.112  1.00  0.00     0.160 C
HETATM   15  O2  UNL     1      46.563  10.230   1.291  1.00  0.00    -0.379 OA
HETATM   16  C9  UNL     1      46.877  11.298  -1.045  1.00  0.00     0.091 C
HETATM   17  F1  UNL     1      49.046  11.715  -0.075  1.00  0.00    -0.237 F
HETATM   18  C11 UNL     1      47.193  11.494   1.485  1.00  0.00     0.215 C
HETATM   19  C2  UNL     1      45.430  11.324  -0.789  1.00  0.00    -0.079 C
HETATM   20  C8  UNL     1      47.175  10.274  -2.060  1.00  0.00     0.176 C
HETATM   21  C1  UNL     1      44.947  12.509  -0.426  1.00  0.00     0.015 C
HETATM   22  C3  UNL     1      44.355  10.320  -0.857  1.00  0.00     0.034 C
HETATM   23  C4  UNL     1      44.670   8.909  -1.055  1.00  0.00     0.019 C
HETATM   24  C5  UNL     1      45.823   8.416  -1.762  1.00  0.00     0.080 C
HETATM   25  C6  UNL     1      45.688   8.891  -3.191  1.00  0.00     0.045 C
HETATM   26  C33 UNL     1      47.214   8.786  -1.528  1.00  0.00     0.113 C
HETATM   27  C7  UNL     1      45.299   8.391  -4.279  1.00  0.00     0.046 C
HETATM   28  O1  UNL     1      46.179  10.221  -3.072  1.00  0.00    -0.347 OA
BRANCH  26  29
HETATM   29  O8  UNL     1      48.037   8.281  -2.557  1.00  0.00    -0.306 OA
BRANCH  29  30
HETATM   30  C34 UNL     1      49.200   8.561  -3.077  1.00  0.00     0.255 C
HETATM   31  C35 UNL     1      50.496   8.769  -2.374  1.00  0.00     0.126 C
HETATM   32  O9  UNL     1      49.158   8.658  -4.311  1.00  0.00    -0.266 OA
ENDBRANCH  29  30
ENDBRANCH  26  29
ENDBRANCH  11  12
ENDBRANCH  10  11
ENDBRANCH   1  10
BRANCH   3  33
HETATM   33  O3  UNL     1      49.860   8.615   4.056  1.00  0.00    -0.394 OA
ATOM     34  H3  UNL     1      49.046   8.744   3.583  1.00  0.00     0.210 HD
ENDBRANCH   3  33
BRANCH   4  35
HETATM   35  C20 UNL     1      52.432   8.359   4.885  1.00  0.00     0.173 C
BRANCH  35  36
HETATM   36  O4  UNL     1      52.436   9.666   4.511  1.00  0.00    -0.400 OA
ATOM     37  H4  UNL     1      51.924  10.266   5.040  1.00  0.00     0.209 HD
ENDBRANCH  35  36
ENDBRANCH   4  35
BRANCH   6  38
HETATM   38  C23 UNL     1      50.968   3.772   4.284  1.00  0.00     0.186 C
BRANCH  38  39
HETATM   39  O6  UNL     1      52.128   3.013   4.341  1.00  0.00    -0.321 OA
BRANCH  39  40
HETATM   40  C24 UNL     1      52.581   2.422   5.541  1.00  0.00     0.263 C
HETATM   41  O7  UNL     1      53.420   3.025   6.202  1.00  0.00    -0.265 OA
BRANCH  40  42
HETATM   42  C25 UNL     1      52.032   1.102   5.970  1.00  0.00     0.085 C
BRANCH  42  43
HETATM   43  C26 UNL     1      53.183   0.370   6.646  1.00  0.00     0.010 C
HETATM   44  C27 UNL     1      53.929  -0.503   5.708  1.00  0.00     0.006 C
ENDBRANCH  42  43
BRANCH  42  45
HETATM   45  C28 UNL     1      50.987   1.381   7.059  1.00  0.00     0.010 C
HETATM   46  C29 UNL     1      49.573   1.155   6.549  1.00  0.00     0.006 C
ENDBRANCH  42  45
ENDBRANCH  40  42
ENDBRANCH  39  40
ENDBRANCH  38  39
ENDBRANCH   6  38
BRANCH   5  47
HETATM   47  O5  UNL     1      51.863   5.634   5.603  1.00  0.00    -0.395 OA
ATOM     48  H5  UNL     1      51.490   4.799   5.862  1.00  0.00     0.210 HD
ENDBRANCH   5  47
TORSDOF 15
ENDMDL