MODEL 5
REMARK VINA RESULT: -5.495369744      1.700      3.466
REMARK  3 active torsions:
REMARK  status: ('A' for Active; 'I' for Inactive)
REMARK    1  A    between atoms: O1_2  and  C2_3
REMARK    2  A    between atoms: C9_10  and  N1_11
REMARK    3  A    between atoms: C14_19  and  O2_20
ROOT
HETATM    1  C2  UNL     1      29.384 -31.892   0.147  1.00  0.00     0.129 C
HETATM    2  C3  UNL     1      29.932 -30.659   0.832  1.00  0.00     0.018 C
HETATM    3  C4  UNL     1      30.318 -31.054   2.234  1.00  0.00     0.014 C
HETATM    4  C5  UNL     1      31.435 -32.066   2.128  1.00  0.00     0.018 C
HETATM    5  C6  UNL     1      31.029 -33.305   1.397  1.00  0.00     0.014 C
HETATM    6  C7  UNL     1      30.529 -32.873   0.033  1.00  0.00     0.018 C
HETATM    7  C8  UNL     1      31.681 -32.240  -0.669  1.00  0.00     0.041 C
HETATM    8  C9  UNL     1      32.241 -31.011   0.029  1.00  0.00     0.066 C
HETATM    9  C13 UNL     1      31.072 -30.031   0.076  1.00  0.00     0.041 C
HETATM   10  C14 UNL     1      32.592 -31.367   1.446  1.00  0.00     0.151 C
ENDROOT
BRANCH   8  11
HETATM   11  N1  UNL     1      33.339 -30.550  -0.751  1.00  0.00    -0.323 N
HETATM   12  C10 UNL     1      34.658 -30.613  -0.385  1.00  0.00     0.184 A
HETATM   13  N2  UNL     1      35.447 -30.095  -1.338  1.00  0.00    -0.359 N
HETATM   14  C11 UNL     1      34.631 -29.695  -2.321  1.00  0.00     0.126 A
ATOM     15  H2  UNL     1      36.464 -30.020  -1.317  1.00  0.00     0.166 HD
HETATM   16  C12 UNL     1      33.335 -29.978  -1.955  1.00  0.00     0.099 A
HETATM   17 BR1  UNL     1      31.780 -29.618  -2.985  1.00  0.00    -0.029 Br
ENDBRANCH   8  11
BRANCH  10  18
HETATM   18  O2  UNL     1      33.672 -32.242   1.482  1.00  0.00    -0.393 OA
ATOM     19  H2  UNL     1      34.081 -32.142   2.334  1.00  0.00     0.210 HD
ENDBRANCH  10  18
BRANCH   1  20
HETATM   20  O1  UNL     1      28.955 -31.555  -1.117  1.00  0.00    -0.390 OA
HETATM   21  C1  UNL     1      27.566 -31.438  -1.199  1.00  0.00     0.202 C
ENDBRANCH   1  20
TORSDOF 3
ENDMDL