MODEL 3
REMARK VINA RESULT: -6.298650281      1.823      2.013
REMARK  4 active torsions:
REMARK  status: ('A' for Active; 'I' for Inactive)
REMARK    1  A    between atoms: C2_2  and  C3_3
REMARK    2  A    between atoms: C4_4  and  C5_5
REMARK    3  A    between atoms: C7_8  and  C9_10
REMARK       I    between atoms: N1_14  and  C12_15
REMARK       I    between atoms: C12_15  and  N2_17
REMARK    4  A    between atoms: N2_17  and  C13_19
ROOT
HETATM    1  C5  UNL     1      29.191 -32.707  -0.017  1.00  0.00     0.247 C
HETATM    2  F1  UNL     1      29.126 -34.053  -0.324  1.00  0.00    -0.204 F
HETATM    3  C6  UNL     1      28.953 -32.495   1.488  1.00  0.00     0.099 C
HETATM    4  C7  UNL     1      30.278 -32.846   2.082  1.00  0.00     0.038 C
HETATM    5  C8  UNL     1      30.798 -31.741   2.980  1.00  0.00     0.025 C
HETATM    6  C11 UNL     1      31.241 -32.958   0.924  1.00  0.00     0.149 C
HETATM    7  N1  UNL     1      30.542 -32.234  -0.153  1.00  0.00    -0.286 N
HETATM    8  C12 UNL     1      31.138 -31.322  -1.058  1.00  0.00     0.326 C
HETATM    9  O2  UNL     1      30.425 -30.779  -1.934  1.00  0.00    -0.247 OA
HETATM   10  N2  UNL     1      32.511 -31.016  -0.992  1.00  0.00    -0.306 N
ATOM     11  H2  UNL     1      33.050 -31.483  -0.263  1.00  0.00     0.171 HD
ENDROOT
BRANCH   1  12
HETATM   12  C4  UNL     1      28.273 -31.914  -0.802  1.00  0.00    -0.041 C
HETATM   13  C3  UNL     1      27.479 -31.267  -1.464  1.00  0.00    -0.102 C
BRANCH  13  14
HETATM   14  C2  UNL     1      26.524 -30.510  -2.275  1.00  0.00     0.089 C
HETATM   15  C1  UNL     1      26.503 -31.095  -3.647  1.00  0.00     0.018 C
ENDBRANCH  13  14
ENDBRANCH   1  12
BRANCH   4  16
HETATM   16  C9  UNL     1      30.170 -34.121   2.840  1.00  0.00     0.133 C
HETATM   17  C10 UNL     1      30.585 -35.439   2.289  1.00  0.00     0.091 C
HETATM   18  O1  UNL     1      29.724 -34.114   3.973  1.00  0.00    -0.297 OA
ENDBRANCH   4  16
BRANCH  10  19
HETATM   19  C13 UNL     1      33.217 -30.128  -1.832  1.00  0.00     0.077 A
HETATM   20  C14 UNL     1      32.719 -29.300  -2.801  1.00  0.00     0.141 A
HETATM   21  N3  UNL     1      33.751 -28.630  -3.355  1.00  0.00    -0.305 N
HETATM   22  C15 UNL     1      33.666 -27.637  -4.434  1.00  0.00     0.177 C
HETATM   23  N4  UNL     1      34.859 -29.013  -2.766  1.00  0.00    -0.301 N
HETATM   24  C16 UNL     1      34.603 -29.929  -1.824  1.00  0.00     0.050 A
ATOM     25  H4  UNL     1      35.789 -28.662  -2.995  1.00  0.00     0.187 HD
HETATM   26  C17 UNL     1      35.581 -30.599  -0.948  1.00  0.00     0.072 C
ENDBRANCH  10  19
TORSDOF 4
ENDMDL