MODEL 2
REMARK VINA RESULT: -6.436585838      0.052      1.067
REMARK  2 active torsions:
REMARK  status: ('A' for Active; 'I' for Inactive)
REMARK    1  A    between atoms: C3_6  and  N2_7
REMARK    2  A    between atoms: N3_10  and  C6_11
ROOT
HETATM    1  N2  UNL     1      31.911 -31.131  -0.572  1.00  0.00    -0.214 N
HETATM    2  C4  UNL     1      31.043 -30.263  -1.332  1.00  0.00     0.171 C
HETATM    3  C5  UNL     1      31.542 -30.059  -2.747  1.00  0.00     0.293 C
HETATM    4  N3  UNL     1      32.906 -29.624  -2.668  1.00  0.00     0.096 N
HETATM    5  C12 UNL     1      33.699 -30.648  -2.092  1.00  0.00     0.293 C
HETATM    6  C13 UNL     1      33.335 -30.891  -0.643  1.00  0.00     0.171 C
ENDROOT
BRANCH   1   7
HETATM    7  C3  UNL     1      31.352 -32.180   0.211  1.00  0.00     0.680 A
HETATM    8  N1  UNL     1      30.243 -32.848  -0.150  1.00  0.00    -0.201 N
HETATM    9  C2  UNL     1      29.713 -33.827   0.575  1.00  0.00     0.126 A
ATOM     10  H1  UNL     1      29.785 -32.589  -1.024  1.00  0.00     0.183 HD
HETATM   11  C1  UNL     1      30.303 -34.211   1.771  1.00  0.00     0.042 A
HETATM   12 BR1  UNL     1      29.562 -35.618   2.830  1.00  0.00    -0.048 Br
HETATM   13  C14 UNL     1      31.444 -33.526   2.145  1.00  0.00     0.126 A
HETATM   14  N4  UNL     1      31.932 -32.544   1.368  1.00  0.00    -0.201 N
ATOM     15  H4  UNL     1      32.775 -32.055   1.669  1.00  0.00     0.183 HD
ENDBRANCH   1   7
BRANCH   4  16
HETATM   16  C6  UNL     1      33.410 -28.997  -3.838  1.00  0.00     0.223 C
HETATM   17  C7  UNL     1      33.049 -27.539  -3.966  1.00  0.00     0.036 C
HETATM   18  C8  UNL     1      34.271 -26.647  -3.767  1.00  0.00     0.002 C
HETATM   19  C9  UNL     1      35.210 -26.899  -4.923  1.00  0.00     0.000 C
HETATM   20  C10 UNL     1      35.263 -28.363  -5.284  1.00  0.00     0.002 C
HETATM   21  C11 UNL     1      34.878 -29.135  -4.029  1.00  0.00     0.036 C
ENDBRANCH   4  16
TORSDOF 2
ENDMDL