MODEL 1
REMARK VINA RESULT: -5.741672806      0.000      0.000
REMARK  3 active torsions:
REMARK  status: ('A' for Active; 'I' for Inactive)
REMARK    1  A    between atoms: O1_2  and  C2_3
REMARK    2  A    between atoms: C2_3  and  C3_5
REMARK    3  A    between atoms: C4_6  and  C5_7
ROOT
HETATM    1  C3  UNL     1      34.073 -31.401   0.353  1.00  0.00     0.213 C
HETATM    2  C4  UNL     1      32.760 -31.201   1.016  1.00  0.00     0.051 C
HETATM    3  C10 UNL     1      31.738 -30.461   0.226  1.00  0.00     0.015 C
HETATM    4  C11 UNL     1      31.936 -30.615  -1.274  1.00  0.00     0.061 C
HETATM    5  C12 UNL     1      33.332 -30.248  -1.626  1.00  0.00     0.048 A
HETATM    6  C13 UNL     1      33.860 -29.531  -2.689  1.00  0.00     0.052 A
HETATM    7 BR1  UNL     1      32.882 -28.756  -4.118  1.00  0.00    -0.047 Br
HETATM    8  C14 UNL     1      35.199 -29.517  -2.468  1.00  0.00     0.128 A
HETATM    9  N2  UNL     1      35.457 -30.175  -1.358  1.00  0.00    -0.307 N
ATOM     10  H2  UNL     1      36.385 -30.318  -0.960  1.00  0.00     0.186 HD
HETATM   11  N3  UNL     1      34.319 -30.624  -0.839  1.00  0.00    -0.281 N
ENDROOT
BRANCH   2  12
HETATM   12  C5  UNL     1      32.287 -32.554   1.505  1.00  0.00     0.192 C
HETATM   13  C6  UNL     1      30.852 -32.855   1.316  1.00  0.00     0.033 C
HETATM   14  C7  UNL     1      30.630 -34.305   1.700  1.00  0.00     0.004 C
HETATM   15  C8  UNL     1      31.205 -34.700   3.009  1.00  0.00     0.027 C
HETATM   16  C9  UNL     1      32.536 -34.061   3.311  1.00  0.00     0.232 C
HETATM   17  N1  UNL     1      32.583 -32.669   2.930  1.00  0.00    -0.070 N
ATOM     18  H12 UNL     1      33.468 -32.229   3.179  1.00  0.00     0.277 HD
ATOM     19  H11 UNL     1      31.969 -32.090   3.502  1.00  0.00     0.277 HD
ENDBRANCH   2  12
BRANCH   1  20
HETATM   20  C2  UNL     1      35.184 -31.050   1.302  1.00  0.00     0.283 C
HETATM   21  O2  UNL     1      36.334 -31.437   1.034  1.00  0.00    -0.263 OA
BRANCH  20  22
HETATM   22  O1  UNL     1      34.943 -30.316   2.447  1.00  0.00    -0.325 OA
HETATM   23  C1  UNL     1      35.729 -29.170   2.764  1.00  0.00     0.213 C
ENDBRANCH  20  22
ENDBRANCH   1  20
TORSDOF 3
ENDMDL