MODEL 4
REMARK VINA RESULT: -6.592078883      1.631      2.136
REMARK  4 active torsions:
REMARK  status: ('A' for Active; 'I' for Inactive)
REMARK    1  A    between atoms: N1_2  and  C2_4
REMARK    2  A    between atoms: C2_4  and  N2_6
REMARK    3  A    between atoms: N2_6  and  C3_8
REMARK    4  A    between atoms: C10_15  and  C11_16
ROOT
HETATM    1  C3  UNL     1      30.540 -32.548   0.192  1.00  0.00     0.084 C
HETATM    2  C4  UNL     1      31.006 -32.729  -1.269  1.00  0.00     0.028 C
HETATM    3  C5  UNL     1      32.403 -32.216  -1.432  1.00  0.00     0.043 C
HETATM    4  C6  UNL     1      32.602 -31.041  -0.512  1.00  0.00     0.094 C
HETATM    5  C7  UNL     1      32.646 -31.472   0.933  1.00  0.00     0.043 C
HETATM    6  C8  UNL     1      31.791 -32.705   1.056  1.00  0.00     0.028 C
HETATM    7  C9  UNL     1      33.869 -30.332  -0.945  1.00  0.00     0.100 C
HETATM    8  C10 UNL     1      33.325 -29.499  -2.069  1.00  0.00     0.046 C
HETATM    9  N4  UNL     1      32.056 -29.381  -1.884  1.00  0.00    -0.269 N
ATOM     10  H4  UNL     1      31.436 -28.861  -2.505  1.00  0.00     0.194 HD
HETATM   11  O1  UNL     1      31.635 -30.037  -0.754  1.00  0.00    -0.269 OA
ENDROOT
BRANCH   8  12
HETATM   12  C11 UNL     1      34.048 -28.914  -3.178  1.00  0.00     0.007 A
HETATM   13  C12 UNL     1      35.001 -29.620  -3.900  1.00  0.00     0.101 A
HETATM   14  N3  UNL     1      35.664 -29.048  -4.935  1.00  0.00    -0.372 N
HETATM   15  C13 UNL     1      35.417 -27.780  -5.293  1.00  0.00     0.130 A
ATOM     16  H3  UNL     1      36.360 -29.589  -5.448  1.00  0.00     0.164 HD
HETATM   17  C14 UNL     1      34.481 -27.024  -4.616  1.00  0.00     0.132 A
HETATM   18  F1  UNL     1      34.206 -25.747  -4.946  1.00  0.00    -0.205 F
HETATM   19  C15 UNL     1      33.823 -27.615  -3.577  1.00  0.00     0.058 A
ENDBRANCH   8  12
BRANCH   1  20
HETATM   20  N2  UNL     1      29.610 -33.601   0.473  1.00  0.00    -0.363 N
ATOM     21  H2  UNL     1      29.158 -34.043  -0.328  1.00  0.00     0.162 HD
BRANCH  20  22
HETATM   22  C2  UNL     1      29.259 -34.085   1.754  1.00  0.00     0.167 C
HETATM   23  S1  UNL     1      29.700 -35.587   2.193  1.00  0.00    -0.041 SA
BRANCH  22  24
HETATM   24  N1  UNL     1      28.540 -33.303   2.693  1.00  0.00    -0.372 N
HETATM   25  C1  UNL     1      29.192 -32.628   3.795  1.00  0.00     0.148 C
ATOM     26  H1  UNL     1      27.530 -33.212   2.588  1.00  0.00     0.161 HD
ENDBRANCH  22  24
ENDBRANCH  20  22
ENDBRANCH   1  20
TORSDOF 4
ENDMDL