MODEL 3
REMARK VINA RESULT: -7.150167572      2.478      3.311
REMARK  4 active torsions:
REMARK  status: ('A' for Active; 'I' for Inactive)
REMARK    1  A    between atoms: C2_2  and  C5_5
REMARK       I    between atoms: C5_5  and  N1_7
REMARK    2  A    between atoms: N2_12  and  C10_13
REMARK    3  A    between atoms: C12_17  and  C13_18
REMARK    4  A    between atoms: C13_18  and  O2_19
ROOT
HETATM    1  C5  UNL     1      28.815 -32.164   2.404  1.00  0.00     0.227 C
HETATM    2  O1  UNL     1      27.834 -32.269   1.588  1.00  0.00    -0.273 OA
HETATM    3  N1  UNL     1      30.109 -32.202   1.861  1.00  0.00    -0.351 N
HETATM    4  C6  UNL     1      31.295 -32.087   2.678  1.00  0.00     0.126 C
HETATM    5  C7  UNL     1      32.479 -32.316   1.726  1.00  0.00     0.026 C
HETATM    6  C8  UNL     1      32.461 -31.183   0.736  1.00  0.00     0.012 C
HETATM    7  C9  UNL     1      33.666 -31.235  -0.188  1.00  0.00     0.129 C
HETATM    8  N2  UNL     1      33.017 -31.049  -1.520  1.00  0.00    -0.364 N
HETATM    9  C16 UNL     1      31.919 -31.943  -1.406  1.00  0.00     0.131 C
HETATM   10  C17 UNL     1      31.240 -31.370  -0.152  1.00  0.00     0.027 C
HETATM   11  C18 UNL     1      30.271 -32.359   0.427  1.00  0.00     0.132 C
ENDROOT
BRANCH   8  12
HETATM   12  C10 UNL     1      33.538 -30.170  -2.462  1.00  0.00     0.142 A
HETATM   13  N3  UNL     1      34.824 -30.290  -2.898  1.00  0.00    -0.349 N
HETATM   14  C11 UNL     1      35.380 -29.473  -3.806  1.00  0.00     0.099 A
ATOM     15  H3  UNL     1      35.395 -31.043  -2.514  1.00  0.00     0.167 HD
HETATM   16  C12 UNL     1      34.648 -28.437  -4.357  1.00  0.00    -0.016 A
HETATM   17  C14 UNL     1      33.341 -28.273  -3.949  1.00  0.00     0.057 A
HETATM   18  C15 UNL     1      32.824 -29.149  -3.009  1.00  0.00     0.160 A
HETATM   19  F1  UNL     1      31.543 -28.957  -2.634  1.00  0.00    -0.202 F
BRANCH  16  20
HETATM   20  C13 UNL     1      35.246 -27.534  -5.355  1.00  0.00     0.204 C
BRANCH  20  21
HETATM   21  O2  UNL     1      36.004 -26.566  -4.703  1.00  0.00    -0.396 OA
ATOM     22  H2  UNL     1      35.953 -25.748  -5.185  1.00  0.00     0.209 HD
ENDBRANCH  20  21
ENDBRANCH  16  20
ENDBRANCH   8  12
BRANCH   1  23
HETATM   23  C2  UNL     1      28.477 -32.015   3.835  1.00  0.00     0.030 C
HETATM   24  C1  UNL     1      28.848 -33.254   4.633  1.00  0.00     0.025 C
HETATM   25  C3  UNL     1      26.982 -31.860   3.977  1.00  0.00     0.025 C
HETATM   26  C4  UNL     1      29.209 -30.792   4.366  1.00  0.00     0.025 C
ENDBRANCH   1  23
TORSDOF 4
ENDMDL