MODEL 1
REMARK VINA RESULT: -5.001981911      0.000      0.000
REMARK  3 active torsions:
REMARK  status: ('A' for Active; 'I' for Inactive)
REMARK    1  A    between atoms: C4_5  and  C5_6
REMARK    2  A    between atoms: C5_6  and  C8_9
REMARK    3  A    between atoms: C10_13  and  C11_14
ROOT
HETATM    1  C1  UNL     1      35.649 -29.471  -4.461  1.00  0.00     0.048 C
HETATM    2  C2  UNL     1      34.452 -30.007  -3.638  1.00  0.00     0.185 C
HETATM    3  O1  UNL     1      33.520 -29.013  -3.596  1.00  0.00    -0.373 OA
HETATM    4  C3  UNL     1      32.667 -29.037  -2.481  1.00  0.00     0.222 C
HETATM    5  C4  UNL     1      32.778 -30.391  -1.758  1.00  0.00     0.029 C
HETATM    6  N1  UNL     1      34.084 -30.466  -1.254  1.00  0.00    -0.296 N
HETATM    7  C10 UNL     1      34.835 -30.663  -0.149  1.00  0.00     0.133 A
HETATM    8  C12 UNL     1      36.205 -30.602  -0.500  1.00  0.00     0.126 A
HETATM    9  N2  UNL     1      36.239 -30.369  -1.794  1.00  0.00    -0.351 N
ATOM     10  H2  UNL     1      37.088 -30.269  -2.350  1.00  0.00     0.166 HD
HETATM   11  C13 UNL     1      35.016 -30.284  -2.260  1.00  0.00     0.117 A
ENDROOT
BRANCH   5  12
HETATM   12  C5  UNL     1      31.553 -30.905  -1.213  1.00  0.00     0.006 C
HETATM   13  C6  UNL     1      30.420 -30.443  -2.231  1.00  0.00     0.022 C
HETATM   14  C7  UNL     1      31.483 -32.417  -1.435  1.00  0.00     0.022 C
BRANCH  12  15
HETATM   15  C8  UNL     1      30.962 -30.449   0.068  1.00  0.00     0.067 C
HETATM   16  C9  UNL     1      30.460 -31.669   0.890  1.00  0.00     0.023 C
HETATM   17 BR1  UNL     1      29.362 -29.361  -0.083  1.00  0.00    -0.090 Br
ENDBRANCH  12  15
ENDBRANCH   5  12
BRANCH   7  18
HETATM   18  C11 UNL     1      34.484 -30.858   1.221  1.00  0.00     0.228 C
HETATM   19  O2  UNL     1      33.853 -31.771   1.765  1.00  0.00    -0.643 OA
HETATM   20  O3  UNL     1      34.893 -29.880   2.182  1.00  0.00    -0.643 OA
ENDBRANCH   7  18
TORSDOF 3
ENDMDL