MODEL 2
REMARK VINA RESULT: -5.239448982      2.685      4.801
REMARK  3 active torsions:
REMARK  status: ('A' for Active; 'I' for Inactive)
REMARK    1  A    between atoms: O1_2  and  C2_3
REMARK    2  A    between atoms: C10_12  and  C11_13
REMARK    3  A    between atoms: C17_21  and  O4_22
ROOT
HETATM    1  C2  UNL     1      29.777 -30.454  -0.322  1.00  0.00     0.092 C
HETATM    2  C3  UNL     1      28.766 -29.284  -0.147  1.00  0.00     0.049 C
HETATM    3  C4  UNL     1      30.672 -29.978  -1.378  1.00  0.00     0.185 A
HETATM    4  O2  UNL     1      30.878 -30.251  -2.636  1.00  0.00    -0.372 OA
HETATM    5  C5  UNL     1      31.338 -31.242  -1.906  1.00  0.00     0.154 A
HETATM    6  C6  UNL     1      32.487 -31.404  -0.993  1.00  0.00     0.035 C
HETATM    7  C7  UNL     1      32.026 -32.397   0.077  1.00  0.00     0.012 C
HETATM    8  C8  UNL     1      31.349 -31.775   1.238  1.00  0.00    -0.029 C
HETATM    9  C9  UNL     1      32.507 -31.329   2.158  1.00  0.00     0.016 C
HETATM   10  C10 UNL     1      30.522 -32.831   1.911  1.00  0.00     0.026 C
HETATM   11  C15 UNL     1      29.832 -32.343   3.184  1.00  0.00     0.048 C
HETATM   12  C16 UNL     1      28.838 -31.295   2.710  1.00  0.00     0.199 C
HETATM   13  F1  UNL     1      28.177 -30.834   3.821  1.00  0.00    -0.247 F
HETATM   14  C17 UNL     1      29.689 -30.175   2.182  1.00  0.00     0.160 C
HETATM   15  C18 UNL     1      30.529 -30.567   0.988  1.00  0.00     0.062 C
ENDROOT
BRANCH  10  16
HETATM   16  C11 UNL     1      31.066 -34.149   2.195  1.00  0.00     0.126 C
HETATM   17  C12 UNL     1      30.314 -35.378   1.895  1.00  0.00     0.034 C
HETATM   18  C13 UNL     1      31.184 -36.435   2.602  1.00  0.00     0.029 C
HETATM   19  C14 UNL     1      32.105 -35.628   3.458  1.00  0.00     0.168 C
HETATM   20  O3  UNL     1      31.672 -34.327   3.451  1.00  0.00    -0.385 OA
ENDBRANCH  10  16
BRANCH   1  21
HETATM   21  O1  UNL     1      28.992 -31.524  -0.609  1.00  0.00    -0.382 OA
HETATM   22  C1  UNL     1      27.681 -31.309  -0.899  1.00  0.00     0.202 C
ENDBRANCH   1  21
BRANCH  14  23
HETATM   23  O4  UNL     1      30.544 -29.812   3.252  1.00  0.00    -0.392 OA
ATOM     24  H4  UNL     1      30.986 -29.022   2.967  1.00  0.00     0.210 HD
ENDBRANCH  14  23
TORSDOF 3
ENDMDL