MODEL 4
REMARK VINA RESULT: -5.444528703      4.248      6.264
REMARK  3 active torsions:
REMARK  status: ('A' for Active; 'I' for Inactive)
REMARK    1  A    between atoms: N1_1  and  N2_4
REMARK    2  A    between atoms: N3_6  and  C1_8
REMARK    3  A    between atoms: C5_13  and  O1_14
ROOT
HETATM    1  C1  UNL     1      31.405 -36.370   2.571  1.00  0.00     0.204 C
HETATM    2  C2  UNL     1      29.944 -36.031   2.361  1.00  0.00    -0.046 C
HETATM    3  C3  UNL     1      29.155 -35.981   3.646  1.00  0.00     0.056 C
HETATM    4  C4  UNL     1      29.996 -35.456   4.771  1.00  0.00     0.129 C
HETATM    5  N4  UNL     1      31.058 -34.681   4.187  1.00  0.00    -0.358 N
HETATM    6  C5  UNL     1      32.015 -35.566   3.732  1.00  0.00     0.143 C
HETATM    7  C6  UNL     1      30.962 -33.332   4.093  1.00  0.00     0.091 C
HETATM    8  C7  UNL     1      29.452 -32.969   4.003  1.00  0.00     0.030 C
HETATM    9  C8  UNL     1      29.019 -32.880   2.573  1.00  0.00     0.036 C
HETATM   10  C9  UNL     1      29.902 -33.567   1.569  1.00  0.00    -0.073 C
HETATM   11  C10 UNL     1      29.656 -34.999   1.374  1.00  0.00     0.009 C
HETATM   12  C11 UNL     1      31.327 -33.124   1.628  1.00  0.00     0.046 C
HETATM   13  C12 UNL     1      31.616 -31.850   0.816  1.00  0.00     0.160 C
HETATM   14 CL1  UNL     1      32.056 -32.210  -0.839  1.00  0.00    -0.116 Cl
HETATM   15  C13 UNL     1      32.724 -31.241   1.605  1.00  0.00     0.146 C
HETATM   16  O2  UNL     1      33.424 -30.325   1.230  1.00  0.00    -0.296 OA
HETATM   17  C14 UNL     1      32.845 -31.943   2.954  1.00  0.00     0.087 C
HETATM   18  C15 UNL     1      31.510 -32.529   3.015  1.00  0.00     0.025 C
ENDROOT
BRANCH   1  19
HETATM   19  N3  UNL     1      31.589 -37.810   2.786  1.00  0.00    -0.306 N
HETATM   20  N2  UNL     1      32.692 -38.332   2.561  1.00  0.00    -0.253 N
ATOM     21  H2  UNL     1      32.805 -38.193   1.557  1.00  0.00     0.207 HD
ATOM     22  H3  UNL     1      30.812 -38.381   3.119  1.00  0.00     0.183 HD
BRANCH  20  23
HETATM   23  N1  UNL     1      33.731 -38.926   2.873  1.00  0.00    -0.331 N
ATOM     24  H12 UNL     1      33.591 -39.807   2.377  1.00  0.00     0.178 HD
ATOM     25  H11 UNL     1      34.633 -39.022   3.340  1.00  0.00     0.178 HD
ENDBRANCH  20  23
ENDBRANCH   1  19
BRANCH   6  26
HETATM   26  O1  UNL     1      33.305 -35.237   3.527  1.00  0.00    -0.348 OA
ATOM     27  H1  UNL     1      33.590 -35.389   2.633  1.00  0.00     0.219 HD
ENDBRANCH   6  26
TORSDOF 3
ENDMDL