MODEL 3
REMARK VINA RESULT: -5.972102292      4.809      6.993
REMARK  4 active torsions:
REMARK  status: ('A' for Active; 'I' for Inactive)
REMARK    1  A    between atoms: C2_2  and  N1_3
REMARK    2  A    between atoms: N2_6  and  C5_7
REMARK    3  A    between atoms: C5_7  and  N3_9
REMARK    4  A    between atoms: N3_9  and  C6_11
ROOT
HETATM    1  N3  UNL     1      31.004 -32.898  -0.414  1.00  0.00    -0.313 N
ATOM      2  H3  UNL     1      30.782 -33.763  -0.909  1.00  0.00     0.170 HD
ENDROOT
BRANCH   1   3
HETATM    3  C5  UNL     1      30.774 -32.804   0.974  1.00  0.00     0.175 C
HETATM    4  S1  UNL     1      30.523 -31.340   1.698  1.00  0.00    -0.041 SA
BRANCH   3   5
HETATM    5  N2  UNL     1      30.749 -33.986   1.794  1.00  0.00    -0.355 N
HETATM    6  C4  UNL     1      29.830 -35.054   1.451  1.00  0.00     0.144 C
HETATM    7  C3  UNL     1      29.649 -35.979   2.638  1.00  0.00     0.136 C
HETATM    8  N1  UNL     1      30.934 -36.526   2.928  1.00  0.00    -0.410 N
HETATM    9  C14 UNL     1      31.944 -35.582   3.260  1.00  0.00     0.136 C
HETATM   10  C13 UNL     1      31.593 -34.150   2.931  1.00  0.00     0.144 C
BRANCH   8  11
HETATM   11  C2  UNL     1      30.923 -37.722   3.691  1.00  0.00     0.112 C
HETATM   12  C1  UNL     1      31.711 -38.848   3.085  1.00  0.00     0.026 C
ENDBRANCH   8  11
ENDBRANCH   3   5
ENDBRANCH   1   3
BRANCH   1  13
HETATM   13  C6  UNL     1      31.543 -31.792  -1.128  1.00  0.00     0.151 A
HETATM   14  N4  UNL     1      32.797 -31.375  -1.108  1.00  0.00    -0.339 N
HETATM   15  C7  UNL     1      33.157 -30.344  -1.807  1.00  0.00     0.024 A
ATOM     16  H4  UNL     1      33.487 -31.867  -0.540  1.00  0.00     0.168 HD
HETATM   17  C8  UNL     1      32.188 -29.717  -2.556  1.00  0.00     0.011 A
HETATM   18  C12 UNL     1      34.531 -29.697  -1.937  1.00  0.00     0.061 C
HETATM   19  S2  UNL     1      30.810 -30.672  -2.194  1.00  0.00    -0.056 SA
HETATM   20  C9  UNL     1      32.472 -28.510  -3.411  1.00  0.00     0.085 C
HETATM   21  C10 UNL     1      33.874 -28.443  -3.900  1.00  0.00     0.175 C
HETATM   22  F1  UNL     1      34.503 -27.305  -3.367  1.00  0.00    -0.249 F
HETATM   23  C11 UNL     1      34.735 -29.603  -3.452  1.00  0.00     0.043 C
ENDBRANCH   1  13
TORSDOF 4
ENDMDL