MODEL 4
REMARK VINA RESULT: -5.187792858      1.431      1.861
REMARK  5 active torsions:
REMARK  status: ('A' for Active; 'I' for Inactive)
REMARK    1  A    between atoms: N1_1  and  C1_5
REMARK    2  A    between atoms: C1_5  and  C2_6
REMARK    3  A    between atoms: C2_6  and  C3_7
REMARK    4  A    between atoms: C3_7  and  N2_8
REMARK    5  A    between atoms: N2_8  and  C4_10
ROOT
HETATM    1  C4  UNL     1      34.924  51.286  19.703  1.00  0.00     0.078 C
HETATM    2  C5  UNL     1      35.503  50.541  20.904  1.00  0.00     0.026 C
HETATM    3  C6  UNL     1      35.099  49.099  20.860  1.00  0.00     0.029 C
HETATM    4  C7  UNL     1      33.682  48.931  21.348  1.00  0.00     0.232 C
HETATM    5  N3  UNL     1      32.809  48.760  20.219  1.00  0.00    -0.075 N
ATOM      6  H31 UNL     1      31.833  48.785  20.516  1.00  0.00     0.277 HD
ATOM      7  H32 UNL     1      32.859  47.803  19.871  1.00  0.00     0.277 HD
HETATM    8  C8  UNL     1      33.033  49.696  19.151  1.00  0.00     0.234 C
HETATM    9  C9  UNL     1      33.439  51.059  19.559  1.00  0.00     0.052 C
ENDROOT
BRANCH   1  10
HETATM   10  N2  UNL     1      35.126  52.703  19.823  1.00  0.00    -0.417 N
ATOM     11  H2  UNL     1      34.573  53.271  20.464  1.00  0.00     0.153 HD
BRANCH  10  12
HETATM   12  C3  UNL     1      36.131  53.272  19.005  1.00  0.00     0.115 C
BRANCH  12  13
HETATM   13  C2  UNL     1      36.282  52.564  17.684  1.00  0.00     0.046 C
BRANCH  13  14
HETATM   14  C1  UNL     1      36.316  53.571  16.550  1.00  0.00     0.231 C
BRANCH  14  15
HETATM   15  N1  UNL     1      35.498  54.703  16.943  1.00  0.00    -0.079 N
ATOM     16  H13 UNL     1      34.937  54.517  17.774  1.00  0.00     0.274 HD
ATOM     17  H12 UNL     1      36.045  55.476  17.320  1.00  0.00     0.274 HD
ATOM     18  H11 UNL     1      34.934  54.971  16.136  1.00  0.00     0.274 HD
ENDBRANCH  14  15
ENDBRANCH  13  14
ENDBRANCH  12  13
ENDBRANCH  10  12
ENDBRANCH   1  10
TORSDOF 5
ENDMDL