MODEL 4
REMARK VINA RESULT: -5.693303086      5.745      8.024
REMARK  3 active torsions:
REMARK  status: ('A' for Active; 'I' for Inactive)
REMARK    1  A    between atoms: C2_3  and  C3_4
REMARK    2  A    between atoms: C3_4  and  N2_5
REMARK    3  A    between atoms: N2_5  and  C4_7
ROOT
HETATM    1  N1  UNL     1      37.445  47.686  21.342  1.00  0.00    -0.197 NA
HETATM    2  C1  UNL     1      36.849  48.659  21.390  1.00  0.00     0.061 C
HETATM    3  C2  UNL     1      36.100  49.897  21.483  1.00  0.00     0.154 C
ENDROOT
BRANCH   3   4
HETATM    4  C3  UNL     1      34.730  49.858  20.832  1.00  0.00     0.045 C
HETATM    5  C5  UNL     1      34.585  48.761  19.847  1.00  0.00     0.059 C
HETATM    6  C6  UNL     1      33.812  49.222  18.618  1.00  0.00     0.235 C
HETATM    7  N4  UNL     1      34.572  50.248  17.924  1.00  0.00    -0.075 N
HETATM    8  C7  UNL     1      34.963  51.327  18.761  1.00  0.00     0.235 C
ATOM      9  H42 UNL     1      35.383  49.843  17.456  1.00  0.00     0.277 HD
ATOM     10  H41 UNL     1      34.060  50.589  17.111  1.00  0.00     0.277 HD
HETATM   11  C8  UNL     1      34.512  51.184  20.154  1.00  0.00     0.059 C
BRANCH   4  12
HETATM   12  N2  UNL     1      33.780  49.868  21.901  1.00  0.00    -0.378 N
ATOM     13  H2  UNL     1      33.607  49.018  22.438  1.00  0.00     0.160 HD
BRANCH  12  14
HETATM   14  C4  UNL     1      33.093  51.040  22.210  1.00  0.00     0.185 C
HETATM   15  N3  UNL     1      33.488  51.466  23.545  1.00  0.00    -0.097 NA
ENDBRANCH  12  14
ENDBRANCH   4  12
ENDBRANCH   3   4
TORSDOF 3
ENDMDL