MODEL 1
REMARK VINA RESULT: -5.749841622      0.000      0.000
REMARK  5 active torsions:
REMARK  status: ('A' for Active; 'I' for Inactive)
REMARK    1  A    between atoms: N1_2  and  C2_5
REMARK    2  A    between atoms: C2_5  and  C3_6
REMARK    3  A    between atoms: C3_6  and  N2_7
REMARK    4  A    between atoms: N2_7  and  C4_9
REMARK    5  A    between atoms: C7_14  and  N4_15
ROOT
HETATM    1  C4  UNL     1      36.577  55.402  16.599  1.00  0.00     0.679 A
HETATM    2  N3  UNL     1      36.680  56.675  16.984  1.00  0.00    -0.202 N
ATOM      3  H3  UNL     1      35.923  57.091  17.529  1.00  0.00     0.183 HD
HETATM    4  C5  UNL     1      37.768  57.437  16.671  1.00  0.00     0.110 A
HETATM    5  C6  UNL     1      38.752  56.817  15.934  1.00  0.00     0.066 A
HETATM    6  C7  UNL     1      38.671  55.509  15.525  1.00  0.00     0.116 A
HETATM    7  N5  UNL     1      37.552  54.823  15.881  1.00  0.00    -0.177 N
ATOM      8  H5  UNL     1      37.452  53.849  15.597  1.00  0.00     0.185 HD
ENDROOT
BRANCH   1   9
HETATM    9  N2  UNL     1      35.540  54.735  16.918  1.00  0.00    -0.224 N
ATOM     10  H2  UNL     1      34.614  55.109  16.711  1.00  0.00     0.177 HD
BRANCH   9  11
HETATM   11  C3  UNL     1      35.665  53.465  17.563  1.00  0.00     0.165 C
BRANCH  11  12
HETATM   12  C2  UNL     1      36.300  53.629  18.934  1.00  0.00     0.252 C
BRANCH  12  13
HETATM   13  N1  UNL     1      35.272  53.792  19.946  1.00  0.00    -0.077 N
HETATM   14  C1  UNL     1      34.736  52.461  20.218  1.00  0.00     0.267 C
ATOM     15  H12 UNL     1      34.555  54.470  19.687  1.00  0.00     0.276 HD
ATOM     16  H11 UNL     1      35.604  54.271  20.783  1.00  0.00     0.276 HD
ENDBRANCH  12  13
ENDBRANCH  11  12
ENDBRANCH   9  11
ENDBRANCH   1   9
BRANCH   6  17
HETATM   17  N4  UNL     1      39.609  54.955  14.837  1.00  0.00    -0.385 N
ATOM     18  H42 UNL     1      40.392  55.497  14.472  1.00  0.00     0.157 HD
ATOM     19  H41 UNL     1      39.605  53.956  14.631  1.00  0.00     0.157 HD
ENDBRANCH   6  17
TORSDOF 5
ENDMDL