MODEL 4
REMARK VINA RESULT: -5.138842962      0.971      1.542
REMARK  4 active torsions:
REMARK  status: ('A' for Active; 'I' for Inactive)
REMARK    1  A    between atoms: N1_2  and  C4_5
REMARK    2  A    between atoms: C4_5  and  C5_6
REMARK    3  A    between atoms: C5_6  and  N2_7
REMARK    4  A    between atoms: N2_7  and  C6_9
ROOT
HETATM    1  N2  UNL     1      35.230  53.764  18.741  1.00  0.00    -0.400 N
ATOM      2  H2  UNL     1      34.329  54.240  18.786  1.00  0.00     0.155 HD
ENDROOT
BRANCH   1   3
HETATM    3  C5  UNL     1      35.607  52.778  19.718  1.00  0.00     0.144 C
BRANCH   3   4
HETATM    4  C4  UNL     1      35.205  51.399  19.357  1.00  0.00     0.255 C
BRANCH   4   5
HETATM    5  N1  UNL     1      34.692  50.528  20.350  1.00  0.00    -0.077 N
HETATM    6  C1  UNL     1      34.445  49.188  19.855  1.00  0.00     0.271 C
HETATM    7  C2  UNL     1      35.845  50.334  21.279  1.00  0.00     0.271 C
HETATM    8  C3  UNL     1      33.665  51.051  21.187  1.00  0.00     0.271 C
ENDBRANCH   4   5
ENDBRANCH   3   4
ENDBRANCH   1   3
BRANCH   1   9
HETATM    9  C6  UNL     1      36.153  54.043  17.724  1.00  0.00     0.179 C
HETATM   10  C7  UNL     1      37.583  54.173  18.175  1.00  0.00     0.074 C
HETATM   11  C8  UNL     1      38.196  54.709  16.929  1.00  0.00    -0.006 C
HETATM   12  C9  UNL     1      37.247  55.308  16.206  1.00  0.00     0.081 C
HETATM   13  N3  UNL     1      35.986  55.202  16.916  1.00  0.00    -0.378 N
ATOM     14  H3  UNL     1      35.172  55.815  16.852  1.00  0.00     0.161 HD
ENDBRANCH   1   9
TORSDOF 4
ENDMDL