MODEL 3
REMARK VINA RESULT: -5.477202508      2.608      5.246
REMARK  5 active torsions:
REMARK  status: ('A' for Active; 'I' for Inactive)
REMARK    1  A    between atoms: C3_5  and  N2_6
REMARK    2  A    between atoms: C5_12  and  C6_13
REMARK    3  A    between atoms: C6_13  and  C7_14
REMARK    4  A    between atoms: C7_14  and  C8_15
REMARK    5  A    between atoms: C8_15  and  N4_16
ROOT
HETATM    1  C1  UNL     1      34.711  50.408  16.682  1.00  0.00     0.069 C
HETATM    2  C2  UNL     1      35.005  51.659  17.452  1.00  0.00     0.030 A
HETATM    3  N1  UNL     1      35.261  52.791  16.754  1.00  0.00    -0.196 N
ATOM      4  H1  UNL     1      35.253  52.769  15.734  1.00  0.00     0.184 HD
HETATM    5  C3  UNL     1      35.526  53.947  17.395  1.00  0.00     0.675 A
HETATM    6  N3  UNL     1      35.529  53.952  18.724  1.00  0.00    -0.202 N
ATOM      7  H3  UNL     1      35.729  54.827  19.206  1.00  0.00     0.183 HD
HETATM    8  C4  UNL     1      35.278  52.845  19.470  1.00  0.00     0.115 A
HETATM    9  C5  UNL     1      35.008  51.655  18.830  1.00  0.00    -0.019 A
ENDROOT
BRANCH   9  10
HETATM   10  C6  UNL     1      34.757  50.406  19.541  1.00  0.00     0.043 C
BRANCH  10  11
HETATM   11  C7  UNL     1      34.847  50.492  21.030  1.00  0.00     0.032 C
BRANCH  11  12
HETATM   12  C8  UNL     1      33.428  50.335  21.562  1.00  0.00     0.230 C
BRANCH  12  13
HETATM   13  N4  UNL     1      33.293  50.535  22.962  1.00  0.00    -0.079 N
ATOM     14  H43 UNL     1      33.975  49.969  23.468  1.00  0.00     0.274 HD
ATOM     15  H42 UNL     1      33.614  51.469  23.219  1.00  0.00     0.274 HD
ATOM     16  H41 UNL     1      32.355  50.370  23.328  1.00  0.00     0.274 HD
ENDBRANCH  12  13
ENDBRANCH  11  12
ENDBRANCH  10  11
ENDBRANCH   9  10
BRANCH   5  17
HETATM   17  N2  UNL     1      35.774  55.033  16.706  1.00  0.00    -0.234 N
ATOM     18  H22 UNL     1      36.677  55.183  16.257  1.00  0.00     0.174 HD
ATOM     19  H21 UNL     1      35.054  55.750  16.612  1.00  0.00     0.174 HD
ENDBRANCH   5  17
TORSDOF 5
ENDMDL