MODEL 5
REMARK VINA RESULT: -5.721692723      2.816      2.991
REMARK  3 active torsions:
REMARK  status: ('A' for Active; 'I' for Inactive)
REMARK    1  A    between atoms: C3_3  and  C4_4
REMARK    2  A    between atoms: C4_4  and  N1_5
REMARK    3  A    between atoms: N1_5  and  C5_8
ROOT
HETATM    1  C1  UNL     1      36.697  48.441  21.431  1.00  0.00     0.012 C
HETATM    2  C2  UNL     1      35.872  49.221  21.014  1.00  0.00    -0.116 C
HETATM    3  C3  UNL     1      34.858  50.129  20.499  1.00  0.00     0.120 C
ENDROOT
BRANCH   3   4
HETATM    4  C4  UNL     1      35.477  51.490  20.286  1.00  0.00     0.245 C
BRANCH   4   5
HETATM    5  N1  UNL     1      34.710  52.185  19.286  1.00  0.00    -0.067 N
ATOM      6  H12 UNL     1      34.386  51.547  18.559  1.00  0.00     0.277 HD
ATOM      7  H11 UNL     1      33.806  52.484  19.654  1.00  0.00     0.277 HD
BRANCH   5   8
HETATM    8  C5  UNL     1      35.438  53.300  18.716  1.00  0.00     0.236 C
HETATM    9  C6  UNL     1      35.419  53.394  17.235  1.00  0.00     0.267 C
HETATM   10  N2  UNL     1      35.425  54.801  16.846  1.00  0.00    -0.072 N
HETATM   11  C7  UNL     1      36.737  55.347  16.648  1.00  0.00     0.259 C
ATOM     12  H22 UNL     1      34.848  54.946  16.018  1.00  0.00     0.277 HD
ATOM     13  H21 UNL     1      34.903  55.361  17.521  1.00  0.00     0.277 HD
HETATM   14  C8  UNL     1      37.801  54.767  17.519  1.00  0.00     0.259 C
HETATM   15  N3  UNL     1      37.388  54.660  18.909  1.00  0.00    -0.072 N
HETATM   16  C9  UNL     1      36.876  53.332  19.189  1.00  0.00     0.267 C
ATOM     17  H32 UNL     1      38.139  54.918  19.549  1.00  0.00     0.277 HD
ATOM     18  H31 UNL     1      36.716  55.385  19.161  1.00  0.00     0.277 HD
ENDBRANCH   5   8
ENDBRANCH   4   5
ENDBRANCH   3   4
TORSDOF 3
ENDMDL