MODEL 1
REMARK VINA RESULT: -5.379648609      0.000      0.000
REMARK  4 active torsions:
REMARK  status: ('A' for Active; 'I' for Inactive)
REMARK    1  A    between atoms: N1_2  and  C3_4
REMARK    2  A    between atoms: C3_4  and  C4_5
REMARK    3  A    between atoms: C4_5  and  C5_6
REMARK    4  A    between atoms: C8_13  and  N4_14
ROOT
HETATM    1  C5  UNL     1      34.859  52.389  18.233  1.00  0.00     0.003 A
HETATM    2  C6  UNL     1      35.001  52.110  16.892  1.00  0.00     0.099 A
HETATM    3  N2  UNL     1      35.678  52.989  16.095  1.00  0.00    -0.361 N
ATOM      4  H2  UNL     1      35.789  52.790  15.101  1.00  0.00     0.166 HD
HETATM    5  C7  UNL     1      36.198  54.110  16.614  1.00  0.00     0.181 A
HETATM    6  N3  UNL     1      36.046  54.360  17.925  1.00  0.00    -0.339 N
ATOM      7  H3  UNL     1      36.449  55.218  18.301  1.00  0.00     0.168 HD
HETATM    8  C8  UNL     1      35.394  53.542  18.767  1.00  0.00     0.107 A
ENDROOT
BRANCH   1   9
HETATM    9  C4  UNL     1      34.123  51.444  19.102  1.00  0.00     0.074 C
BRANCH   9  10
HETATM   10  C3  UNL     1      34.154  50.050  18.553  1.00  0.00     0.276 C
BRANCH  10  11
HETATM   11  N1  UNL     1      34.198  49.076  19.595  1.00  0.00     0.080 N
HETATM   12  C1  UNL     1      35.196  49.341  20.576  1.00  0.00     0.309 C
HETATM   13  C2  UNL     1      32.929  48.866  20.222  1.00  0.00     0.309 C
ENDBRANCH  10  11
ENDBRANCH   9  10
ENDBRANCH   1   9
BRANCH   8  14
HETATM   14  N4  UNL     1      35.258  53.800  20.027  1.00  0.00    -0.385 N
ATOM     15  H42 UNL     1      34.348  53.929  20.469  1.00  0.00     0.157 HD
ATOM     16  H41 UNL     1      36.080  53.882  20.625  1.00  0.00     0.157 HD
ENDBRANCH   8  14
TORSDOF 4
ENDMDL