MODEL 2
REMARK VINA RESULT: -5.329004191      1.035      1.035
REMARK  4 active torsions:
REMARK  status: ('A' for Active; 'I' for Inactive)
REMARK    1  A    between atoms: C2_2  and  C3_3
REMARK    2  A    between atoms: C2_2  and  N2_9
REMARK    3  A    between atoms: C3_3  and  C4_4
REMARK    4  A    between atoms: C4_4  and  N1_5
ROOT
HETATM    1  N2  UNL     1      34.547  50.875  20.389  1.00  0.00    -0.364 N
HETATM    2  C5  UNL     1      33.597  51.644  21.187  1.00  0.00     0.143 C
HETATM    3  C6  UNL     1      33.411  50.965  22.499  1.00  0.00     0.134 C
HETATM    4  N3  UNL     1      33.076  49.588  22.461  1.00  0.00    -0.413 N
ATOM      5  H3  UNL     1      32.600  49.135  23.241  1.00  0.00     0.153 HD
HETATM    6  C7  UNL     1      33.431  48.863  21.284  1.00  0.00     0.190 C
HETATM    7  C8  UNL     1      34.653  49.503  20.716  1.00  0.00     0.090 C
HETATM    8  N4  UNL     1      35.748  48.857  20.530  1.00  0.00    -0.388 N
ATOM      9  H41 UNL     1      35.825  47.867  20.766  1.00  0.00     0.157 HD
ATOM     10  H42 UNL     1      36.584  49.294  20.142  1.00  0.00     0.157 HD
ENDROOT
BRANCH   1  11
HETATM   11  C2  UNL     1      35.336  51.434  19.342  1.00  0.00     0.083 C
HETATM   12  C1  UNL     1      36.251  52.518  19.850  1.00  0.00     0.032 C
BRANCH  11  13
HETATM   13  C3  UNL     1      34.387  51.945  18.278  1.00  0.00     0.052 C
BRANCH  13  14
HETATM   14  C4  UNL     1      35.127  52.710  17.198  1.00  0.00     0.231 C
BRANCH  14  15
HETATM   15  N1  UNL     1      34.845  54.090  17.209  1.00  0.00    -0.079 N
ATOM     16  H13 UNL     1      34.573  54.399  18.142  1.00  0.00     0.274 HD
ATOM     17  H12 UNL     1      35.699  54.637  17.095  1.00  0.00     0.274 HD
ATOM     18  H11 UNL     1      34.145  54.359  16.518  1.00  0.00     0.274 HD
ENDBRANCH  14  15
ENDBRANCH  13  14
ENDBRANCH  11  13
ENDBRANCH   1  11
TORSDOF 4
ENDMDL