MODEL 1
REMARK VINA RESULT: -6.013325766      0.000      0.000
REMARK  3 active torsions:
REMARK  status: ('A' for Active; 'I' for Inactive)
REMARK    1  A    between atoms: C3_5  and  C4_6
REMARK    2  A    between atoms: C4_6  and  C5_7
REMARK    3  A    between atoms: C5_7  and  C6_8
ROOT
HETATM    1  C4  UNL     1      36.259  52.935  18.982  1.00  0.00     0.033 C
ENDROOT
BRANCH   1   2
HETATM    2  C3  UNL     1      35.797  53.719  17.783  1.00  0.00     0.100 C
HETATM    3  C2  UNL     1      36.009  53.027  16.479  1.00  0.00     0.145 C
HETATM    4  N1  UNL     1      36.218  54.148  15.558  1.00  0.00    -0.384 N
HETATM    5  C1  UNL     1      36.517  55.215  16.214  1.00  0.00     0.171 C
ATOM      6  H1  UNL     1      36.137  54.091  14.543  1.00  0.00     0.160 HD
HETATM    7  N4  UNL     1      36.546  54.948  17.611  1.00  0.00    -0.380 N
ATOM      8  H4  UNL     1      36.998  55.504  18.337  1.00  0.00     0.160 HD
ENDBRANCH   1   2
BRANCH   1   9
HETATM    9  C5  UNL     1      35.145  52.523  19.882  1.00  0.00     0.061 C
BRANCH   9  10
HETATM   10  C6  UNL     1      35.282  51.041  20.104  1.00  0.00     0.027 A
HETATM   11  C7  UNL     1      35.737  50.382  21.224  1.00  0.00     0.045 A
HETATM   12  C8  UNL     1      35.698  49.017  20.997  1.00  0.00     0.109 A
HETATM   13  N2  UNL     1      35.217  48.889  19.741  1.00  0.00    -0.312 N
HETATM   14  N3  UNL     1      34.972  50.075  19.214  1.00  0.00    -0.305 N
ATOM     15  H2  UNL     1      35.065  47.999  19.267  1.00  0.00     0.186 HD
ATOM     16  H3  UNL     1      34.604  50.236  18.276  1.00  0.00     0.186 HD
ENDBRANCH   9  10
ENDBRANCH   1   9
TORSDOF 3
ENDMDL