MODEL 4
REMARK VINA RESULT: -5.234924417      2.058      4.736
REMARK  5 active torsions:
REMARK  status: ('A' for Active; 'I' for Inactive)
REMARK    1  A    between atoms: C3_5  and  N2_6
REMARK    2  A    between atoms: N2_6  and  C4_8
REMARK    3  A    between atoms: C4_8  and  C5_9
REMARK    4  A    between atoms: C5_9  and  C6_10
REMARK    5  A    between atoms: C6_10  and  N3_11
ROOT
HETATM    1  C1  UNL     1      35.792  51.824  14.528  1.00  0.00     0.091 C
HETATM    2  C2  UNL     1      35.784  52.933  15.513  1.00  0.00     0.108 A
HETATM    3  N1  UNL     1      36.497  54.067  15.533  1.00  0.00    -0.179 N
ATOM      4  H1  UNL     1      37.185  54.344  14.832  1.00  0.00     0.185 HD
HETATM    5  C3  UNL     1      36.163  54.784  16.620  1.00  0.00     0.694 A
HETATM    6  N4  UNL     1      35.229  54.063  17.268  1.00  0.00    -0.131 N
ATOM      7  H4  UNL     1      34.771  54.337  18.137  1.00  0.00     0.205 HD
HETATM    8  N5  UNL     1      35.000  52.947  16.602  1.00  0.00    -0.275 N
ATOM      9  H5  UNL     1      34.338  52.218  16.870  1.00  0.00     0.189 HD
ENDROOT
BRANCH   5  10
HETATM   10  N2  UNL     1      36.622  55.930  16.996  1.00  0.00    -0.225 N
ATOM     11  H2  UNL     1      36.764  56.101  17.992  1.00  0.00     0.177 HD
BRANCH  10  12
HETATM   12  C4  UNL     1      36.938  56.967  16.064  1.00  0.00     0.140 C
BRANCH  12  13
HETATM   13  C5  UNL     1      36.021  58.181  16.222  1.00  0.00     0.047 C
BRANCH  13  14
HETATM   14  C6  UNL     1      34.780  57.876  15.389  1.00  0.00     0.231 C
BRANCH  14  15
HETATM   15  N3  UNL     1      33.591  57.859  16.194  1.00  0.00    -0.079 N
ATOM     16  H33 UNL     1      33.777  58.197  17.139  1.00  0.00     0.274 HD
ATOM     17  H32 UNL     1      32.929  58.576  15.896  1.00  0.00     0.274 HD
ATOM     18  H31 UNL     1      33.158  56.935  16.208  1.00  0.00     0.274 HD
ENDBRANCH  14  15
ENDBRANCH  13  14
ENDBRANCH  12  13
ENDBRANCH  10  12
ENDBRANCH   5  10
TORSDOF 5
ENDMDL