MODEL 5
REMARK VINA RESULT: -7.377338676      3.361      6.209
REMARK  6 active torsions:
REMARK  status: ('A' for Active; 'I' for Inactive)
REMARK    1  A    between atoms: C3_3  and  N1_4
REMARK    2  A    between atoms: N2_12  and  C10_13
REMARK    3  A    between atoms: C10_13  and  C11_14
REMARK    4  A    between atoms: C11_14  and  C14_17
REMARK    5  A    between atoms: C14_17  and  N3_18
REMARK       I    between atoms: N3_18  and  C15_20
REMARK       I    between atoms: C15_20  and  N4_22
REMARK    6  A    between atoms: C20_27  and  O3_28
ROOT
HETATM    1  N3  UNL     1      26.585  10.429  30.155  1.00  0.00    -0.342 N
ATOM      2  H3  UNL     1      26.724   9.613  30.752  1.00  0.00     0.164 HD
HETATM    3  C15 UNL     1      27.414  10.629  29.018  1.00  0.00     0.319 C
HETATM    4  O2  UNL     1      27.192  11.672  28.306  1.00  0.00    -0.247 OA
HETATM    5  N4  UNL     1      28.452   9.784  28.608  1.00  0.00    -0.322 N
HETATM    6  C16 UNL     1      29.234  10.054  27.437  1.00  0.00     0.090 C
HETATM    7  C17 UNL     1      28.495  10.499  26.235  1.00  0.00     0.033 C
HETATM    8  C18 UNL     1      30.139   8.861  27.216  1.00  0.00     0.019 C
HETATM    9  C19 UNL     1      31.102   8.886  28.411  1.00  0.00     0.041 C
HETATM   10  C20 UNL     1      30.284   8.706  29.649  1.00  0.00     0.142 C
HETATM   11  C21 UNL     1      28.787   8.602  29.360  1.00  0.00     0.126 C
HETATM   12  C22 UNL     1      28.513   7.408  28.444  1.00  0.00    -0.017 C
HETATM   13  C23 UNL     1      28.707   6.103  29.183  1.00  0.00     0.018 C
HETATM   14  C24 UNL     1      27.033   7.458  28.116  1.00  0.00     0.018 C
HETATM   15  C25 UNL     1      29.386   7.540  27.244  1.00  0.00    -0.033 C
HETATM   16  C26 UNL     1      30.436   6.444  27.130  1.00  0.00     0.016 C
HETATM   17  C27 UNL     1      28.571   7.418  25.958  1.00  0.00     0.016 C
ENDROOT
BRANCH   1  18
HETATM   18  C14 UNL     1      25.558  11.372  30.460  1.00  0.00     0.134 C
BRANCH  18  19
HETATM   19  C11 UNL     1      24.164  10.732  30.518  1.00  0.00    -0.015 C
HETATM   20  C12 UNL     1      23.249  11.562  29.685  1.00  0.00     0.018 C
HETATM   21  C13 UNL     1      24.312   9.316  29.964  1.00  0.00     0.018 C
BRANCH  19  22
HETATM   22  C10 UNL     1      23.799  10.637  31.954  1.00  0.00     0.136 C
BRANCH  22  23
HETATM   23  N2  UNL     1      22.440  10.712  32.331  1.00  0.00    -0.345 N
HETATM   24  C2  UNL     1      21.831  11.832  33.066  1.00  0.00     0.117 C
HETATM   25  C1  UNL     1      21.033  12.747  32.199  1.00  0.00     0.034 C
HETATM   26  C3  UNL     1      20.900  11.054  34.019  1.00  0.00     0.254 C
HETATM   27  C8  UNL     1      20.286  10.107  33.036  1.00  0.00     0.141 C
HETATM   28  C9  UNL     1      21.398   9.751  32.130  1.00  0.00     0.222 C
HETATM   29  O1  UNL     1      21.382   8.770  31.344  1.00  0.00    -0.273 OA
BRANCH  26  30
HETATM   30  N1  UNL     1      20.000  11.984  34.612  1.00  0.00     0.095 N
HETATM   31  C4  UNL     1      19.550  11.435  35.878  1.00  0.00     0.273 C
HETATM   32  C5  UNL     1      18.362  12.263  36.236  1.00  0.00     0.032 C
HETATM   33  C6  UNL     1      17.955  12.949  34.932  1.00  0.00     0.032 C
HETATM   34  C7  UNL     1      18.778  12.172  33.893  1.00  0.00     0.273 C
ENDBRANCH  26  30
ENDBRANCH  22  23
ENDBRANCH  19  22
ENDBRANCH  18  19
ENDBRANCH   1  18
BRANCH  10  35
HETATM   35  O3  UNL     1      30.728   7.709  30.497  1.00  0.00    -0.393 OA
ATOM     36  H3  UNL     1      30.530   7.851  31.415  1.00  0.00     0.210 HD
ENDBRANCH  10  35
TORSDOF 6
ENDMDL