MODEL 3
REMARK VINA RESULT: -7.382352327      3.272      6.738
REMARK  7 active torsions:
REMARK  status: ('A' for Active; 'I' for Inactive)
REMARK    1  A    between atoms: C2_2  and  C4_4
REMARK    2  A    between atoms: C7_8  and  N1_9
REMARK    3  A    between atoms: C10_12  and  C11_13
REMARK    4  A    between atoms: C11_13  and  N2_14
REMARK    5  A    between atoms: N2_14  and  C13_16
REMARK    6  A    between atoms: C21_24  and  C22_25
REMARK       I    between atoms: C22_25  and  N3_27
REMARK    7  A    between atoms: N3_27  and  C23_29
ROOT
HETATM    1  C4  UNL     1      29.173  10.206  26.222  1.00  0.00     0.059 C
HETATM    2  C5  UNL     1      28.603  11.410  26.795  1.00  0.00     0.163 C
HETATM    3  O1  UNL     1      29.430  12.338  27.088  1.00  0.00    -0.292 OA
HETATM    4  C6  UNL     1      27.245  11.869  27.149  1.00  0.00     0.108 C
HETATM    5  C7  UNL     1      26.887  11.595  28.642  1.00  0.00     0.086 C
HETATM    6  C19 UNL     1      27.718  10.481  28.962  1.00  0.00     0.028 C
HETATM    7  C20 UNL     1      27.851   9.600  30.106  1.00  0.00     0.037 C
HETATM    8  C21 UNL     1      28.867   8.552  29.542  1.00  0.00     0.177 C
HETATM    9  N4  UNL     1      29.751   9.082  28.557  1.00  0.00    -0.344 N
ATOM     10  H4  UNL     1      30.591   9.448  29.006  1.00  0.00     0.163 HD
HETATM   11  C27 UNL     1      29.835   9.258  27.195  1.00  0.00     0.252 C
HETATM   12  O3  UNL     1      30.653   8.456  26.595  1.00  0.00    -0.268 OA
ENDROOT
BRANCH   5  13
HETATM   13  N1  UNL     1      25.482  11.526  28.838  1.00  0.00    -0.407 N
HETATM   14  C8  UNL     1      24.938  10.288  28.421  1.00  0.00     0.121 C
HETATM   15  C9  UNL     1      24.505   9.334  29.511  1.00  0.00     0.055 C
HETATM   16  C10 UNL     1      24.012  10.006  30.743  1.00  0.00    -0.063 C
HETATM   17  C16 UNL     1      23.617  11.409  30.347  1.00  0.00     0.029 C
HETATM   18  C17 UNL     1      22.944  12.195  31.425  1.00  0.00     0.016 C
HETATM   19  C18 UNL     1      24.952  12.111  30.011  1.00  0.00     0.126 C
BRANCH  16  20
HETATM   20  C11 UNL     1      23.136   9.299  31.667  1.00  0.00     0.062 C
BRANCH  20  21
HETATM   21  N2  UNL     1      22.265   8.273  31.289  1.00  0.00    -0.293 NA
HETATM   22  C12 UNL     1      22.668   6.929  31.582  1.00  0.00     0.116 C
BRANCH  21  23
HETATM   23  C13 UNL     1      20.994   8.525  31.994  1.00  0.00     0.054 C
HETATM   24  C14 UNL     1      20.287   7.235  32.350  1.00  0.00     0.026 C
HETATM   25  C15 UNL     1      21.141   9.374  33.207  1.00  0.00     0.026 C
ENDBRANCH  21  23
ENDBRANCH  20  21
ENDBRANCH  16  20
ENDBRANCH   5  13
BRANCH   1  26
HETATM   26  C2  UNL     1      28.517   9.594  25.044  1.00  0.00     0.020 C
HETATM   27  C1  UNL     1      28.934  10.176  23.696  1.00  0.00     0.015 C
HETATM   28  C3  UNL     1      28.538   8.122  24.861  1.00  0.00     0.015 C
ENDBRANCH   1  26
BRANCH   8  29
HETATM   29  C22 UNL     1      28.049   7.396  29.169  1.00  0.00     0.241 C
HETATM   30  O2  UNL     1      27.655   7.175  27.990  1.00  0.00    -0.271 OA
HETATM   31  N3  UNL     1      27.646   6.435  30.135  1.00  0.00    -0.351 N
ATOM     32  H3  UNL     1      27.946   6.565  31.101  1.00  0.00     0.163 HD
BRANCH  31  33
HETATM   33  C23 UNL     1      26.833   5.280  29.819  1.00  0.00     0.022 C
HETATM   34  C24 UNL     1      27.572   4.268  28.953  1.00  0.00     0.037 C
HETATM   35  C25 UNL     1      26.484   4.578  31.132  1.00  0.00     0.037 C
HETATM   36  C26 UNL     1      25.540   5.629  29.157  1.00  0.00     0.037 C
ENDBRANCH  31  33
ENDBRANCH   8  29
TORSDOF 7
ENDMDL