MODEL 2
REMARK VINA RESULT: -6.395615127      2.217      3.819
REMARK  8 active torsions:
REMARK  status: ('A' for Active; 'I' for Inactive)
REMARK    1  A    between atoms: C2_2  and  C4_4
REMARK    2  A    between atoms: C4_4  and  N1_5
REMARK    3  A    between atoms: C8_9  and  C9_10
REMARK       I    between atoms: C9_10  and  N2_12
REMARK    4  A    between atoms: N2_12  and  C10_14
REMARK    5  A    between atoms: C10_14  and  C11_15
REMARK    6  A    between atoms: C22_27  and  O3_28
REMARK    7  A    between atoms: C23_32  and  C24_33
REMARK    8  A    between atoms: C27_36  and  O4_37
ROOT
HETATM    1  N1  UNL     1      26.537   5.596  29.665  1.00  0.00    -0.339 N
HETATM    2  C5  UNL     1      26.467   7.015  29.872  1.00  0.00     0.073 C
HETATM    3  C6  UNL     1      26.262   7.953  28.768  1.00  0.00     0.058 C
HETATM    4  C7  UNL     1      24.857   8.460  28.549  1.00  0.00     0.018 C
HETATM    5  C8  UNL     1      27.086   9.222  29.041  1.00  0.00     0.221 C
HETATM    6  O2  UNL     1      27.636   9.808  27.981  1.00  0.00    -0.375 OA
HETATM    7  C15 UNL     1      28.610   9.196  27.266  1.00  0.00     0.174 C
HETATM    8  C16 UNL     1      29.791   8.705  28.031  1.00  0.00     0.021 C
HETATM    9  C17 UNL     1      30.637   9.888  28.431  1.00  0.00     0.007 C
HETATM   10  C18 UNL     1      31.413  10.520  27.334  1.00  0.00     0.001 C
HETATM   11  C19 UNL     1      32.176   9.504  26.499  1.00  0.00     0.001 C
HETATM   12  C20 UNL     1      31.182   8.477  26.073  1.00  0.00     0.013 C
HETATM   13  C21 UNL     1      30.629   7.699  27.283  1.00  0.00     0.066 C
HETATM   14  C22 UNL     1      29.898   6.511  26.822  1.00  0.00     0.120 C
HETATM   15  N3  UNL     1      28.924   5.688  27.348  1.00  0.00    -0.340 N
ATOM     16  H3  UNL     1      28.065   5.798  26.809  1.00  0.00     0.167 HD
HETATM   17  C23 UNL     1      28.711   4.760  28.361  1.00  0.00     0.066 C
HETATM   18  C27 UNL     1      27.648   4.790  29.331  1.00  0.00     0.165 C
ENDROOT
BRANCH   5  19
HETATM   19  C9  UNL     1      26.185  10.206  29.738  1.00  0.00     0.247 C
HETATM   20  O1  UNL     1      26.042  11.372  29.297  1.00  0.00    -0.271 OA
HETATM   21  N2  UNL     1      25.482   9.833  30.907  1.00  0.00    -0.358 N
ATOM     22  H2  UNL     1      25.580   8.892  31.289  1.00  0.00     0.162 HD
BRANCH  21  23
HETATM   23  C10 UNL     1      24.625  10.800  31.553  1.00  0.00     0.131 C
BRANCH  23  24
HETATM   24  C11 UNL     1      23.163  10.437  31.415  1.00  0.00    -0.035 C
HETATM   25  C12 UNL     1      22.734  10.813  30.004  1.00  0.00     0.016 C
HETATM   26  C13 UNL     1      22.332  11.258  32.374  1.00  0.00     0.016 C
HETATM   27  C14 UNL     1      22.930   8.987  31.719  1.00  0.00     0.016 C
ENDBRANCH  23  24
ENDBRANCH  21  23
ENDBRANCH   5  19
BRANCH   1  28
HETATM   28  C4  UNL     1      25.278   4.892  29.861  1.00  0.00     0.134 C
BRANCH  28  29
HETATM   29  C2  UNL     1      24.334   5.413  30.865  1.00  0.00    -0.004 C
HETATM   30  C1  UNL     1      24.294   4.309  31.954  1.00  0.00     0.011 C
HETATM   31  C3  UNL     1      22.892   5.452  30.362  1.00  0.00     0.011 C
ENDBRANCH  28  29
ENDBRANCH   1  28
BRANCH  18  32
HETATM   32  O4  UNL     1      27.764   3.750  30.131  1.00  0.00    -0.344 OA
ATOM     33  H4  UNL     1      27.837   4.008  31.043  1.00  0.00     0.219 HD
ENDBRANCH  18  32
BRANCH  17  34
HETATM   34  C24 UNL     1      30.006   4.371  29.049  1.00  0.00     0.032 C
HETATM   35  C25 UNL     1      30.979   3.690  28.125  1.00  0.00     0.016 C
HETATM   36  C26 UNL     1      30.589   5.425  29.933  1.00  0.00     0.016 C
ENDBRANCH  17  34
BRANCH  14  37
HETATM   37  O3  UNL     1      30.269   6.161  25.617  1.00  0.00    -0.349 OA
ATOM     38  H3  UNL     1      31.083   5.673  25.633  1.00  0.00     0.219 HD
ENDBRANCH  14  37
TORSDOF 8
ENDMDL