MODEL 5
REMARK VINA RESULT: -8.250514243      5.747      8.744
REMARK  8 active torsions:
REMARK  status: ('A' for Active; 'I' for Inactive)
REMARK    1  A    between atoms: C2_2  and  S1_5
REMARK    2  A    between atoms: S1_5  and  N1_8
REMARK    3  A    between atoms: C7_11  and  N2_12
REMARK    4  A    between atoms: C10_15  and  C11_16
REMARK    5  A    between atoms: C11_16  and  N3_17
REMARK    6  A    between atoms: N3_17  and  C12_19
REMARK    7  A    between atoms: C12_19  and  N4_21
REMARK    8  A    between atoms: N4_21  and  C13_23
ROOT
HETATM    1  N2  UNL     1      26.804  13.750  27.602  1.00  0.00     0.093 N
HETATM    2  C8  UNL     1      27.230  12.407  27.393  1.00  0.00     0.273 C
HETATM    3  C9  UNL     1      26.715  11.439  28.422  1.00  0.00     0.036 C
HETATM    4  C10 UNL     1      25.206  11.595  28.483  1.00  0.00     0.007 C
HETATM    5  C20 UNL     1      24.929  13.017  28.922  1.00  0.00     0.036 C
HETATM    6  C21 UNL     1      25.407  13.924  27.809  1.00  0.00     0.273 C
ENDROOT
BRANCH   4   7
HETATM    7  C11 UNL     1      24.590  10.584  29.406  1.00  0.00     0.126 C
BRANCH   7   8
HETATM    8  N3  UNL     1      23.328  11.073  29.911  1.00  0.00    -0.367 N
ATOM      9  H3  UNL     1      22.619  11.384  29.246  1.00  0.00     0.161 HD
BRANCH   8  10
HETATM   10  C12 UNL     1      23.039  11.135  31.302  1.00  0.00     0.167 C
HETATM   11  S2  UNL     1      22.408  12.510  31.896  1.00  0.00    -0.041 SA
BRANCH  10  12
HETATM   12  N4  UNL     1      23.291  10.043  32.164  1.00  0.00    -0.363 N
ATOM     13  H4  UNL     1      24.163  10.058  32.694  1.00  0.00     0.162 HD
BRANCH  12  14
HETATM   14  C13 UNL     1      22.419   8.907  32.359  1.00  0.00     0.083 C
HETATM   15  C14 UNL     1      22.666   7.913  31.257  1.00  0.00     0.025 C
HETATM   16  C15 UNL     1      22.488   6.486  31.753  1.00  0.00     0.002 C
HETATM   17  C16 UNL     1      21.379   6.398  32.777  1.00  0.00     0.000 C
HETATM   18  C17 UNL     1      20.075   6.930  32.298  1.00  0.00     0.000 C
HETATM   19  C18 UNL     1      20.035   8.356  31.894  1.00  0.00     0.002 C
HETATM   20  C19 UNL     1      20.989   9.271  32.570  1.00  0.00     0.025 C
ENDBRANCH  12  14
ENDBRANCH  10  12
ENDBRANCH   8  10
ENDBRANCH   7   8
ENDBRANCH   4   7
BRANCH   1  21
HETATM   21  C7  UNL     1      27.372  14.596  26.606  1.00  0.00     0.225 C
HETATM   22  C6  UNL     1      27.909  13.856  25.404  1.00  0.00     0.051 C
HETATM   23  C5  UNL     1      28.241  14.895  24.332  1.00  0.00     0.109 C
HETATM   24  N1  UNL     1      28.429  16.190  24.914  1.00  0.00    -0.210 NA
HETATM   25  C23 UNL     1      27.254  16.782  25.468  1.00  0.00     0.109 C
HETATM   26  C22 UNL     1      26.453  15.737  26.223  1.00  0.00     0.051 C
BRANCH  24  27
HETATM   27  S1  UNL     1      29.381  17.231  23.966  1.00  0.00     0.219 S
HETATM   28  O1  UNL     1      28.668  18.572  23.901  1.00  0.00    -0.210 OA
HETATM   29  O2  UNL     1      29.470  16.751  22.527  1.00  0.00    -0.210 OA
BRANCH  27  30
HETATM   30  C2  UNL     1      31.018  17.478  24.553  1.00  0.00     0.067 C
HETATM   31  C1  UNL     1      31.347  18.904  24.872  1.00  0.00     0.033 C
HETATM   32  C3  UNL     1      31.957  17.055  23.416  1.00  0.00     0.033 C
HETATM   33  C4  UNL     1      31.354  16.628  25.739  1.00  0.00     0.033 C
ENDBRANCH  27  30
ENDBRANCH  24  27
ENDBRANCH   1  21
TORSDOF 8
ENDMDL