MODEL 2
REMARK VINA RESULT: -6.532876906      0.737      1.228
REMARK  8 active torsions:
REMARK  status: ('A' for Active; 'I' for Inactive)
REMARK    1  A    between atoms: C2_2  and  N1_3
REMARK    2  A    between atoms: N1_3  and  C3_4
REMARK    3  A    between atoms: N1_3  and  C26_35
REMARK    4  A    between atoms: C3_4  and  C4_5
REMARK    5  A    between atoms: C5_6  and  C6_7
REMARK       I    between atoms: N2_11  and  C10_12
REMARK       I    between atoms: C10_12  and  N5_17
REMARK    6  A    between atoms: N5_17  and  C12_19
REMARK    7  A    between atoms: C13_20  and  C14_21
REMARK    8  A    between atoms: C15_24  and  C16_25
ROOT
HETATM    1  C6  UNL     1      26.871   9.061  29.624  1.00  0.00     0.182 C
HETATM    2  C7  UNL     1      26.836   7.628  29.069  1.00  0.00     0.040 C
HETATM    3  C8  UNL     1      27.723   7.639  27.879  1.00  0.00     0.023 C
HETATM    4  C9  UNL     1      28.255   9.027  27.785  1.00  0.00     0.143 C
HETATM    5  N2  UNL     1      27.333   9.865  28.571  1.00  0.00    -0.202 N
HETATM    6  C10 UNL     1      27.081  11.198  28.200  1.00  0.00     0.686 C
HETATM    7  N3  UNL     1      25.904  11.661  28.343  1.00  0.00    -0.126 N
ATOM      8  H3  UNL     1      25.209  11.020  28.726  1.00  0.00     0.197 HD
HETATM    9  C11 UNL     1      25.460  12.942  28.036  1.00  0.00     0.196 C
HETATM   10  N4  UNL     1      25.096  14.005  27.760  1.00  0.00    -0.171 NA
HETATM   11  N5  UNL     1      28.076  12.057  27.661  1.00  0.00    -0.220 N
ATOM     12  H5  UNL     1      27.762  12.859  27.115  1.00  0.00     0.178 HD
ENDROOT
BRANCH  11  13
HETATM   13  C12 UNL     1      29.477  11.881  27.824  1.00  0.00     0.119 A
HETATM   14  C13 UNL     1      30.474  12.880  27.373  1.00  0.00     0.117 A
HETATM   15  C15 UNL     1      30.377  11.690  26.592  1.00  0.00     0.031 A
BRANCH  14  16
HETATM   16  C14 UNL     1      30.172  14.266  27.085  1.00  0.00     0.179 C
HETATM   17  O1  UNL     1      31.016  15.190  27.145  1.00  0.00    -0.648 OA
HETATM   18  O2  UNL     1      28.886  14.686  26.710  1.00  0.00    -0.648 OA
ENDBRANCH  14  16
BRANCH  15  19
HETATM   19  C16 UNL     1      29.761  11.182  25.403  1.00  0.00     0.002 C
HETATM   20  C17 UNL     1      29.183  11.857  24.285  1.00  0.00     0.011 C
HETATM   21  C18 UNL     1      29.571  11.048  23.019  1.00  0.00    -0.006 C
HETATM   22  C19 UNL     1      30.982  11.471  22.696  1.00  0.00     0.006 C
HETATM   23  C23 UNL     1      29.819   9.681  23.624  1.00  0.00    -0.036 C
HETATM   24  C20 UNL     1      31.728  10.989  23.951  1.00  0.00     0.011 C
HETATM   25  C21 UNL     1      30.751  10.190  24.734  1.00  0.00    -0.033 C
HETATM   26  C22 UNL     1      31.258   9.151  25.616  1.00  0.00     0.016 C
HETATM   27  C24 UNL     1      28.596   9.013  24.146  1.00  0.00     0.016 C
HETATM   28  C25 UNL     1      30.581   8.798  22.656  1.00  0.00     0.016 C
ENDBRANCH  15  19
ENDBRANCH  11  13
BRANCH   1  29
HETATM   29  C5  UNL     1      25.523   9.462  30.025  1.00  0.00    -0.079 C
HETATM   30  C4  UNL     1      24.381   9.782  30.337  1.00  0.00    -0.074 C
BRANCH  30  31
HETATM   31  C3  UNL     1      23.020  10.143  30.728  1.00  0.00     0.366 C
BRANCH  31  32
HETATM   32  N1  UNL     1      22.989  11.223  31.712  1.00  0.00     0.102 N
BRANCH  32  33
HETATM   33  C2  UNL     1      23.058  12.499  31.141  1.00  0.00     0.269 C
HETATM   34  C1  UNL     1      24.299  13.255  31.448  1.00  0.00     0.037 C
ENDBRANCH  32  33
BRANCH  32  35
HETATM   35  C26 UNL     1      22.034  10.968  32.710  1.00  0.00     0.216 C
HETATM   36  C27 UNL     1      21.244   9.684  32.551  1.00  0.00     0.042 C
HETATM   37  C28 UNL     1      21.120  12.088  33.085  1.00  0.00     0.042 C
ENDBRANCH  32  35
ENDBRANCH  31  32
ENDBRANCH  30  31
ENDBRANCH   1  29
TORSDOF 8
ENDMDL