MODEL 2
REMARK VINA RESULT: -7.899108171      0.808      1.236
REMARK  9 active torsions:
REMARK  status: ('A' for Active; 'I' for Inactive)
REMARK    1  A    between atoms: C2_2  and  N1_3
REMARK    2  A    between atoms: C10_11  and  C11_12
REMARK    3  A    between atoms: C11_12  and  C12_13
REMARK    4  A    between atoms: C12_13  and  C13_14
REMARK    5  A    between atoms: N2_17  and  C16_18
REMARK    6  A    between atoms: N4_26  and  C21_27
REMARK    7  A    between atoms: C21_27  and  O1_28
REMARK    8  A    between atoms: C21_27  and  N5_30
REMARK    9  A    between atoms: N5_30  and  C22_32
ROOT
HETATM    1  N1  UNL     1      24.888  12.966  29.265  1.00  0.00    -0.387 N
HETATM    2  C3  UNL     1      24.805  11.863  28.370  1.00  0.00     0.147 C
HETATM    3  C4  UNL     1      25.162  10.555  28.926  1.00  0.00     0.107 C
HETATM    4  C5  UNL     1      26.159  10.559  30.063  1.00  0.00     0.032 C
HETATM    5  C6  UNL     1      25.563  10.860  31.398  1.00  0.00    -0.008 C
HETATM    6  C7  UNL     1      25.286  12.338  31.584  1.00  0.00     0.030 C
HETATM    7  C8  UNL     1      24.292  12.745  30.545  1.00  0.00     0.086 C
HETATM    8  C9  UNL     1      23.123  11.863  30.400  1.00  0.00     0.056 C
HETATM    9  C10 UNL     1      23.343  10.371  30.506  1.00  0.00     0.038 C
HETATM   10  C20 UNL     1      24.299  10.131  31.709  1.00  0.00     0.036 C
HETATM   11  N4  UNL     1      23.998   9.747  29.418  1.00  0.00    -0.332 N
ENDROOT
BRANCH   9  12
HETATM   12  C11 UNL     1      22.036   9.829  30.986  1.00  0.00     0.032 C
BRANCH  12  13
HETATM   13  C12 UNL     1      21.974   9.536  32.464  1.00  0.00     0.007 C
BRANCH  13  14
HETATM   14  C13 UNL     1      21.033  10.523  33.118  1.00  0.00    -0.011 C
HETATM   15  C14 UNL     1      21.578  11.931  33.096  1.00  0.00     0.024 C
HETATM   16  C15 UNL     1      20.447  12.884  33.405  1.00  0.00     0.124 C
HETATM   17  N2  UNL     1      19.509  12.216  34.272  1.00  0.00    -0.371 N
HETATM   18  C18 UNL     1      19.959  11.250  35.247  1.00  0.00     0.124 C
HETATM   19  C19 UNL     1      20.784  10.160  34.575  1.00  0.00     0.024 C
BRANCH  17  20
HETATM   20  C16 UNL     1      18.132  12.502  34.165  1.00  0.00     0.068 C
HETATM   21  C17 UNL     1      17.507  13.209  33.015  1.00  0.00     0.088 C
HETATM   22  N3  UNL     1      17.339  12.125  35.132  1.00  0.00    -0.389 N
ATOM     23  H32 UNL     1      17.767  11.640  35.920  1.00  0.00     0.157 HD
ATOM     24  H31 UNL     1      16.343  12.331  35.054  1.00  0.00     0.157 HD
ENDBRANCH  17  20
ENDBRANCH  13  14
ENDBRANCH  12  13
ENDBRANCH   9  12
BRANCH  11  25
HETATM   25  C21 UNL     1      23.773   8.546  28.747  1.00  0.00     0.216 C
BRANCH  25  26
HETATM   26  O1  UNL     1      23.039   8.688  27.660  1.00  0.00    -0.333 OA
ATOM     27  H1  UNL     1      22.353   9.339  27.756  1.00  0.00     0.220 HD
ENDBRANCH  25  26
BRANCH  25  28
HETATM   28  N5  UNL     1      24.146   7.234  28.951  1.00  0.00    -0.352 N
ATOM     29  H5  UNL     1      23.852   6.548  28.255  1.00  0.00     0.163 HD
BRANCH  28  30
HETATM   30  C22 UNL     1      24.928   6.749  30.089  1.00  0.00     0.088 C
HETATM   31  C23 UNL     1      24.662   5.319  30.412  1.00  0.00     0.055 C
HETATM   32  C24 UNL     1      25.941   4.645  30.830  1.00  0.00     0.274 C
HETATM   33  N6  UNL     1      26.984   4.660  29.862  1.00  0.00     0.084 N
HETATM   34  C25 UNL     1      27.165   3.451  29.117  1.00  0.00     0.309 C
HETATM   35  C26 UNL     1      26.942   5.825  29.039  1.00  0.00     0.274 C
HETATM   36  C27 UNL     1      26.402   6.956  29.887  1.00  0.00     0.055 C
ENDBRANCH  28  30
ENDBRANCH  25  28
ENDBRANCH  11  25
BRANCH   1  37
HETATM   37  C2  UNL     1      24.785  14.264  28.732  1.00  0.00     0.054 C
HETATM   38  C1  UNL     1      25.497  14.402  27.420  1.00  0.00     0.054 C
ENDBRANCH   1  37
TORSDOF 9
ENDMDL