MODEL 4
REMARK VINA RESULT: -8.358179016      7.924     10.350
REMARK  6 active torsions:
REMARK  status: ('A' for Active; 'I' for Inactive)
REMARK    1  A    between atoms: N1_5  and  S1_6
REMARK    2  A    between atoms: S1_6  and  C5_9
REMARK    3  A    between atoms: C5_9  and  C6_10
REMARK    4  A    between atoms: C9_13  and  N2_14
REMARK       I    between atoms: N2_14  and  C10_16
REMARK       I    between atoms: C10_16  and  N3_18
REMARK    5  A    between atoms: N3_18  and  C11_20
REMARK    6  A    between atoms: N4_25  and  O4_26
ROOT
HETATM    1  N2  UNL     1      26.408  12.854  28.813  1.00  0.00    -0.339 N
ATOM      2  H2  UNL     1      26.970  13.169  29.604  1.00  0.00     0.164 HD
HETATM    3  C10 UNL     1      26.503  13.498  27.558  1.00  0.00     0.316 C
HETATM    4  O3  UNL     1      25.822  13.124  26.585  1.00  0.00    -0.247 OA
HETATM    5  N3  UNL     1      27.390  14.588  27.405  1.00  0.00    -0.338 N
ATOM      6  H3  UNL     1      27.955  14.908  28.191  1.00  0.00     0.164 HD
ENDROOT
BRANCH   1   7
HETATM    7  C9  UNL     1      25.495  11.737  28.952  1.00  0.00     0.086 C
HETATM    8  C8  UNL     1      24.092  12.276  29.014  1.00  0.00     0.026 C
HETATM    9  C7  UNL     1      23.618  12.435  30.451  1.00  0.00     0.007 C
HETATM   10  C6  UNL     1      23.513  11.144  31.166  1.00  0.00     0.001 C
HETATM   11  C21 UNL     1      24.696  10.266  30.768  1.00  0.00     0.007 C
HETATM   12  C20 UNL     1      25.845  11.107  30.309  1.00  0.00     0.026 C
BRANCH  10  13
HETATM   13  C5  UNL     1      22.266  10.360  31.037  1.00  0.00     0.162 C
BRANCH  13  14
HETATM   14  S1  UNL     1      21.545   9.841  32.544  1.00  0.00     0.211 S
HETATM   15  O1  UNL     1      22.457   8.829  33.204  1.00  0.00    -0.211 OA
HETATM   16  O2  UNL     1      20.176   9.319  32.317  1.00  0.00    -0.211 OA
BRANCH  14  17
HETATM   17  N1  UNL     1      21.434  11.157  33.675  1.00  0.00    -0.211 NA
HETATM   18  C4  UNL     1      20.500  10.861  34.709  1.00  0.00     0.107 C
HETATM   19  C3  UNL     1      19.541  11.982  34.989  1.00  0.00     0.020 C
HETATM   20  C2  UNL     1      18.781  12.344  33.725  1.00  0.00    -0.016 C
HETATM   21  C1  UNL     1      18.006  13.623  34.041  1.00  0.00     0.010 C
HETATM   22  C23 UNL     1      19.756  12.649  32.638  1.00  0.00     0.020 C
HETATM   23  C22 UNL     1      21.189  12.414  33.056  1.00  0.00     0.107 C
ENDBRANCH  14  17
ENDBRANCH  13  14
ENDBRANCH  10  13
ENDBRANCH   1   7
BRANCH   5  24
HETATM   24  C11 UNL     1      27.487  15.240  26.127  1.00  0.00     0.091 C
HETATM   25  C12 UNL     1      28.908  15.258  25.600  1.00  0.00     0.057 C
HETATM   26  C13 UNL     1      28.809  15.592  24.131  1.00  0.00     0.049 C
HETATM   27  C14 UNL     1      28.837  14.276  23.378  1.00  0.00     0.040 C
HETATM   28  C15 UNL     1      30.025  16.383  23.699  1.00  0.00     0.040 C
HETATM   29  N4  UNL     1      27.615  16.289  23.779  1.00  0.00    -0.278 N
HETATM   30  C16 UNL     1      27.102  17.189  24.744  1.00  0.00     0.049 C
HETATM   31  C17 UNL     1      27.863  18.520  24.746  1.00  0.00     0.040 C
HETATM   32  C18 UNL     1      25.668  17.560  24.340  1.00  0.00     0.040 C
HETATM   33  C19 UNL     1      27.038  16.685  26.155  1.00  0.00     0.057 C
BRANCH  29  34
HETATM   34  O4  UNL     1      26.730  15.617  23.063  1.00  0.00    -0.291 OA
ATOM     35  H4  UNL     1      26.601  14.705  23.297  1.00  0.00     0.244 HD
ENDBRANCH  29  34
ENDBRANCH   5  24
TORSDOF 6
ENDMDL