MODEL 2
REMARK VINA RESULT: -6.737353914      2.627      4.560
REMARK  6 active torsions:
REMARK  status: ('A' for Active; 'I' for Inactive)
REMARK    1  A    between atoms: C3_3  and  O1_5
REMARK    2  A    between atoms: C3_3  and  N1_7
REMARK       I    between atoms: N1_7  and  C5_9
REMARK    3  A    between atoms: C5_9  and  C6_11
REMARK    4  A    between atoms: C15_23  and  C16_24
REMARK    5  A    between atoms: C16_24  and  C18_26
REMARK    6  A    between atoms: C18_26  and  N3_27
ROOT
HETATM    1  C1  UNL     1      21.882   6.136  32.036  1.00  0.00     0.017 C
HETATM    2  C2  UNL     1      21.808   7.340  32.145  1.00  0.00    -0.057 C
HETATM    3  C3  UNL     1      21.702   8.804  32.299  1.00  0.00     0.196 C
HETATM    4  C4  UNL     1      21.447   9.054  33.770  1.00  0.00     0.086 C
ENDROOT
BRANCH   3   5
HETATM    5  O1  UNL     1      20.643   9.263  31.535  1.00  0.00    -0.361 OA
ATOM      6  H1  UNL     1      20.971   9.871  30.884  1.00  0.00     0.213 HD
ENDBRANCH   3   5
BRANCH   3   7
HETATM    7  N1  UNL     1      22.897   9.460  31.843  1.00  0.00    -0.319 N
HETATM    8  C5  UNL     1      22.924  10.857  31.666  1.00  0.00     0.226 C
HETATM    9  O2  UNL     1      21.835  11.483  31.933  1.00  0.00    -0.273 OA
ATOM     10  H1  UNL     1      23.733   8.910  31.646  1.00  0.00     0.166 HD
BRANCH   8  11
HETATM   11  C6  UNL     1      24.127  11.614  31.196  1.00  0.00     0.093 C
HETATM   12  C7  UNL     1      23.600  12.873  30.513  1.00  0.00     0.042 C
HETATM   13  C8  UNL     1      24.579  13.090  29.412  1.00  0.00    -0.022 C
HETATM   14  C9  UNL     1      25.276  11.998  29.185  1.00  0.00    -0.069 C
HETATM   15  C10 UNL     1      26.331  11.968  28.118  1.00  0.00     0.087 C
HETATM   16  C28 UNL     1      24.875  10.891  30.098  1.00  0.00    -0.008 C
HETATM   17  C11 UNL     1      27.368  10.951  28.457  1.00  0.00    -0.002 C
HETATM   18  N2  UNL     1      28.547  11.468  28.708  1.00  0.00    -0.333 N
HETATM   19  C25 UNL     1      27.216   9.507  28.553  1.00  0.00     0.041 C
HETATM   20  C12 UNL     1      29.578  10.497  29.040  1.00  0.00     0.231 C
ATOM     21  H2  UNL     1      28.727  12.471  28.674  1.00  0.00     0.168 HD
HETATM   22  O3  UNL     1      30.228  10.654  30.078  1.00  0.00    -0.272 OA
HETATM   23  C13 UNL     1      29.694   9.425  28.040  1.00  0.00     0.049 C
HETATM   24  C14 UNL     1      29.864  10.068  26.684  1.00  0.00     0.027 C
HETATM   25  C15 UNL     1      30.682   8.341  28.342  1.00  0.00     0.009 C
HETATM   26  C23 UNL     1      28.371   8.676  28.080  1.00  0.00    -0.019 C
HETATM   27  C21 UNL     1      30.024   7.625  29.477  1.00  0.00     0.007 C
HETATM   28  C22 UNL     1      28.598   7.450  28.896  1.00  0.00     0.011 C
HETATM   29  C24 UNL     1      28.106   8.202  26.641  1.00  0.00     0.017 C
HETATM   30  C26 UNL     1      26.765   9.195  29.963  1.00  0.00     0.012 C
HETATM   31  C27 UNL     1      26.130  10.322  30.688  1.00  0.00     0.015 C
HETATM   32  C29 UNL     1      23.938   9.921  29.493  1.00  0.00     0.021 C
BRANCH  25  33
HETATM   33  C16 UNL     1      32.059   8.746  28.574  1.00  0.00     0.015 C
HETATM   34  C17 UNL     1      33.025   8.360  27.458  1.00  0.00     0.012 C
BRANCH  33  35
HETATM   35  C18 UNL     1      32.651   8.146  29.810  1.00  0.00     0.275 C
BRANCH  35  36
HETATM   36  N3  UNL     1      33.177   9.024  30.795  1.00  0.00     0.080 N
HETATM   37  C19 UNL     1      32.486   8.691  32.050  1.00  0.00     0.309 C
HETATM   38  C20 UNL     1      34.616   8.874  30.979  1.00  0.00     0.309 C
ENDBRANCH  35  36
ENDBRANCH  33  35
ENDBRANCH  25  33
ENDBRANCH   8  11
ENDBRANCH   3   7
TORSDOF 6
ENDMDL