MODEL 3
REMARK VINA RESULT: -6.810491441      8.218      9.942
REMARK  5 active torsions:
REMARK  status: ('A' for Active; 'I' for Inactive)
REMARK    1  A    between atoms: O1_2  and  C2_3
REMARK    2  A    between atoms: C5_6  and  C6_7
REMARK    3  A    between atoms: C14_18  and  O2_19
REMARK    4  A    between atoms: C21_27  and  N2_28
REMARK    5  A    between atoms: C28_35  and  O3_36
ROOT
HETATM    1  C6  UNL     1      26.044   8.965  29.233  1.00  0.00    -0.004 C
HETATM    2  C7  UNL     1      25.685   7.612  28.610  1.00  0.00     0.020 C
HETATM    3  C8  UNL     1      26.877   6.924  29.126  1.00  0.00    -0.008 C
HETATM    4  C9  UNL     1      27.994   6.365  28.425  1.00  0.00     0.010 C
HETATM    5  C10 UNL     1      28.983   6.804  27.514  1.00  0.00    -0.009 C
HETATM    6  C11 UNL     1      28.522   7.660  26.320  1.00  0.00     0.012 C
HETATM    7  C12 UNL     1      28.286   8.951  26.957  1.00  0.00     0.025 C
HETATM    8  C13 UNL     1      28.842  10.204  26.255  1.00  0.00     0.241 C
HETATM    9  N1  UNL     1      28.386  11.165  27.241  1.00  0.00    -0.042 N
ATOM     10  H11 UNL     1      27.638  11.760  26.884  1.00  0.00     0.280 HD
ATOM     11  H12 UNL     1      29.077  11.893  27.419  1.00  0.00     0.280 HD
HETATM   12  C14 UNL     1      28.006  10.473  28.432  1.00  0.00     0.233 C
HETATM   13  C15 UNL     1      26.514  10.141  28.525  1.00  0.00     0.084 C
HETATM   14  C16 UNL     1      28.697   9.157  28.343  1.00  0.00     0.027 C
HETATM   15  C17 UNL     1      28.395   8.571  29.602  1.00  0.00     0.021 C
HETATM   16  C18 UNL     1      27.012   8.165  29.974  1.00  0.00     0.004 C
HETATM   17  C19 UNL     1      30.158   8.966  28.305  1.00  0.00     0.006 C
HETATM   18  C20 UNL     1      30.983   9.001  29.528  1.00  0.00     0.039 C
HETATM   19  C21 UNL     1      32.065   7.948  29.236  1.00  0.00     0.190 C
HETATM   20  C25 UNL     1      31.203   6.784  28.742  1.00  0.00     0.039 C
HETATM   21  C26 UNL     1      30.255   7.496  27.868  1.00  0.00    -0.003 C
ENDROOT
BRANCH   1  22
HETATM   22  C5  UNL     1      24.850   9.327  30.084  1.00  0.00    -0.046 A
HETATM   23  C4  UNL     1      24.009   8.252  30.316  1.00  0.00     0.011 A
HETATM   24  C3  UNL     1      22.842   8.369  31.041  1.00  0.00     0.040 A
HETATM   25  C2  UNL     1      22.502   9.577  31.545  1.00  0.00     0.101 A
HETATM   26  C28 UNL     1      23.347  10.703  31.319  1.00  0.00     0.102 A
HETATM   27  C27 UNL     1      24.527  10.529  30.574  1.00  0.00     0.047 A
BRANCH  25  28
HETATM   28  O1  UNL     1      21.338   9.786  32.299  1.00  0.00    -0.353 OA
HETATM   29  C1  UNL     1      21.022   8.964  33.389  1.00  0.00     0.210 C
ENDBRANCH  25  28
BRANCH  26  30
HETATM   30  O3  UNL     1      22.936  11.832  31.831  1.00  0.00    -0.353 OA
HETATM   31  C29 UNL     1      22.540  13.092  31.707  1.00  0.00     0.210 C
ENDBRANCH  26  30
ENDBRANCH   1  22
BRANCH  12  32
HETATM   32  O2  UNL     1      28.482  11.153  29.553  1.00  0.00    -0.364 OA
ATOM     33  H2  UNL     1      29.328  11.542  29.365  1.00  0.00     0.212 HD
ENDBRANCH  12  32
BRANCH  19  34
HETATM   34  N2  UNL     1      32.859   7.608  30.356  1.00  0.00    -0.074 N
HETATM   35  C22 UNL     1      32.343   8.354  31.514  1.00  0.00     0.272 C
HETATM   36  C23 UNL     1      34.264   8.028  30.231  1.00  0.00     0.272 C
HETATM   37  C24 UNL     1      32.892   6.198  30.674  1.00  0.00     0.272 C
ENDBRANCH  19  34
TORSDOF 5
ENDMDL