MODEL 1
REMARK VINA RESULT: -7.488701178      0.000      0.000
REMARK  5 active torsions:
REMARK  status: ('A' for Active; 'I' for Inactive)
REMARK    1  A    between atoms: C5_5  and  O1_6
REMARK    2  A    between atoms: C19_21  and  N1_22
REMARK    3  A    between atoms: N1_22  and  S1_24
REMARK    4  A    between atoms: S1_24  and  N2_27
REMARK    5  A    between atoms: C22_30  and  C23_31
ROOT
HETATM    1  C1  UNL     1      27.105   3.242  35.260  1.00  0.00     0.016 C
HETATM    2  C2  UNL     1      27.237   2.243  34.113  1.00  0.00    -0.036 C
HETATM    3  C3  UNL     1      28.460   1.404  34.415  1.00  0.00     0.012 C
HETATM    4  C4  UNL     1      28.276   0.438  35.525  1.00  0.00     0.032 C
HETATM    5  C5  UNL     1      27.017   0.542  36.291  1.00  0.00     0.118 C
HETATM    6  C6  UNL     1      25.790   0.761  35.470  1.00  0.00     0.037 C
HETATM    7  C7  UNL     1      26.047   1.316  34.101  1.00  0.00    -0.004 C
HETATM    8  C8  UNL     1      24.776   1.977  33.643  1.00  0.00     0.006 C
HETATM    9  C9  UNL     1      24.992   3.082  32.665  1.00  0.00     0.006 C
HETATM   10  C10 UNL     1      26.264   2.779  31.905  1.00  0.00    -0.005 C
HETATM   11  C11 UNL     1      27.412   3.019  32.854  1.00  0.00    -0.002 C
HETATM   12  C12 UNL     1      28.696   2.718  32.123  1.00  0.00     0.006 C
HETATM   13  C13 UNL     1      28.805   3.787  31.018  1.00  0.00     0.011 C
HETATM   14  C14 UNL     1      27.715   3.462  30.050  1.00  0.00    -0.031 C
HETATM   15  C15 UNL     1      28.143   2.351  29.180  1.00  0.00     0.010 C
HETATM   16  C16 UNL     1      29.216   3.050  28.324  1.00  0.00     0.001 C
HETATM   17  C17 UNL     1      28.889   4.549  28.396  1.00  0.00     0.007 C
HETATM   18  C18 UNL     1      27.556   4.536  28.960  1.00  0.00     0.018 C
HETATM   19  C19 UNL     1      26.940   5.642  29.633  1.00  0.00     0.099 C
HETATM   20  C25 UNL     1      26.123   5.002  30.745  1.00  0.00     0.032 C
HETATM   21  C26 UNL     1      26.361   3.492  30.608  1.00  0.00     0.001 C
ENDROOT
BRANCH  19  22
HETATM   22  N1  UNL     1      27.773   6.719  30.075  1.00  0.00    -0.302 N
ATOM     23  H1  UNL     1      28.509   6.620  30.775  1.00  0.00     0.173 HD
BRANCH  22  24
HETATM   24  S1  UNL     1      27.380   8.222  29.277  1.00  0.00     0.299 S
HETATM   25  O2  UNL     1      27.065   7.926  27.826  1.00  0.00    -0.188 OA
HETATM   26  O3  UNL     1      28.530   9.156  29.379  1.00  0.00    -0.188 OA
BRANCH  24  27
HETATM   27  N2  UNL     1      25.993   8.901  30.045  1.00  0.00    -0.193 NA
HETATM   28  C20 UNL     1      24.811   8.867  29.253  1.00  0.00     0.109 C
HETATM   29  C21 UNL     1      24.326  10.291  29.087  1.00  0.00     0.028 C
HETATM   30  C22 UNL     1      24.959  11.019  30.249  1.00  0.00     0.062 C
HETATM   31  C24 UNL     1      26.256  10.256  30.415  1.00  0.00     0.120 C
BRANCH  30  32
HETATM   32  C23 UNL     1      25.178  12.457  29.922  1.00  0.00     0.236 C
HETATM   33  O4  UNL     1      24.866  13.279  30.762  1.00  0.00    -0.306 OA
ENDBRANCH  30  32
ENDBRANCH  24  27
ENDBRANCH  22  24
ENDBRANCH  19  22
BRANCH   5  34
HETATM   34  O1  UNL     1      26.837  -0.683  36.978  1.00  0.00    -0.396 OA
ATOM     35  H1  UNL     1      26.099  -0.573  37.567  1.00  0.00     0.210 HD
ENDBRANCH   5  34
TORSDOF 5
ENDMDL