MODEL 1
REMARK VINA RESULT: -5.986757256      0.000      0.000
REMARK  3 active torsions:
REMARK  status: ('A' for Active; 'I' for Inactive)
REMARK    1  A    between atoms: C2_2  and  N1_3
REMARK    2  A    between atoms: N1_3  and  C3_5
REMARK    3  A    between atoms: N5_15  and  C6_17
ROOT
HETATM    1  C3  UNL     1     -23.829   2.726  61.612  1.00  0.00     0.694 A
HETATM    2  N2  UNL     1     -25.047   3.143  61.999  1.00  0.00    -0.131 N
ATOM      3  H2  UNL     1     -25.557   3.840  61.456  1.00  0.00     0.205 HD
HETATM    4  N3  UNL     1     -25.567   2.632  63.095  1.00  0.00    -0.268 N
ATOM      5  H3  UNL     1     -26.491   2.946  63.393  1.00  0.00     0.189 HD
HETATM    6  C4  UNL     1     -24.922   1.707  63.844  1.00  0.00     0.159 A
HETATM    7  N4  UNL     1     -25.474   1.253  64.887  1.00  0.00    -0.381 N
ATOM      8  H41 UNL     1     -24.988   0.556  65.451  1.00  0.00     0.157 HD
ATOM      9  H42 UNL     1     -26.398   1.585  65.162  1.00  0.00     0.157 HD
HETATM   10  C5  UNL     1     -23.675   1.259  63.474  1.00  0.00     0.166 A
HETATM   11  N5  UNL     1     -22.966   0.399  64.083  1.00  0.00    -0.353 N
ATOM     12  H5  UNL     1     -22.069   0.214  63.634  1.00  0.00     0.166 HD
HETATM   13  N6  UNL     1     -23.181   1.822  62.328  1.00  0.00    -0.172 N
ATOM     14  H6  UNL     1     -22.259   1.527  62.008  1.00  0.00     0.186 HD
ENDROOT
BRANCH   1  15
HETATM   15  N1  UNL     1     -23.277   3.208  60.528  1.00  0.00    -0.225 N
ATOM     16  H1  UNL     1     -23.102   4.212  60.477  1.00  0.00     0.177 HD
BRANCH  15  17
HETATM   17  C2  UNL     1     -22.907   2.398  59.413  1.00  0.00     0.134 C
HETATM   18  C1  UNL     1     -24.149   2.227  58.538  1.00  0.00     0.027 C
ENDBRANCH  15  17
ENDBRANCH   1  15
BRANCH  11  19
HETATM   19  C6  UNL     1     -23.174  -0.347  65.253  1.00  0.00     0.058 C
HETATM   20  C7  UNL     1     -23.442  -1.818  65.040  1.00  0.00     0.054 C
ENDBRANCH  11  19
TORSDOF 3
ENDMDL