MODEL 2
REMARK VINA RESULT: -5.338212419      1.041      1.042
REMARK  2 active torsions:
REMARK  status: ('A' for Active; 'I' for Inactive)
REMARK    1  A    between atoms: N1_2  and  C2_4
REMARK    2  A    between atoms: C2_4  and  C3_5
ROOT
HETATM    1  C3  UNL     1     -23.434   1.589  58.673  1.00  0.00     0.128 C
HETATM    2  N2  UNL     1     -24.234   2.312  59.631  1.00  0.00    -0.359 N
ATOM      3  H2  UNL     1     -25.072   2.851  59.414  1.00  0.00     0.162 HD
HETATM    4  C4  UNL     1     -23.659   2.149  60.947  1.00  0.00     0.168 C
HETATM    5  S1  UNL     1     -24.088   2.906  62.329  1.00  0.00    -0.041 SA
HETATM    6  N3  UNL     1     -22.634   1.183  60.800  1.00  0.00    -0.357 N
ATOM      7  H3  UNL     1     -22.274   0.558  61.520  1.00  0.00     0.162 HD
HETATM    8  C5  UNL     1     -22.202   1.263  59.416  1.00  0.00     0.047 C
HETATM    9  C6  UNL     1     -21.420   0.087  59.016  1.00  0.00     0.040 C
HETATM   10  C7  UNL     1     -21.317   2.525  59.367  1.00  0.00     0.040 C
ENDROOT
BRANCH   1  11
HETATM   11  C2  UNL     1     -24.201   0.519  58.039  1.00  0.00     0.141 C
BRANCH  11  12
HETATM   12  N1  UNL     1     -25.390   0.046  58.635  1.00  0.00    -0.423 N
HETATM   13  C1  UNL     1     -25.315  -1.159  59.397  1.00  0.00     0.139 C
ATOM     14  H1  UNL     1     -26.271   0.547  58.524  1.00  0.00     0.152 HD
ENDBRANCH  11  12
ENDBRANCH   1  11
TORSDOF 2
ENDMDL