MODEL 2
REMARK VINA RESULT: -6.568348962      1.500      2.139
REMARK  2 active torsions:
REMARK  status: ('A' for Active; 'I' for Inactive)
REMARK    1  A    between atoms: C4_4  and  C5_5
REMARK    2  A    between atoms: N1_6  and  N2_8
ROOT
HETATM    1  C1  UNL     1     -24.589  -0.319  56.685  1.00  0.00     0.068 C
HETATM    2  C2  UNL     1     -23.787  -0.108  57.920  1.00  0.00     0.007 A
HETATM    3  C3  UNL     1     -24.353   0.125  59.173  1.00  0.00     0.041 A
HETATM    4  C4  UNL     1     -23.342   0.279  60.101  1.00  0.00     0.024 A
HETATM    5  C7  UNL     1     -22.173   0.134  59.383  1.00  0.00     0.128 A
HETATM    6  N5  UNL     1     -20.885   0.222  59.972  1.00  0.00    -0.082 NA
HETATM    7  N6  UNL     1     -22.451  -0.098  58.078  1.00  0.00    -0.348 N
ATOM      8  H6  UNL     1     -21.762  -0.240  57.338  1.00  0.00     0.167 HD
ENDROOT
BRANCH   4   9
HETATM    9  C5  UNL     1     -23.477   0.541  61.550  1.00  0.00     0.122 C
HETATM   10  N1  UNL     1     -24.647   0.661  62.032  1.00  0.00    -0.309 N
ATOM     11  H1  UNL     1     -25.460   0.576  61.421  1.00  0.00     0.186 HD
BRANCH  10  12
HETATM   12  N2  UNL     1     -24.818   0.907  63.378  1.00  0.00    -0.276 N
HETATM   13  C6  UNL     1     -25.482   1.879  63.884  1.00  0.00     0.215 C
HETATM   14  N3  UNL     1     -25.546   1.967  65.302  1.00  0.00    -0.065 NA
HETATM   15  N4  UNL     1     -26.121   2.817  63.059  1.00  0.00    -0.065 NA
ATOM     16  H2  UNL     1     -24.377   0.256  64.029  1.00  0.00     0.189 HD
ENDBRANCH  10  12
ENDBRANCH   4   9
TORSDOF 2
ENDMDL