MODEL 3
REMARK VINA RESULT: -6.571979206      1.713      3.744
REMARK  3 active torsions:
REMARK  status: ('A' for Active; 'I' for Inactive)
REMARK    1  A    between atoms: C4_9  and  C5_10
REMARK    2  A    between atoms: C5_10  and  C6_11
REMARK    3  A    between atoms: C6_11  and  N4_12
REMARK       I    between atoms: N4_12  and  C7_14
ROOT
HETATM    1  N1  UNL     1     -22.878   0.276  63.400  1.00  0.00    -0.191 NA
HETATM    2  C1  UNL     1     -23.539   1.137  63.008  1.00  0.00     0.103 C
HETATM    3  C2  UNL     1     -24.359   2.219  62.522  1.00  0.00     0.085 A
HETATM    4  C3  UNL     1     -25.488   2.754  63.113  1.00  0.00     0.131 A
HETATM    5  N2  UNL     1     -25.911   3.745  62.291  1.00  0.00    -0.310 N
ATOM      6  H2  UNL     1     -26.727   4.337  62.445  1.00  0.00     0.186 HD
HETATM    7  N3  UNL     1     -25.092   3.816  61.260  1.00  0.00    -0.304 N
ATOM      8  H3  UNL     1     -25.188   4.481  60.494  1.00  0.00     0.186 HD
HETATM    9  C4  UNL     1     -24.124   2.907  61.348  1.00  0.00     0.049 A
ENDROOT
BRANCH   9  10
HETATM   10  C5  UNL     1     -22.999   2.641  60.410  1.00  0.00     0.080 C
BRANCH  10  11
HETATM   11  C6  UNL     1     -23.494   2.226  59.049  1.00  0.00     0.128 C
BRANCH  11  12
HETATM   12  N4  UNL     1     -24.481   1.166  59.145  1.00  0.00    -0.364 N
HETATM   13  C7  UNL     1     -24.063  -0.142  59.503  1.00  0.00     0.181 C
HETATM   14  N5  UNL     1     -23.005  -0.670  58.990  1.00  0.00    -0.374 N
HETATM   15  N6  UNL     1     -24.778  -0.954  60.443  1.00  0.00    -0.064 NA
ATOM     16  H52 UNL     1     -22.496  -0.092  58.321  1.00  0.00     0.158 HD
ATOM     17  H51 UNL     1     -22.706  -1.610  59.247  1.00  0.00     0.158 HD
ATOM     18  H4  UNL     1     -25.464   1.360  58.956  1.00  0.00     0.162 HD
ENDBRANCH  11  12
ENDBRANCH  10  11
ENDBRANCH   9  10
TORSDOF 3
ENDMDL