MODEL 1
REMARK VINA RESULT: -7.332655360      0.000      0.000
REMARK  3 active torsions:
REMARK  status: ('A' for Active; 'I' for Inactive)
REMARK    1  A    between atoms: C7_7  and  N1_8
REMARK       I    between atoms: C8_10  and  N3_12
REMARK    2  A    between atoms: N3_12  and  N4_14
REMARK    3  A    between atoms: N4_14  and  N5_15
ROOT
HETATM    1  N1  UNL     1     -23.013   2.306  59.592  1.00  0.00    -0.329 N
ATOM      2  H1  UNL     1     -21.997   2.304  59.507  1.00  0.00     0.168 HD
HETATM    3  C8  UNL     1     -23.246   3.096  60.484  1.00  0.00     0.206 C
HETATM    4  N2  UNL     1     -22.202   3.809  61.197  1.00  0.00    -0.062 NA
HETATM    5  N3  UNL     1     -24.595   3.362  60.874  1.00  0.00    -0.258 N
ATOM      6  H3  UNL     1     -25.330   3.531  60.188  1.00  0.00     0.187 HD
ENDROOT
BRANCH   1   7
HETATM    7  C7  UNL     1     -23.438   1.429  58.658  1.00  0.00     0.040 A
HETATM    8  C2  UNL     1     -22.781   0.227  58.354  1.00  0.00    -0.035 A
HETATM    9  C1  UNL     1     -21.560  -0.050  59.178  1.00  0.00     0.050 C
HETATM   10  C3  UNL     1     -23.222  -0.638  57.407  1.00  0.00     0.009 A
HETATM   11  C4  UNL     1     -24.364  -0.371  56.680  1.00  0.00     0.001 A
HETATM   12  C5  UNL     1     -25.046   0.796  56.941  1.00  0.00     0.002 A
HETATM   13  C6  UNL     1     -24.600   1.655  57.889  1.00  0.00     0.030 A
ENDBRANCH   1   7
BRANCH   5  14
HETATM   14  N4  UNL     1     -24.852   3.378  62.251  1.00  0.00    -0.028 NA
BRANCH  14  15
HETATM   15  N5  UNL     1     -26.194   3.736  62.502  1.00  0.00    -0.329 N
ATOM     16  H52 UNL     1     -26.576   4.666  62.328  1.00  0.00     0.174 HD
ATOM     17  H51 UNL     1     -26.714   2.941  62.876  1.00  0.00     0.174 HD
ENDBRANCH  14  15
ENDBRANCH   5  14
TORSDOF 3
ENDMDL