MODEL 3
REMARK VINA RESULT: -6.443394800      3.032      6.674
REMARK  3 active torsions:
REMARK  status: ('A' for Active; 'I' for Inactive)
REMARK    1  A    between atoms: N1_1  and  C1_4
REMARK    2  A    between atoms: C4_7  and  C5_8
REMARK    3  A    between atoms: N2_9  and  N3_11
ROOT
HETATM    1  C1  UNL     1     -23.320  -0.165  66.920  1.00  0.00     0.098 A
HETATM    2  C2  UNL     1     -24.445   0.510  66.506  1.00  0.00     0.049 A
HETATM    3  C3  UNL     1     -24.729   0.725  65.153  1.00  0.00     0.018 A
HETATM    4  C4  UNL     1     -23.826   0.229  64.238  1.00  0.00    -0.004 A
HETATM    5  C7  UNL     1     -22.708  -0.443  64.682  1.00  0.00     0.102 A
HETATM    6  N6  UNL     1     -22.460  -0.634  66.000  1.00  0.00    -0.352 N
ATOM      7  H6  UNL     1     -21.622  -1.135  66.294  1.00  0.00     0.166 HD
ENDROOT
BRANCH   4   8
HETATM    8  C5  UNL     1     -24.051   0.412  62.800  1.00  0.00     0.120 C
HETATM    9  N2  UNL     1     -23.098   0.840  62.042  1.00  0.00    -0.309 N
ATOM     10  H2  UNL     1     -22.190   1.049  62.458  1.00  0.00     0.186 HD
BRANCH   9  11
HETATM   11  N3  UNL     1     -23.273   1.025  60.687  1.00  0.00    -0.276 N
HETATM   12  C6  UNL     1     -22.417   0.702  59.782  1.00  0.00     0.215 C
HETATM   13  N4  UNL     1     -21.164   0.105  60.091  1.00  0.00    -0.065 NA
HETATM   14  N5  UNL     1     -22.754   0.960  58.435  1.00  0.00    -0.065 NA
ATOM     15  H3  UNL     1     -24.146   1.451  60.378  1.00  0.00     0.189 HD
ENDBRANCH   9  11
ENDBRANCH   4   8
BRANCH   1  16
HETATM   16  N1  UNL     1     -23.121  -0.326  68.189  1.00  0.00    -0.385 N
ATOM     17  H12 UNL     1     -22.852   0.448  68.796  1.00  0.00     0.157 HD
ATOM     18  H11 UNL     1     -23.239  -1.256  68.590  1.00  0.00     0.157 HD
ENDBRANCH   1  16
TORSDOF 3
ENDMDL