MODEL 5
REMARK VINA RESULT: -6.203083841      1.960      2.142
REMARK  4 active torsions:
REMARK  status: ('A' for Active; 'I' for Inactive)
REMARK    1  A    between atoms: N1_1  and  C1_4
REMARK    2  A    between atoms: C2_10  and  N5_11
REMARK    3  A    between atoms: N5_11  and  C3_13
REMARK    4  A    between atoms: C3_13  and  C4_14
ROOT
HETATM    1  C1  UNL     1     -24.914   2.182  63.011  1.00  0.00     0.157 A
HETATM    2  N2  UNL     1     -25.761   3.212  62.846  1.00  0.00    -0.267 N
ATOM      3  H2  UNL     1     -26.505   3.507  63.478  1.00  0.00     0.186 HD
HETATM    4  N3  UNL     1     -25.428   3.761  61.692  1.00  0.00    -0.019 NA
HETATM    5  N4  UNL     1     -24.416   3.124  61.129  1.00  0.00    -0.266 N
ATOM      6  H4  UNL     1     -23.983   3.360  60.236  1.00  0.00     0.186 HD
HETATM    7  C2  UNL     1     -24.055   2.107  61.939  1.00  0.00     0.160 A
ENDROOT
BRANCH   7   8
HETATM    8  N5  UNL     1     -23.117   1.231  61.780  1.00  0.00    -0.366 N
ATOM      9  H5  UNL     1     -22.585   0.930  62.597  1.00  0.00     0.161 HD
BRANCH   8  10
HETATM   10  C3  UNL     1     -22.795   0.661  60.492  1.00  0.00     0.186 C
BRANCH  10  11
HETATM   11  C4  UNL     1     -23.962  -0.005  59.876  1.00  0.00     0.070 A
HETATM   12  C5  UNL     1     -24.451   0.172  58.611  1.00  0.00     0.036 A
HETATM   13  C6  UNL     1     -25.542  -0.658  58.493  1.00  0.00     0.027 A
HETATM   14  C7  UNL     1     -25.678  -1.313  59.695  1.00  0.00     0.142 A
HETATM   15  O1  UNL     1     -24.718  -0.885  60.467  1.00  0.00    -0.325 OA
ENDBRANCH  10  11
ENDBRANCH   8  10
ENDBRANCH   7   8
BRANCH   1  16
HETATM   16  N1  UNL     1     -24.922   1.394  64.026  1.00  0.00    -0.382 N
ATOM     17  H12 UNL     1     -25.649   1.346  64.740  1.00  0.00     0.157 HD
ATOM     18  H11 UNL     1     -24.188   0.717  64.235  1.00  0.00     0.157 HD
ENDBRANCH   1  16
TORSDOF 4
ENDMDL