MODEL 4
REMARK VINA RESULT: -5.925330409      1.728      5.141
REMARK  5 active torsions:
REMARK  status: ('A' for Active; 'I' for Inactive)
REMARK    1  A    between atoms: C3_5  and  N2_6
REMARK    2  A    between atoms: N2_6  and  C4_8
REMARK    3  A    between atoms: C4_8  and  C5_9
REMARK    4  A    between atoms: C5_9  and  N3_11
REMARK    5  A    between atoms: C7_17  and  N5_18
ROOT
HETATM    1  C1  UNL     1     -20.413   1.224  58.026  1.00  0.00     0.090 C
HETATM    2  C2  UNL     1     -21.744   1.188  58.718  1.00  0.00     0.109 A
HETATM    3  N1  UNL     1     -21.831   1.063  60.052  1.00  0.00    -0.180 N
ATOM      4  H1  UNL     1     -20.981   0.991  60.611  1.00  0.00     0.185 HD
HETATM    5  C3  UNL     1     -23.041   1.033  60.660  1.00  0.00     0.694 A
HETATM    6  N4  UNL     1     -24.122   1.130  59.865  1.00  0.00    -0.023 N
ATOM      7  H4  UNL     1     -25.045   1.110  60.298  1.00  0.00     0.203 HD
HETATM    8  C7  UNL     1     -24.047   1.254  58.529  1.00  0.00     0.691 A
HETATM    9  N6  UNL     1     -22.833   1.282  57.952  1.00  0.00    -0.180 N
ATOM     10  H6  UNL     1     -22.745   1.375  56.941  1.00  0.00     0.185 HD
ENDROOT
BRANCH   5  11
HETATM   11  N2  UNL     1     -23.121   0.913  61.942  1.00  0.00    -0.224 N
ATOM     12  H2  UNL     1     -22.779   0.077  62.413  1.00  0.00     0.177 HD
BRANCH  11  13
HETATM   13  C4  UNL     1     -23.702   1.987  62.681  1.00  0.00     0.170 C
BRANCH  13  14
HETATM   14  C5  UNL     1     -25.066   1.678  63.233  1.00  0.00     0.197 C
HETATM   15  C6  UNL     1     -25.062   1.252  64.655  1.00  0.00     0.041 C
BRANCH  14  16
HETATM   16  N3  UNL     1     -25.883   2.878  63.024  1.00  0.00    -0.074 N
ATOM     17  H33 UNL     1     -25.546   3.691  63.540  1.00  0.00     0.274 HD
ATOM     18  H32 UNL     1     -25.787   3.274  62.088  1.00  0.00     0.274 HD
ATOM     19  H31 UNL     1     -26.842   2.621  63.257  1.00  0.00     0.274 HD
ENDBRANCH  14  16
ENDBRANCH  13  14
ENDBRANCH  11  13
ENDBRANCH   5  11
BRANCH   8  20
HETATM   20  N5  UNL     1     -25.151   1.339  57.878  1.00  0.00    -0.234 N
ATOM     21  H52 UNL     1     -25.922   0.679  57.978  1.00  0.00     0.174 HD
ATOM     22  H51 UNL     1     -25.254   2.115  57.224  1.00  0.00     0.174 HD
ENDBRANCH   8  20
TORSDOF 5
ENDMDL