MODEL 3
REMARK VINA RESULT: -5.872659560      1.125      5.132
REMARK  2 active torsions:
REMARK  status: ('A' for Active; 'I' for Inactive)
REMARK    1  A    between atoms: C3_3  and  C4_4
REMARK    2  A    between atoms: C4_4  and  N1_5
ROOT
HETATM    1  C4  UNL     1     -23.125   2.954  60.219  1.00  0.00     0.089 C
ENDROOT
BRANCH   1   2
HETATM    2  C3  UNL     1     -23.356   2.381  58.837  1.00  0.00     0.125 C
HETATM    3  C2  UNL     1     -22.710   1.012  58.771  1.00  0.00     0.075 C
HETATM    4  C1  UNL     1     -23.247   0.135  57.713  1.00  0.00     0.064 C
HETATM    5  N5  UNL     1     -24.232   0.663  56.859  1.00  0.00    -0.366 N
HETATM    6  C8  UNL     1     -25.123   1.621  57.385  1.00  0.00     0.176 C
ATOM      7  H5  UNL     1     -24.300   0.361  55.887  1.00  0.00     0.165 HD
HETATM    8  N4  UNL     1     -24.748   2.245  58.600  1.00  0.00    -0.377 N
ATOM      9  H4  UNL     1     -25.441   2.579  59.269  1.00  0.00     0.161 HD
ENDBRANCH   1   2
BRANCH   1  10
HETATM   10  N1  UNL     1     -24.015   2.642  61.223  1.00  0.00    -0.340 N
HETATM   11  C5  UNL     1     -24.110   1.793  62.116  1.00  0.00     0.174 C
HETATM   12  N2  UNL     1     -23.284   0.712  62.501  1.00  0.00    -0.361 N
HETATM   13  N3  UNL     1     -25.235   1.764  63.050  1.00  0.00    -0.361 N
HETATM   14  C6  UNL     1     -23.421   0.505  63.940  1.00  0.00     0.142 C
ATOM     15  H2  UNL     1     -22.690   0.167  61.877  1.00  0.00     0.162 HD
HETATM   16  C7  UNL     1     -24.790   1.043  64.220  1.00  0.00     0.142 C
ATOM     17  H3  UNL     1     -26.157   2.175  62.904  1.00  0.00     0.162 HD
ATOM     18  H1  UNL     1     -24.808   3.283  61.232  1.00  0.00     0.168 HD
ENDBRANCH   1  10
TORSDOF 2
ENDMDL