MODEL 4
REMARK VINA RESULT: -6.431567029      1.725      5.844
REMARK  2 active torsions:
REMARK  status: ('A' for Active; 'I' for Inactive)
REMARK    1  A    between atoms: C2_2  and  C4_12
REMARK    2  A    between atoms: N1_3  and  N2_5
REMARK       I    between atoms: N2_5  and  C3_7
ROOT
HETATM    1  C1  UNL     1     -23.544   2.029  58.825  1.00  0.00     0.065 C
HETATM    2  C2  UNL     1     -22.586   2.557  59.824  1.00  0.00     0.005 C
HETATM    3  N1  UNL     1     -21.331   2.343  59.637  1.00  0.00    -0.306 N
ATOM      4  H1  UNL     1     -20.680   2.710  60.330  1.00  0.00     0.186 HD
ENDROOT
BRANCH   2   5
HETATM    5  C4  UNL     1     -23.098   3.314  61.007  1.00  0.00     0.044 A
HETATM    6  C5  UNL     1     -23.424   2.597  62.174  1.00  0.00     0.028 A
HETATM    7  C6  UNL     1     -24.409   1.556  62.528  1.00  0.00     0.238 C
HETATM    8  C8  UNL     1     -24.475   3.373  61.277  1.00  0.00     0.028 A
HETATM    9  N5  UNL     1     -25.496   2.400  63.066  1.00  0.00    -0.074 N
HETATM   10  C7  UNL     1     -25.321   3.725  62.436  1.00  0.00     0.238 C
ATOM     11  H52 UNL     1     -26.426   2.003  62.933  1.00  0.00     0.277 HD
ATOM     12  H51 UNL     1     -25.522   2.432  64.085  1.00  0.00     0.277 HD
ENDBRANCH   2   5
BRANCH   3  13
HETATM   13  N2  UNL     1     -20.806   1.653  58.567  1.00  0.00    -0.274 N
HETATM   14  C3  UNL     1     -19.491   1.912  58.093  1.00  0.00     0.200 C
HETATM   15  N3  UNL     1     -19.202   2.977  57.413  1.00  0.00    -0.372 N
HETATM   16  N4  UNL     1     -18.478   0.959  58.383  1.00  0.00    -0.062 NA
ATOM     17  H32 UNL     1     -19.928   3.662  57.205  1.00  0.00     0.158 HD
ATOM     18  H31 UNL     1     -18.258   3.163  57.073  1.00  0.00     0.158 HD
ATOM     19  H2  UNL     1     -21.372   0.941  58.105  1.00  0.00     0.189 HD
ENDBRANCH   3  13
TORSDOF 2
ENDMDL