MODEL 5
REMARK VINA RESULT: -6.872107519      2.474      8.165
REMARK  4 active torsions:
REMARK  status: ('A' for Active; 'I' for Inactive)
REMARK    1  A    between atoms: C2_2  and  N1_3
REMARK       I    between atoms: N1_3  and  C3_5
REMARK       I    between atoms: C3_5  and  N3_11
REMARK       I    between atoms: N2_6  and  C4_8
REMARK    2  A    between atoms: N3_11  and  O2_13
REMARK    3  A    between atoms: O2_13  and  C6_14
REMARK    4  A    between atoms: C9_17  and  N4_18
REMARK       I    between atoms: N4_18  and  C10_20
ROOT
HETATM    1  C6  UNL     1     -15.532   8.578  13.503  1.00  0.00     0.153 C
HETATM    2  C7  UNL     1     -15.177   7.177  13.144  1.00  0.00     0.036 C
HETATM    3  C8  UNL     1     -16.278   6.239  13.592  1.00  0.00     0.028 C
HETATM    4  C9  UNL     1     -17.660   6.797  13.296  1.00  0.00     0.084 C
HETATM    5  C11 UNL     1     -17.881   8.131  13.949  1.00  0.00     0.028 C
HETATM    6  C12 UNL     1     -16.581   8.541  14.625  1.00  0.00     0.036 C
ENDROOT
BRANCH   1   7
HETATM    7  O2  UNL     1     -14.475   9.369  13.914  1.00  0.00    -0.261 OA
BRANCH   7   8
HETATM    8  N3  UNL     1     -13.578   9.423  12.888  1.00  0.00    -0.096 N
HETATM    9  C3  UNL     1     -12.259   9.889  13.010  1.00  0.00     0.700 C
HETATM   10  N1  UNL     1     -11.907  11.069  12.284  1.00  0.00    -0.225 N
HETATM   11  N2  UNL     1     -11.374   9.285  13.748  1.00  0.00    -0.159 N
ATOM     12  H1  UNL     1     -11.530  11.011  11.338  1.00  0.00     0.177 HD
HETATM   13  C4  UNL     1     -10.035   9.782  13.848  1.00  0.00     0.232 C
ATOM     14  H2  UNL     1     -11.637   8.445  14.263  1.00  0.00     0.187 HD
HETATM   15  C5  UNL     1      -9.307   9.688  15.136  1.00  0.00     0.118 C
HETATM   16  O1  UNL     1      -9.510  10.290  12.826  1.00  0.00    -0.273 OA
ATOM     17  H3  UNL     1     -13.887   9.104  11.970  1.00  0.00     0.213 HD
BRANCH  10  18
HETATM   18  C2  UNL     1     -12.102  12.343  12.933  1.00  0.00     0.134 C
HETATM   19  C1  UNL     1     -13.113  13.125  12.100  1.00  0.00     0.027 C
ENDBRANCH  10  18
ENDBRANCH   7   8
ENDBRANCH   1   7
BRANCH   4  20
HETATM   20  N4  UNL     1     -18.619   5.861  13.844  1.00  0.00    -0.360 N
HETATM   21  C10 UNL     1     -19.181   4.869  12.983  1.00  0.00     0.182 C
HETATM   22  N5  UNL     1     -19.468   5.113  11.756  1.00  0.00    -0.374 N
HETATM   23  N6  UNL     1     -19.403   3.587  13.588  1.00  0.00    -0.064 NA
ATOM     24  H52 UNL     1     -19.310   6.024  11.326  1.00  0.00     0.158 HD
ATOM     25  H51 UNL     1     -19.869   4.405  11.141  1.00  0.00     0.158 HD
ATOM     26  H4  UNL     1     -18.889   5.909  14.827  1.00  0.00     0.162 HD
ENDBRANCH   4  20
TORSDOF 4
ENDMDL