MODEL 2
REMARK VINA RESULT: -6.664995978      2.075      3.715
REMARK  7 active torsions:
REMARK  status: ('A' for Active; 'I' for Inactive)
REMARK    1  A    between atoms: C6_9  and  C7_10
REMARK    2  A    between atoms: C9_12  and  N2_13
REMARK    3  A    between atoms: N2_13  and  C10_15
REMARK    4  A    between atoms: C10_15  and  C11_19
REMARK    5  A    between atoms: C14_22  and  C15_23
REMARK    6  A    between atoms: C15_23  and  N4_24
REMARK    7  A    between atoms: C15_23  and  O1_28
ROOT
HETATM    1  C1  UNL     1     -17.079   9.376  14.361  1.00  0.00     0.014 C
HETATM    2  C2  UNL     1     -17.755   8.389  14.149  1.00  0.00    -0.082 C
HETATM    3  C3  UNL     1     -18.555   7.198  13.875  1.00  0.00     0.286 C
HETATM    4  N1  UNL     1     -19.707   7.624  13.127  1.00  0.00    -0.059 N
ATOM      5  H11 UNL     1     -19.672   8.628  12.951  1.00  0.00     0.278 HD
ATOM      6  H12 UNL     1     -20.548   7.581  13.703  1.00  0.00     0.278 HD
HETATM    7  C4  UNL     1     -19.894   6.897  11.898  1.00  0.00     0.234 C
HETATM    8  C5  UNL     1     -19.960   5.439  12.250  1.00  0.00     0.034 C
HETATM    9  C6  UNL     1     -18.551   4.998  12.656  1.00  0.00     0.012 C
HETATM   10  C9  UNL     1     -17.756   6.126  13.195  1.00  0.00     0.129 C
ENDROOT
BRANCH  10  11
HETATM   11  N2  UNL     1     -16.582   5.693  13.872  1.00  0.00    -0.372 N
ATOM     12  H2  UNL     1     -16.738   5.274  14.789  1.00  0.00     0.161 HD
BRANCH  11  13
HETATM   13  C10 UNL     1     -15.235   5.758  13.460  1.00  0.00     0.075 C
HETATM   14  N3  UNL     1     -14.748   6.814  12.963  1.00  0.00    -0.389 N
ATOM     15  H32 UNL     1     -15.332   7.644  12.858  1.00  0.00     0.157 HD
ATOM     16  H31 UNL     1     -13.774   6.861  12.665  1.00  0.00     0.157 HD
BRANCH  13  17
HETATM   17  C11 UNL     1     -14.390   4.559  13.611  1.00  0.00     0.061 C
HETATM   18  C12 UNL     1     -14.964   3.518  14.570  1.00  0.00     0.013 C
HETATM   19  C13 UNL     1     -14.457   2.465  13.608  1.00  0.00     0.010 C
HETATM   20  C14 UNL     1     -14.467   3.537  12.534  1.00  0.00     0.053 C
BRANCH  20  21
HETATM   21  C15 UNL     1     -13.175   3.474  11.751  1.00  0.00     0.321 C
BRANCH  21  22
HETATM   22  N4  UNL     1     -13.466   2.950  10.429  1.00  0.00    -0.053 N
ATOM     23  H43 UNL     1     -13.976   3.616   9.847  1.00  0.00     0.277 HD
ATOM     24  H42 UNL     1     -12.633   2.867   9.848  1.00  0.00     0.277 HD
ATOM     25  H41 UNL     1     -13.960   2.065  10.536  1.00  0.00     0.277 HD
ENDBRANCH  21  22
BRANCH  21  26
HETATM   26  O1  UNL     1     -12.508   4.684  11.704  1.00  0.00    -0.370 OA
ATOM     27  H1  UNL     1     -11.751   4.717  12.277  1.00  0.00     0.212 HD
ENDBRANCH  21  26
ENDBRANCH  20  21
ENDBRANCH  13  17
ENDBRANCH  11  13
ENDBRANCH  10  11
BRANCH   9  28
HETATM   28  C7  UNL     1     -18.772   3.824  13.574  1.00  0.00     0.002 C
HETATM   29  C8  UNL     1     -17.961   2.632  13.020  1.00  0.00     0.005 C
ENDBRANCH   9  28
TORSDOF 7
ENDMDL