MODEL 5
REMARK VINA RESULT: -6.046498272      2.410      3.804
REMARK  7 active torsions:
REMARK  status: ('A' for Active; 'I' for Inactive)
REMARK    1  A    between atoms: N1_1  and  C1_5
REMARK    2  A    between atoms: C1_5  and  C2_6
REMARK    3  A    between atoms: C5_9  and  C6_10
REMARK    4  A    between atoms: C6_10  and  N2_11
REMARK    5  A    between atoms: N2_11  and  C7_13
REMARK    6  A    between atoms: C7_13  and  N3_15
REMARK    7  A    between atoms: N3_15  and  C8_17
ROOT
HETATM    1  N2  UNL     1     -15.815   5.140  14.367  1.00  0.00    -0.367 N
ATOM      2  H2  UNL     1     -15.475   5.350  15.306  1.00  0.00     0.161 HD
ENDROOT
BRANCH   1   3
HETATM    3  C6  UNL     1     -15.554   3.833  13.799  1.00  0.00     0.126 C
BRANCH   3   4
HETATM    4  C5  UNL     1     -14.307   3.842  12.938  1.00  0.00     0.003 C
HETATM    5  C4  UNL     1     -14.708   3.634  11.530  1.00  0.00     0.007 C
HETATM    6  C3  UNL     1     -13.745   2.893  10.677  1.00  0.00     0.007 C
HETATM    7  C2  UNL     1     -13.289   1.659  11.422  1.00  0.00     0.011 C
HETATM    8  C13 UNL     1     -12.432   2.199  12.567  1.00  0.00     0.007 C
HETATM    9  C12 UNL     1     -13.324   2.904  13.515  1.00  0.00     0.007 C
BRANCH   7  10
HETATM   10  C1  UNL     1     -12.419   0.765  10.576  1.00  0.00     0.234 C
BRANCH  10  11
HETATM   11  N1  UNL     1     -12.092  -0.421  11.337  1.00  0.00    -0.079 N
ATOM     12  H13 UNL     1     -12.916  -0.865  11.741  1.00  0.00     0.274 HD
ATOM     13  H12 UNL     1     -11.792  -1.194  10.743  1.00  0.00     0.274 HD
ATOM     14  H11 UNL     1     -11.396  -0.177  12.042  1.00  0.00     0.274 HD
ENDBRANCH  10  11
ENDBRANCH   7  10
ENDBRANCH   3   4
ENDBRANCH   1   3
BRANCH   1  15
HETATM   15  C7  UNL     1     -16.530   6.139  13.654  1.00  0.00     0.169 C
HETATM   16  S1  UNL     1     -15.775   7.168  12.654  1.00  0.00    -0.041 SA
BRANCH  15  17
HETATM   17  N3  UNL     1     -17.932   6.245  13.811  1.00  0.00    -0.338 N
ATOM     18  H3  UNL     1     -18.328   7.063  14.275  1.00  0.00     0.164 HD
BRANCH  17  19
HETATM   19  C8  UNL     1     -18.801   5.213  13.323  1.00  0.00     0.311 C
HETATM   20  C9  UNL     1     -20.201   5.403  13.805  1.00  0.00     0.286 C
HETATM   21  N4  UNL     1     -21.137   5.277  12.701  1.00  0.00    -0.070 N
HETATM   22  C10 UNL     1     -20.911   6.286  11.707  1.00  0.00     0.260 C
ATOM     23  H42 UNL     1     -21.114   4.341  12.295  1.00  0.00     0.277 HD
ATOM     24  H41 UNL     1     -22.103   5.283  13.027  1.00  0.00     0.277 HD
HETATM   25  C11 UNL     1     -19.452   6.315  11.299  1.00  0.00     0.262 C
HETATM   26  N5  UNL     1     -18.756   5.174  11.860  1.00  0.00    -0.051 N
ATOM     27  H52 UNL     1     -17.799   5.105  11.512  1.00  0.00     0.279 HD
ATOM     28  H51 UNL     1     -19.115   4.292  11.493  1.00  0.00     0.279 HD
ENDBRANCH  17  19
ENDBRANCH  15  17
ENDBRANCH   1  15
TORSDOF 7
ENDMDL