MODEL 2
REMARK VINA RESULT: -7.168734687      1.546      4.080
REMARK  8 active torsions:
REMARK  status: ('A' for Active; 'I' for Inactive)
REMARK    1  A    between atoms: C2_2  and  N2_6
REMARK    2  A    between atoms: N2_6  and  C3_8
REMARK    3  A    between atoms: C4_11  and  N4_12
REMARK    4  A    between atoms: C5_17  and  N6_18
REMARK    5  A    between atoms: N6_18  and  C6_20
REMARK    6  A    between atoms: C6_20  and  C7_21
REMARK    7  A    between atoms: C7_21  and  C8_22
REMARK    8  A    between atoms: C8_22  and  N7_23
ROOT
HETATM    1  C3  UNL     1     -18.526   6.778  13.105  1.00  0.00     0.712 A
HETATM    2  N3  UNL     1     -19.846   6.949  12.913  1.00  0.00    -0.021 N
ATOM      3  H3  UNL     1     -20.203   7.858  12.615  1.00  0.00     0.203 HD
HETATM    4  C4  UNL     1     -20.697   5.930  13.109  1.00  0.00     0.705 A
HETATM    5  N5  UNL     1     -20.208   4.735  13.502  1.00  0.00    -0.022 N
ATOM      6  H5  UNL     1     -20.854   3.961  13.653  1.00  0.00     0.203 HD
HETATM    7  C5  UNL     1     -18.891   4.536  13.702  1.00  0.00     0.707 A
HETATM    8  N8  UNL     1     -18.078   5.581  13.494  1.00  0.00    -0.021 N
ATOM      9  H8  UNL     1     -17.076   5.458  13.639  1.00  0.00     0.203 HD
ENDROOT
BRANCH   7  10
HETATM   10  N6  UNL     1     -18.407   3.404  14.078  1.00  0.00    -0.225 N
ATOM     11  H6  UNL     1     -18.860   2.877  14.824  1.00  0.00     0.177 HD
BRANCH  10  12
HETATM   12  C6  UNL     1     -17.223   2.882  13.442  1.00  0.00     0.140 C
BRANCH  12  13
HETATM   13  C7  UNL     1     -16.159   2.584  14.480  1.00  0.00     0.050 C
BRANCH  13  14
HETATM   14  C8  UNL     1     -15.044   3.577  14.459  1.00  0.00     0.274 C
BRANCH  14  15
HETATM   15  N7  UNL     1     -13.879   2.943  13.867  1.00  0.00     0.088 N
HETATM   16  C9  UNL     1     -13.648   3.567  12.597  1.00  0.00     0.272 C
HETATM   17  C10 UNL     1     -12.444   4.473  12.592  1.00  0.00     0.030 C
HETATM   18  C11 UNL     1     -11.252   3.579  12.864  1.00  0.00     0.003 C
HETATM   19  C12 UNL     1     -11.427   2.885  14.159  1.00  0.00     0.030 C
HETATM   20  C13 UNL     1     -12.780   2.985  14.773  1.00  0.00     0.272 C
ENDBRANCH  14  15
ENDBRANCH  13  14
ENDBRANCH  12  13
ENDBRANCH  10  12
ENDBRANCH   7  10
BRANCH   4  21
HETATM   21  N4  UNL     1     -21.983   6.063  12.931  1.00  0.00    -0.234 N
ATOM     22  H42 UNL     1     -22.327   6.813  12.331  1.00  0.00     0.174 HD
ATOM     23  H41 UNL     1     -22.654   5.437  13.376  1.00  0.00     0.174 HD
ENDBRANCH   4  21
BRANCH   1  24
HETATM   24  N2  UNL     1     -17.681   7.737  12.925  1.00  0.00    -0.180 N
ATOM     25  H2  UNL     1     -17.890   8.476  12.254  1.00  0.00     0.185 HD
BRANCH  24  26
HETATM   26  C2  UNL     1     -16.471   7.772  13.650  1.00  0.00     0.087 C
HETATM   27  C1  UNL     1     -15.220   7.318  12.993  1.00  0.00     0.089 C
HETATM   28  N1  UNL     1     -16.483   8.199  14.865  1.00  0.00    -0.389 N
ATOM     29  H12 UNL     1     -15.608   8.224  15.389  1.00  0.00     0.157 HD
ATOM     30  H11 UNL     1     -17.343   8.511  15.316  1.00  0.00     0.157 HD
ENDBRANCH  24  26
ENDBRANCH   1  24
TORSDOF 8
ENDMDL