MODEL 1
REMARK VINA RESULT: -6.686084056      0.000      0.000
REMARK  8 active torsions:
REMARK  status: ('A' for Active; 'I' for Inactive)
REMARK    1  A    between atoms: N1_1  and  C1_5
REMARK    2  A    between atoms: C3_7  and  C4_8
REMARK    3  A    between atoms: C4_8  and  N2_9
REMARK    4  A    between atoms: N2_9  and  C5_11
REMARK    5  A    between atoms: C5_11  and  N3_13
REMARK    6  A    between atoms: N3_13  and  C6_15
REMARK    7  A    between atoms: C12_21  and  C13_22
REMARK    8  A    between atoms: C13_22  and  O1_23
ROOT
HETATM    1  C4  UNL     1     -15.610   5.695  13.522  1.00  0.00     0.127 C
ENDROOT
BRANCH   1   2
HETATM    2  C3  UNL     1     -16.496   4.493  13.540  1.00  0.00     0.013 C
HETATM    3  C2  UNL     1     -16.890   4.077  12.120  1.00  0.00     0.040 C
HETATM    4  C1  UNL     1     -16.566   2.653  12.529  1.00  0.00     0.190 C
HETATM    5  C12 UNL     1     -15.794   3.169  13.733  1.00  0.00     0.045 C
BRANCH   4   6
HETATM    6  N1  UNL     1     -17.719   1.907  12.968  1.00  0.00    -0.075 N
ATOM      7  H13 UNL     1     -18.466   2.536  13.263  1.00  0.00     0.274 HD
ATOM      8  H12 UNL     1     -18.180   1.455  12.178  1.00  0.00     0.274 HD
ATOM      9  H11 UNL     1     -17.507   1.228  13.700  1.00  0.00     0.274 HD
ENDBRANCH   4   6
BRANCH   5  10
HETATM   10  C13 UNL     1     -16.214   2.541  15.044  1.00  0.00     0.171 C
BRANCH  10  11
HETATM   11  O1  UNL     1     -15.353   2.869  16.080  1.00  0.00    -0.400 OA
ATOM     12  H1  UNL     1     -15.820   3.168  16.852  1.00  0.00     0.209 HD
ENDBRANCH  10  11
ENDBRANCH   5  10
ENDBRANCH   1   2
BRANCH   1  13
HETATM   13  N2  UNL     1     -16.139   6.684  14.430  1.00  0.00    -0.367 N
ATOM     14  H2  UNL     1     -15.927   6.634  15.427  1.00  0.00     0.161 HD
BRANCH  13  15
HETATM   15  C5  UNL     1     -16.947   7.714  13.929  1.00  0.00     0.167 C
HETATM   16  S1  UNL     1     -17.032   9.117  14.728  1.00  0.00    -0.041 SA
BRANCH  15  17
HETATM   17  N3  UNL     1     -17.678   7.530  12.738  1.00  0.00    -0.363 N
ATOM     18  H3  UNL     1     -17.177   7.558  11.851  1.00  0.00     0.162 HD
BRANCH  17  19
HETATM   19  C6  UNL     1     -19.108   7.302  12.716  1.00  0.00     0.083 C
HETATM   20  C7  UNL     1     -19.470   6.708  11.376  1.00  0.00     0.025 C
HETATM   21  C8  UNL     1     -20.947   6.476  11.259  1.00  0.00     0.002 C
HETATM   22  C9  UNL     1     -21.408   5.724  12.485  1.00  0.00     0.000 C
HETATM   23  C10 UNL     1     -20.237   5.180  13.275  1.00  0.00     0.002 C
HETATM   24  C11 UNL     1     -19.401   6.315  13.848  1.00  0.00     0.025 C
ENDBRANCH  17  19
ENDBRANCH  15  17
ENDBRANCH  13  15
ENDBRANCH   1  13
TORSDOF 8
ENDMDL