MODEL 3
REMARK VINA RESULT: -6.532771272      2.314      3.151
REMARK  4 active torsions:
REMARK  status: ('A' for Active; 'I' for Inactive)
REMARK       I    between atoms: C1_4  and  N3_6
REMARK    1  A    between atoms: N3_6  and  C2_8
REMARK    2  A    between atoms: C2_8  and  C3_9
REMARK    3  A    between atoms: C2_8  and  C9_20
REMARK       I    between atoms: C3_9  and  N4_11
REMARK    4  A    between atoms: N4_11  and  C4_13
ROOT
HETATM    1  C2  UNL     1     -15.022   3.009  12.449  1.00  0.00     0.190 C
ENDROOT
BRANCH   1   2
HETATM    2  N3  UNL     1     -15.009   2.288  13.656  1.00  0.00    -0.350 N
HETATM    3  C1  UNL     1     -15.881   1.992  14.694  1.00  0.00     0.182 C
HETATM    4  N1  UNL     1     -16.038   2.597  15.791  1.00  0.00    -0.374 N
HETATM    5  N2  UNL     1     -16.746   0.794  14.575  1.00  0.00    -0.064 NA
ATOM      6  H12 UNL     1     -16.679   2.380  16.553  1.00  0.00     0.158 HD
ATOM      7  H11 UNL     1     -15.443   3.422  15.873  1.00  0.00     0.158 HD
ATOM      8  H3  UNL     1     -14.097   1.859  13.813  1.00  0.00     0.163 HD
ENDBRANCH   1   2
BRANCH   1   9
HETATM    9  C3  UNL     1     -16.372   3.392  11.899  1.00  0.00     0.242 C
HETATM   10  O1  UNL     1     -16.722   2.784  10.854  1.00  0.00    -0.271 OA
HETATM   11  N4  UNL     1     -17.085   4.366  12.580  1.00  0.00    -0.350 N
ATOM     12  H4  UNL     1     -16.599   4.803  13.363  1.00  0.00     0.163 HD
BRANCH  11  13
HETATM   13  C4  UNL     1     -18.392   4.833  12.335  1.00  0.00     0.122 C
HETATM   14  C5  UNL     1     -18.386   6.373  12.169  1.00  0.00     0.032 C
HETATM   15  C6  UNL     1     -19.693   6.642  11.437  1.00  0.00     0.022 C
HETATM   16  C7  UNL     1     -20.765   6.321  12.429  1.00  0.00     0.119 C
HETATM   17  N5  UNL     1     -20.701   5.079  13.094  1.00  0.00    -0.400 N
HETATM   18  C8  UNL     1     -19.413   4.478  13.300  1.00  0.00     0.080 C
ATOM     19  H5  UNL     1     -21.550   4.618  13.420  1.00  0.00     0.158 HD
ENDBRANCH  11  13
ENDBRANCH   1   9
BRANCH   1  20
HETATM   20  C9  UNL     1     -14.318   2.393  11.252  1.00  0.00     0.080 C
HETATM   21  C10 UNL     1     -13.414   3.268  10.488  1.00  0.00     0.028 C
HETATM   22  C11 UNL     1     -12.129   2.688  10.985  1.00  0.00     0.075 C
HETATM   23  S1  UNL     1     -13.001   1.210  11.637  1.00  0.00    -0.162 SA
ENDBRANCH   1  20
TORSDOF 4
ENDMDL