MODEL 1
REMARK VINA RESULT: -6.889664456      0.000      0.000
REMARK  5 active torsions:
REMARK  status: ('A' for Active; 'I' for Inactive)
REMARK    1  A    between atoms: C4_4  and  O1_5
REMARK    2  A    between atoms: O1_5  and  C5_6
REMARK       I    between atoms: C5_6  and  N1_8
REMARK    3  A    between atoms: N1_8  and  N2_10
REMARK    4  A    between atoms: C9_16  and  C11_18
REMARK    5  A    between atoms: C11_18  and  N3_19
REMARK       I    between atoms: N3_19  and  C12_21
ROOT
HETATM    1  C1  UNL     1     -15.378   3.018  15.565  1.00  0.00     0.010 C
HETATM    2  C2  UNL     1     -14.398   3.373  14.486  1.00  0.00    -0.011 C
HETATM    3  C3  UNL     1     -14.004   2.176  13.678  1.00  0.00     0.037 C
HETATM    4  C4  UNL     1     -13.256   2.475  12.426  1.00  0.00     0.138 C
HETATM    5  C6  UNL     1     -13.413   3.869  11.922  1.00  0.00     0.016 C
HETATM    6  C7  UNL     1     -13.359   4.926  13.004  1.00  0.00     0.013 C
HETATM    7  C8  UNL     1     -14.684   4.594  13.724  1.00  0.00    -0.001 C
HETATM    8  C9  UNL     1     -15.607   4.595  12.574  1.00  0.00    -0.024 C
HETATM    9  C10 UNL     1     -15.866   6.077  12.277  1.00  0.00     0.017 C
HETATM   10  C13 UNL     1     -14.836   4.004  11.422  1.00  0.00     0.018 C
ENDROOT
BRANCH   8  11
HETATM   11  C11 UNL     1     -16.886   3.899  12.710  1.00  0.00     0.132 C
BRANCH  11  12
HETATM   12  N3  UNL     1     -17.917   4.694  13.308  1.00  0.00    -0.364 N
HETATM   13  C12 UNL     1     -19.299   4.724  13.035  1.00  0.00     0.181 C
HETATM   14  N4  UNL     1     -20.234   4.300  13.811  1.00  0.00    -0.374 N
HETATM   15  N5  UNL     1     -19.762   5.292  11.794  1.00  0.00    -0.064 NA
ATOM     16  H42 UNL     1     -19.906   3.898  14.690  1.00  0.00     0.158 HD
ATOM     17  H41 UNL     1     -21.234   4.322  13.613  1.00  0.00     0.158 HD
ATOM     18  H3  UNL     1     -17.605   5.333  14.040  1.00  0.00     0.162 HD
ENDBRANCH  11  12
ENDBRANCH   8  11
BRANCH   4  19
HETATM   19  O1  UNL     1     -13.778   1.609  11.417  1.00  0.00    -0.297 OA
BRANCH  19  20
HETATM   20  C5  UNL     1     -13.006   0.664  10.755  1.00  0.00     0.379 C
HETATM   21  O2  UNL     1     -13.113   0.576   9.508  1.00  0.00    -0.237 OA
HETATM   22  N1  UNL     1     -12.114  -0.190  11.449  1.00  0.00    -0.252 N
ATOM     23  H1  UNL     1     -12.029  -0.117  12.463  1.00  0.00     0.191 HD
BRANCH  22  24
HETATM   24  N2  UNL     1     -11.360  -1.121  10.762  1.00  0.00    -0.341 N
ATOM     25  H22 UNL     1     -11.661  -2.096  10.763  1.00  0.00     0.177 HD
ATOM     26  H21 UNL     1     -10.517  -0.836  10.262  1.00  0.00     0.177 HD
ENDBRANCH  22  24
ENDBRANCH  19  20
ENDBRANCH   4  19
TORSDOF 5
ENDMDL