MODEL 5
REMARK VINA RESULT: -7.027160899      4.592      8.805
REMARK  6 active torsions:
REMARK  status: ('A' for Active; 'I' for Inactive)
REMARK    1  A    between atoms: C2_2  and  C4_4
REMARK    2  A    between atoms: C4_4  and  N1_5
REMARK    3  A    between atoms: N1_5  and  C5_7
REMARK    4  A    between atoms: C6_10  and  N3_11
REMARK    5  A    between atoms: N5_17  and  C8_19
REMARK    6  A    between atoms: C8_19  and  C9_20
ROOT
HETATM    1  C5  UNL     1     -17.694   5.110  13.347  1.00  0.00     0.707 A
HETATM    2  N2  UNL     1     -18.728   5.575  12.614  1.00  0.00    -0.022 N
ATOM      3  H2  UNL     1     -19.308   4.921  12.090  1.00  0.00     0.203 HD
HETATM    4  C6  UNL     1     -19.001   6.890  12.568  1.00  0.00     0.705 A
HETATM    5  N4  UNL     1     -18.215   7.738  13.275  1.00  0.00    -0.022 N
ATOM      6  H4  UNL     1     -18.419   8.736  13.242  1.00  0.00     0.203 HD
HETATM    7  C7  UNL     1     -17.180   7.317  14.015  1.00  0.00     0.707 A
HETATM    8  N5  UNL     1     -16.405   8.071  14.702  1.00  0.00    -0.225 N
ATOM      9  H5  UNL     1     -15.641   7.656  15.237  1.00  0.00     0.177 HD
HETATM   10  N7  UNL     1     -16.930   5.974  14.040  1.00  0.00    -0.022 N
ATOM     11  H7  UNL     1     -16.150   5.620  14.593  1.00  0.00     0.203 HD
ENDROOT
BRANCH   8  12
HETATM   12  C8  UNL     1     -16.597   9.482  14.730  1.00  0.00     0.144 C
BRANCH  12  13
HETATM   13  C9  UNL     1     -17.229   9.969  16.032  1.00  0.00     0.030 C
HETATM   14  C10 UNL     1     -17.692  11.388  15.782  1.00  0.00     0.009 C
HETATM   15  C11 UNL     1     -17.411  12.227  17.011  1.00  0.00     0.028 C
HETATM   16  C12 UNL     1     -17.729  11.470  18.275  1.00  0.00     0.232 C
HETATM   17  N6  UNL     1     -16.899  10.297  18.378  1.00  0.00    -0.075 N
HETATM   18  C13 UNL     1     -16.203  10.000  17.148  1.00  0.00     0.238 C
ATOM     19  H62 UNL     1     -16.246  10.377  19.157  1.00  0.00     0.277 HD
ATOM     20  H61 UNL     1     -17.439   9.493  18.696  1.00  0.00     0.277 HD
ENDBRANCH  12  13
ENDBRANCH   8  12
BRANCH   4  21
HETATM   21  N3  UNL     1     -19.983   7.348  11.873  1.00  0.00    -0.234 N
ATOM     22  H32 UNL     1     -20.903   7.460  12.299  1.00  0.00     0.174 HD
ATOM     23  H31 UNL     1     -19.866   7.608  10.894  1.00  0.00     0.174 HD
ENDBRANCH   4  21
BRANCH   1  24
HETATM   24  N1  UNL     1     -17.444   3.846  13.382  1.00  0.00    -0.225 N
ATOM     25  H1  UNL     1     -18.113   3.203  13.806  1.00  0.00     0.177 HD
BRANCH  24  26
HETATM   26  C4  UNL     1     -16.209   3.344  12.817  1.00  0.00     0.142 C
BRANCH  26  27
HETATM   27  C2  UNL     1     -15.474   2.434  13.744  1.00  0.00    -0.004 C
HETATM   28  C1  UNL     1     -14.589   3.217  14.710  1.00  0.00     0.011 C
HETATM   29  C3  UNL     1     -16.509   1.727  14.611  1.00  0.00     0.011 C
ENDBRANCH  26  27
ENDBRANCH  24  26
ENDBRANCH   1  24
TORSDOF 6
ENDMDL