MODEL 5
REMARK VINA RESULT: -7.388866975      2.171      2.789
REMARK  5 active torsions:
REMARK  status: ('A' for Active; 'I' for Inactive)
REMARK       I    between atoms: C1_4  and  N3_6
REMARK    1  A    between atoms: N3_6  and  C2_8
REMARK    2  A    between atoms: N6_14  and  C4_16
REMARK    3  A    between atoms: C4_16  and  C5_17
REMARK    4  A    between atoms: C5_17  and  C6_18
REMARK    5  A    between atoms: C6_18  and  N7_19
ROOT
HETATM    1  C2  UNL     1     -17.264  11.213  16.866  1.00  0.00     0.169 A
HETATM    2  N4  UNL     1     -18.099  11.562  15.890  1.00  0.00    -0.277 N
ATOM      3  H4  UNL     1     -18.678  12.397  15.982  1.00  0.00     0.189 HD
HETATM    4  N5  UNL     1     -18.167  10.842  14.839  1.00  0.00    -0.278 N
ATOM      5  H5  UNL     1     -18.800  11.091  14.079  1.00  0.00     0.189 HD
HETATM    6  C3  UNL     1     -17.395   9.757  14.753  1.00  0.00     0.162 A
HETATM    7  N6  UNL     1     -17.326   8.899  13.758  1.00  0.00    -0.369 N
ATOM      8  H6  UNL     1     -17.904   9.021  12.926  1.00  0.00     0.161 HD
HETATM    9  S1  UNL     1     -16.555   9.792  16.238  1.00  0.00    -0.015 SA
ENDROOT
BRANCH   7  10
HETATM   10  C4  UNL     1     -16.411   7.773  13.864  1.00  0.00     0.123 C
BRANCH  10  11
HETATM   11  C5  UNL     1     -16.099   7.189  12.498  1.00  0.00     0.039 C
BRANCH  11  12
HETATM   12  C6  UNL     1     -15.242   5.960  12.628  1.00  0.00     0.122 C
BRANCH  12  13
HETATM   13  N7  UNL     1     -16.067   4.776  12.580  1.00  0.00    -0.380 N
HETATM   14  C7  UNL     1     -16.222   3.994  13.588  1.00  0.00     0.072 C
HETATM   15  C8  UNL     1     -17.047   2.761  13.629  1.00  0.00     0.077 C
HETATM   16  N8  UNL     1     -15.648   4.131  14.880  1.00  0.00    -0.380 N
HETATM   17  C9  UNL     1     -16.359   1.924  14.655  1.00  0.00     0.027 C
HETATM   18  C10 UNL     1     -15.417   2.802  15.412  1.00  0.00     0.121 C
ATOM     19  H8  UNL     1     -15.435   5.011  15.351  1.00  0.00     0.160 HD
ATOM     20  H7  UNL     1     -16.547   4.550  11.710  1.00  0.00     0.160 HD
ENDBRANCH  12  13
ENDBRANCH  11  12
ENDBRANCH  10  11
ENDBRANCH   7  10
BRANCH   1  21
HETATM   21  N3  UNL     1     -17.064  11.831  18.011  1.00  0.00    -0.310 N
HETATM   22  C1  UNL     1     -17.897  11.468  19.116  1.00  0.00     0.187 C
HETATM   23  N1  UNL     1     -17.696  10.438  19.851  1.00  0.00    -0.373 N
HETATM   24  N2  UNL     1     -19.004  12.316  19.393  1.00  0.00    -0.064 NA
ATOM     25  H12 UNL     1     -18.290  10.180  20.639  1.00  0.00     0.158 HD
ATOM     26  H11 UNL     1     -16.902   9.830  19.652  1.00  0.00     0.158 HD
ATOM     27  H3  UNL     1     -16.341  12.543  18.107  1.00  0.00     0.170 HD
ENDBRANCH   1  21
TORSDOF 5
ENDMDL