MODEL 3
REMARK VINA RESULT: -6.739419829      1.009      1.016
REMARK  4 active torsions:
REMARK  status: ('A' for Active; 'I' for Inactive)
REMARK    1  A    between atoms: C2_2  and  N1_3
REMARK    2  A    between atoms: N1_3  and  C3_5
REMARK    3  A    between atoms: C10_12  and  C11_13
REMARK    4  A    between atoms: N3_15  and  N4_17
ROOT
HETATM    1  C3  UNL     1     -13.344   3.540  12.955  1.00  0.00     0.027 C
HETATM    2  C4  UNL     1     -14.052   2.468  12.143  1.00  0.00     0.035 C
HETATM    3  C5  UNL     1     -15.524   2.459  12.508  1.00  0.00    -0.011 C
HETATM    4  C6  UNL     1     -15.763   2.197  13.963  1.00  0.00     0.009 C
HETATM    5  C7  UNL     1     -14.949   3.181  14.746  1.00  0.00    -0.011 C
HETATM    6  C8  UNL     1     -13.465   3.119  14.399  1.00  0.00     0.035 C
HETATM    7  C9  UNL     1     -15.468   4.558  14.519  1.00  0.00     0.021 C
HETATM    8  C10 UNL     1     -15.480   4.884  13.041  1.00  0.00     0.020 C
HETATM    9  C13 UNL     1     -16.053   3.844  12.153  1.00  0.00     0.021 C
HETATM   10  C14 UNL     1     -13.963   4.891  12.686  1.00  0.00     0.047 C
ENDROOT
BRANCH   8  11
HETATM   11  C11 UNL     1     -15.977   6.224  12.768  1.00  0.00     0.116 C
HETATM   12  N2  UNL     1     -15.120   7.220  12.222  1.00  0.00    -0.085 NA
HETATM   13  N3  UNL     1     -17.166   6.590  13.022  1.00  0.00    -0.288 N
ATOM     14  H3  UNL     1     -17.428   7.549  12.794  1.00  0.00     0.188 HD
BRANCH  13  15
HETATM   15  N4  UNL     1     -18.109   5.793  13.574  1.00  0.00    -0.275 N
HETATM   16  C12 UNL     1     -19.115   5.220  13.066  1.00  0.00     0.215 C
HETATM   17  N5  UNL     1     -19.390   5.379  11.689  1.00  0.00    -0.065 NA
HETATM   18  N6  UNL     1     -19.951   4.428  13.891  1.00  0.00    -0.065 NA
ATOM     19  H4  UNL     1     -17.986   5.624  14.573  1.00  0.00     0.189 HD
ENDBRANCH  13  15
ENDBRANCH   8  11
BRANCH   1  20
HETATM   20  N1  UNL     1     -11.996   3.615  12.486  1.00  0.00    -0.413 N
ATOM     21  H1  UNL     1     -11.288   4.175  12.961  1.00  0.00     0.154 HD
BRANCH  20  22
HETATM   22  C2  UNL     1     -11.699   2.860  11.318  1.00  0.00     0.110 C
HETATM   23  C1  UNL     1     -11.078   3.755  10.265  1.00  0.00     0.026 C
ENDBRANCH  20  22
ENDBRANCH   1  20
TORSDOF 4
ENDMDL