MODEL 1
REMARK VINA RESULT: -7.359293012      0.000      0.000
REMARK  7 active torsions:
REMARK  status: ('A' for Active; 'I' for Inactive)
REMARK    1  A    between atoms: C2_2  and  C3_4
REMARK    2  A    between atoms: C3_4  and  C4_10
REMARK    3  A    between atoms: N1_5  and  N2_7
REMARK    4  A    between atoms: C5_11  and  S1_12
REMARK    5  A    between atoms: S1_12  and  S2_13
REMARK    6  A    between atoms: S2_13  and  C6_14
REMARK    7  A    between atoms: C6_14  and  C7_15
ROOT
HETATM    1  C4  UNL     1      17.877  20.808  56.032  1.00  0.00     0.036 A
HETATM    2  C5  UNL     1      18.464  19.815  55.219  1.00  0.00     0.093 A
HETATM    3  C11 UNL     1      19.627  19.164  55.483  1.00  0.00     0.265 A
HETATM    4  O5  UNL     1      20.088  18.299  54.705  1.00  0.00    -0.267 OA
HETATM    5  N4  UNL     1      20.313  19.439  56.583  1.00  0.00    -0.306 N
ATOM      6  H4  UNL     1      21.183  18.948  56.790  1.00  0.00     0.170 HD
HETATM    7  C12 UNL     1      19.850  20.360  57.406  1.00  0.00     0.137 A
HETATM    8  N5  UNL     1      20.452  20.891  58.500  1.00  0.00    -0.283 N
ATOM      9  H5  UNL     1      21.333  20.554  58.891  1.00  0.00     0.188 HD
HETATM   10  N6  UNL     1      19.779  21.863  58.977  1.00  0.00    -0.285 N
ATOM     11  H6  UNL     1      20.015  22.428  59.793  1.00  0.00     0.188 HD
HETATM   12  C13 UNL     1      18.663  21.997  58.167  1.00  0.00     0.145 A
HETATM   13  N7  UNL     1      17.848  23.141  58.345  1.00  0.00    -0.080 NA
HETATM   14  C14 UNL     1      18.669  21.063  57.185  1.00  0.00     0.066 A
ENDROOT
BRANCH   2  15
HETATM   15  S1  UNL     1      17.498  19.376  53.772  1.00  0.00    -0.048 SA
BRANCH  15  16
HETATM   16  S2  UNL     1      18.400  20.092  52.013  1.00  0.00    -0.042 SA
BRANCH  16  17
HETATM   17  C6  UNL     1      18.057  19.075  50.562  1.00  0.00     0.210 C
HETATM   18  C8  UNL     1      17.709  17.665  50.852  1.00  0.00     0.089 C
HETATM   19  C9  UNL     1      17.466  16.912  49.582  1.00  0.00     0.239 C
HETATM   20  N3  UNL     1      16.588  17.655  48.722  1.00  0.00    -0.054 N
HETATM   21  C10 UNL     1      16.087  18.852  49.347  1.00  0.00     0.402 C
ATOM     22  H32 UNL     1      17.038  17.867  47.831  1.00  0.00     0.279 HD
ATOM     23  H31 UNL     1      15.823  17.070  48.384  1.00  0.00     0.279 HD
HETATM   24  O4  UNL     1      17.051  19.717  49.802  1.00  0.00    -0.331 OA
BRANCH  17  25
HETATM   25  C7  UNL     1      19.283  19.095  49.727  1.00  0.00     0.221 C
HETATM   26  O2  UNL     1      19.292  19.730  48.647  1.00  0.00    -0.645 OA
HETATM   27  O3  UNL     1      20.424  18.423  50.119  1.00  0.00    -0.645 OA
ENDBRANCH  17  25
ENDBRANCH  16  17
ENDBRANCH  15  16
ENDBRANCH   2  15
BRANCH   1  28
HETATM   28  C3  UNL     1      16.828  21.667  55.633  1.00  0.00     0.105 C
HETATM   29  N1  UNL     1      15.877  22.213  56.233  1.00  0.00    -0.303 N
ATOM     30  H1  UNL     1      15.642  23.087  55.763  1.00  0.00     0.186 HD
BRANCH  28  31
HETATM   31  C2  UNL     1      17.138  22.648  54.451  1.00  0.00     0.174 C
HETATM   32  C1  UNL     1      18.344  23.527  54.686  1.00  0.00     0.098 C
HETATM   33  O1  UNL     1      16.494  22.703  53.459  1.00  0.00    -0.291 OA
ENDBRANCH  28  31
BRANCH  29  34
HETATM   34  N2  UNL     1      15.063  22.045  57.279  1.00  0.00    -0.345 N
ATOM     35  H22 UNL     1      14.206  21.612  56.935  1.00  0.00     0.176 HD
ATOM     36  H21 UNL     1      15.012  22.200  58.286  1.00  0.00     0.176 HD
ENDBRANCH  29  34
ENDBRANCH   1  28
TORSDOF 7
ENDMDL