MODEL 3
REMARK VINA RESULT: -7.324061362      3.138      7.970
REMARK  9 active torsions:
REMARK  status: ('A' for Active; 'I' for Inactive)
REMARK    1  A    between atoms: O1_2  and  C2_3
REMARK    2  A    between atoms: C5_6  and  C6_7
REMARK    3  A    between atoms: C6_7  and  N9_32
REMARK    4  A    between atoms: N1_8  and  N2_10
REMARK    5  A    between atoms: C7_12  and  C8_13
REMARK    6  A    between atoms: N3_15  and  N4_16
REMARK    7  A    between atoms: C10_19  and  C11_20
REMARK    8  A    between atoms: N6_24  and  O3_25
REMARK    9  A    between atoms: N9_32  and  N10_34
REMARK       I    between atoms: N10_34  and  C14_36
ROOT
HETATM    1  C11 UNL     1      18.293  21.331  56.666  1.00  0.00     0.144 A
HETATM    2  N5  UNL     1      17.210  21.873  57.248  1.00  0.00    -0.233 N
ATOM      3  H5  UNL     1      16.270  21.909  56.854  1.00  0.00     0.197 HD
HETATM    4  O2  UNL     1      17.571  22.338  58.395  1.00  0.00    -0.127 OA
HETATM    5  N6  UNL     1      18.832  22.145  58.624  1.00  0.00    -0.089 N
HETATM    6  C12 UNL     1      19.335  21.507  57.551  1.00  0.00     0.202 A
HETATM    7  C13 UNL     1      20.709  21.108  57.410  1.00  0.00     0.125 C
HETATM    8  N7  UNL     1      21.812  20.767  57.300  1.00  0.00    -0.190 NA
ENDROOT
BRANCH   1   9
HETATM    9  C10 UNL     1      18.381  20.682  55.362  1.00  0.00     0.159 A
HETATM   10  N3  UNL     1      18.714  21.261  54.192  1.00  0.00    -0.253 N
HETATM   11  C9  UNL     1      18.679  20.314  53.218  1.00  0.00     0.148 A
HETATM   12  C8  UNL     1      18.318  19.113  53.778  1.00  0.00     0.068 A
HETATM   13  N8  UNL     1      18.145  19.390  55.106  1.00  0.00    -0.337 N
ATOM     14  H8  UNL     1      17.871  18.703  55.808  1.00  0.00     0.167 HD
BRANCH  10  15
HETATM   15  N4  UNL     1      19.026  22.619  54.090  1.00  0.00    -0.337 N
ATOM     16  H42 UNL     1      19.826  23.033  54.568  1.00  0.00     0.177 HD
ATOM     17  H41 UNL     1      18.544  23.352  53.570  1.00  0.00     0.177 HD
ENDBRANCH  10  15
BRANCH  12  18
HETATM   18  C7  UNL     1      18.139  17.813  53.144  1.00  0.00     0.138 C
HETATM   19  N2  UNL     1      17.244  17.516  52.323  1.00  0.00    -0.308 N
ATOM     20  H2  UNL     1      17.291  16.552  51.992  1.00  0.00     0.186 HD
BRANCH  19  21
HETATM   21  N1  UNL     1      16.235  18.225  51.795  1.00  0.00    -0.284 N
HETATM   22  C6  UNL     1      15.845  18.209  50.539  1.00  0.00     0.145 C
ATOM     23  H1  UNL     1      15.719  18.835  52.429  1.00  0.00     0.188 HD
BRANCH  22  24
HETATM   24  C5  UNL     1      16.507  17.378  49.541  1.00  0.00     0.011 A
HETATM   25  C4  UNL     1      17.592  17.913  48.856  1.00  0.00     0.018 A
HETATM   26  C3  UNL     1      18.238  17.128  47.924  1.00  0.00     0.037 A
HETATM   27  C2  UNL     1      17.865  15.839  47.633  1.00  0.00     0.068 A
HETATM   28  C16 UNL     1      16.789  15.319  48.316  1.00  0.00     0.037 A
HETATM   29  C15 UNL     1      16.114  16.080  49.263  1.00  0.00     0.018 A
BRANCH  27  30
HETATM   30  O1  UNL     1      18.565  15.112  46.683  1.00  0.00    -0.356 OA
HETATM   31  C1  UNL     1      19.116  13.857  47.027  1.00  0.00     0.210 C
ENDBRANCH  27  30
ENDBRANCH  22  24
BRANCH  22  32
HETATM   32  N9  UNL     1      14.759  19.050  50.203  1.00  0.00    -0.281 N
ATOM     33  H9  UNL     1      14.909  19.742  49.469  1.00  0.00     0.188 HD
BRANCH  32  34
HETATM   34  N10 UNL     1      13.505  19.006  50.797  1.00  0.00    -0.272 N
HETATM   35  C14 UNL     1      12.435  18.275  50.225  1.00  0.00     0.200 C
HETATM   36  N11 UNL     1      12.669  17.202  49.517  1.00  0.00    -0.372 N
HETATM   37  N12 UNL     1      11.108  18.724  50.429  1.00  0.00    -0.062 NA
ATOM     38 2H11 UNL     1      13.624  16.878  49.370  1.00  0.00     0.158 HD
ATOM     39 1H11 UNL     1      11.898  16.675  49.106  1.00  0.00     0.158 HD
ATOM     40  H10 UNL     1      13.351  19.513  51.668  1.00  0.00     0.189 HD
ENDBRANCH  32  34
ENDBRANCH  22  32
ENDBRANCH  19  21
ENDBRANCH  12  18
ENDBRANCH   1   9
BRANCH   5  41
HETATM   41  O3  UNL     1      19.546  22.515  59.743  1.00  0.00    -0.260 OA
ATOM     42  H3  UNL     1      20.218  23.184  59.805  1.00  0.00     0.247 HD
ENDBRANCH   5  41
TORSDOF 9
ENDMDL