MODEL 3
REMARK VINA RESULT: -7.127712373      2.113      2.915
REMARK  10 active torsions:
REMARK  status: ('A' for Active; 'I' for Inactive)
REMARK    1  A    between atoms: O1_2  and  C2_3
REMARK    2  A    between atoms: C2_3  and  C3_5
REMARK    3  A    between atoms: C3_5  and  N1_6
REMARK    4  A    between atoms: N1_6  and  N2_8
REMARK    5  A    between atoms: N2_8  and  C4_10
REMARK    6  A    between atoms: C5_13  and  C6_14
REMARK    7  A    between atoms: C6_14  and  S1_15
REMARK    8  A    between atoms: S1_15  and  C7_16
REMARK    9  A    between atoms: C8_19  and  N5_20
REMARK   10  A    between atoms: C14_37  and  N11_38
ROOT
HETATM    1  C4  UNL     1      18.175  21.729  55.015  1.00  0.00     0.150 A
HETATM    2  N3  UNL     1      17.450  20.924  54.179  1.00  0.00    -0.342 N
ATOM      3  H3  UNL     1      16.613  21.306  53.737  1.00  0.00     0.167 HD
HETATM    4  C5  UNL     1      17.792  19.653  53.916  1.00  0.00     0.022 A
HETATM    5  C11 UNL     1      18.929  19.165  54.527  1.00  0.00     0.058 A
HETATM    6  C12 UNL     1      19.690  19.966  55.385  1.00  0.00     0.084 A
HETATM    7  C13 UNL     1      19.313  21.268  55.637  1.00  0.00     0.122 A
HETATM    8  N10 UNL     1      20.215  21.785  56.481  1.00  0.00    -0.186 N
ATOM      9  H10 UNL     1      20.193  22.737  56.846  1.00  0.00     0.184 HD
HETATM   10  C14 UNL     1      21.167  20.854  56.785  1.00  0.00     0.678 A
HETATM   11  N12 UNL     1      20.812  19.759  56.098  1.00  0.00    -0.185 N
HETATM   12  C15 UNL     1      21.553  18.510  56.125  1.00  0.00     0.175 C
ENDROOT
BRANCH   4  13
HETATM   13  C6  UNL     1      16.954  18.833  52.995  1.00  0.00     0.139 C
BRANCH  13  14
HETATM   14  S1  UNL     1      17.671  18.901  51.328  1.00  0.00    -0.087 SA
BRANCH  14  15
HETATM   15  C7  UNL     1      16.902  17.609  50.365  1.00  0.00     0.174 A
HETATM   16  N4  UNL     1      15.615  17.728  50.028  1.00  0.00    -0.168 N
HETATM   17  C8  UNL     1      15.044  16.760  49.308  1.00  0.00     0.714 A
ATOM     18  H4  UNL     1      15.078  18.546  50.316  1.00  0.00     0.186 HD
HETATM   19  N6  UNL     1      15.718  15.668  48.909  1.00  0.00     0.091 N
HETATM   20  N7  UNL     1      15.372  14.595  48.201  1.00  0.00    -0.260 N
HETATM   21  C10 UNL     1      17.009  15.576  49.261  1.00  0.00     0.721 A
HETATM   22  C9  UNL     1      16.443  13.781  48.081  1.00  0.00     0.216 A
ATOM     23  H7  UNL     1      14.447  14.417  47.812  1.00  0.00     0.189 HD
HETATM   24  N8  UNL     1      17.441  14.395  48.736  1.00  0.00    -0.184 N
ATOM     25  H8  UNL     1      18.389  14.030  48.828  1.00  0.00     0.185 HD
HETATM   26  N9  UNL     1      17.615  16.538  49.989  1.00  0.00    -0.167 N
ATOM     27  H9  UNL     1      18.598  16.451  50.248  1.00  0.00     0.186 HD
BRANCH  17  28
HETATM   28  N5  UNL     1      13.791  16.892  48.990  1.00  0.00    -0.232 N
ATOM     29  H52 UNL     1      13.519  17.588  48.295  1.00  0.00     0.174 HD
ATOM     30  H51 UNL     1      13.111  16.287  49.452  1.00  0.00     0.174 HD
ENDBRANCH  17  28
ENDBRANCH  14  15
ENDBRANCH  13  14
ENDBRANCH   4  13
BRANCH   1  31
HETATM   31  N2  UNL     1      17.749  22.896  55.178  1.00  0.00    -0.287 N
ATOM     32  H2  UNL     1      18.112  23.555  54.489  1.00  0.00     0.188 HD
BRANCH  31  33
HETATM   33  N1  UNL     1      16.908  23.468  56.074  1.00  0.00    -0.326 N
ATOM     34  H1  UNL     1      16.838  24.486  56.103  1.00  0.00     0.180 HD
BRANCH  33  35
HETATM   35  C3  UNL     1      16.107  22.685  56.991  1.00  0.00     0.250 C
BRANCH  35  36
HETATM   36  C2  UNL     1      14.800  22.362  56.363  1.00  0.00     0.277 C
HETATM   37  O2  UNL     1      14.752  22.076  55.149  1.00  0.00    -0.263 OA
BRANCH  36  38
HETATM   38  O1  UNL     1      13.619  22.365  57.086  1.00  0.00    -0.325 OA
HETATM   39  C1  UNL     1      13.013  23.547  57.573  1.00  0.00     0.213 C
ENDBRANCH  36  38
ENDBRANCH  35  36
ENDBRANCH  33  35
ENDBRANCH  31  33
ENDBRANCH   1  31
BRANCH  10  40
HETATM   40  N11 UNL     1      22.180  21.030  57.573  1.00  0.00    -0.234 N
ATOM     41 2H11 UNL     1      22.508  21.887  58.017  1.00  0.00     0.174 HD
ATOM     42 1H11 UNL     1      22.832  20.309  57.883  1.00  0.00     0.174 HD
ENDBRANCH  10  40
TORSDOF 10
ENDMDL