MODEL 5
REMARK VINA RESULT: -7.916277788      2.160      4.059
REMARK  9 active torsions:
REMARK  status: ('A' for Active; 'I' for Inactive)
REMARK    1  A    between atoms: C1_4  and  C2_6
REMARK    2  A    between atoms: N3_8  and  C4_9
REMARK    3  A    between atoms: C8_13  and  N4_14
REMARK    4  A    between atoms: C10_16  and  C11_17
REMARK    5  A    between atoms: C11_17  and  N6_21
REMARK    6  A    between atoms: N6_21  and  N7_23
REMARK       I    between atoms: N7_23  and  C12_25
REMARK    7  A    between atoms: C12_25  and  C13_27
REMARK    8  A    between atoms: C13_27  and  N8_28
REMARK    9  A    between atoms: C16_31  and  O2_32
ROOT
HETATM    1  N4  UNL     1      18.218  22.390  53.791  1.00  0.00    -0.251 N
HETATM    2  C9  UNL     1      17.475  21.911  54.801  1.00  0.00     0.153 A
HETATM    3  C10 UNL     1      17.641  22.741  55.868  1.00  0.00     0.111 A
HETATM    4  N10 UNL     1      18.490  23.721  55.486  1.00  0.00    -0.281 N
ATOM      5  H10 UNL     1      18.814  24.500  56.059  1.00  0.00     0.188 HD
HETATM    6  N11 UNL     1      18.818  23.481  54.235  1.00  0.00    -0.235 N
ATOM      7  H11 UNL     1      19.451  24.059  53.682  1.00  0.00     0.209 HD
ENDROOT
BRANCH   3   8
HETATM    8  C11 UNL     1      17.007  22.566  57.163  1.00  0.00     0.143 C
HETATM    9  N5  UNL     1      15.727  22.473  57.199  1.00  0.00    -0.383 N
ATOM     10  H52 UNL     1      15.170  22.524  56.346  1.00  0.00     0.157 HD
ATOM     11  H51 UNL     1      15.281  22.350  58.108  1.00  0.00     0.157 HD
BRANCH   8  12
HETATM   12  N6  UNL     1      17.769  22.497  58.331  1.00  0.00    -0.281 N
ATOM     13  H6  UNL     1      17.708  23.235  59.033  1.00  0.00     0.188 HD
BRANCH  12  14
HETATM   14  N7  UNL     1      18.611  21.410  58.523  1.00  0.00    -0.267 N
HETATM   15  C12 UNL     1      19.926  21.430  58.026  1.00  0.00     0.255 C
HETATM   16  O1  UNL     1      20.320  22.443  57.415  1.00  0.00    -0.270 OA
ATOM     17  H7  UNL     1      18.274  20.592  59.029  1.00  0.00     0.190 HD
BRANCH  15  18
HETATM   18  C13 UNL     1      20.804  20.256  58.239  1.00  0.00     0.252 C
BRANCH  18  19
HETATM   19  N8  UNL     1      20.499  19.290  57.207  1.00  0.00    -0.292 N
HETATM   20  C14 UNL     1      20.599  17.959  57.405  1.00  0.00     0.115 A
HETATM   21  C15 UNL     1      20.239  17.351  56.228  1.00  0.00     0.076 A
HETATM   22  C16 UNL     1      19.929  18.359  55.346  1.00  0.00     0.156 A
HETATM   23  N9  UNL     1      20.100  19.541  55.982  1.00  0.00    -0.278 N
ATOM     24  H9  UNL     1      19.945  20.465  55.580  1.00  0.00     0.189 HD
BRANCH  22  25
HETATM   25  O2  UNL     1      19.513  18.162  54.029  1.00  0.00    -0.345 OA
ATOM     26  H2  UNL     1      20.045  18.338  53.262  1.00  0.00     0.219 HD
ENDBRANCH  22  25
ENDBRANCH  18  19
ENDBRANCH  15  18
ENDBRANCH  12  14
ENDBRANCH   8  12
ENDBRANCH   3   8
BRANCH   1  27
HETATM   27  C8  UNL     1      18.303  21.788  52.512  1.00  0.00     0.059 A
HETATM   28  C7  UNL     1      18.689  22.553  51.437  1.00  0.00     0.032 A
HETATM   29  C6  UNL     1      18.787  22.016  50.153  1.00  0.00     0.005 A
HETATM   30  C5  UNL     1      18.488  20.684  49.966  1.00  0.00     0.032 A
HETATM   31  C4  UNL     1      18.097  19.890  51.023  1.00  0.00     0.059 A
HETATM   32  C17 UNL     1      18.017  20.471  52.268  1.00  0.00     0.063 A
BRANCH  31  33
HETATM   33  N3  UNL     1      17.790  18.514  50.849  1.00  0.00    -0.251 N
HETATM   34  C3  UNL     1      17.790  17.833  49.708  1.00  0.00     0.152 A
HETATM   35  C2  UNL     1      17.437  16.526  50.023  1.00  0.00     0.107 A
HETATM   36  N13 UNL     1      17.237  16.470  51.347  1.00  0.00    -0.281 N
HETATM   37  N12 UNL     1      17.456  17.668  51.805  1.00  0.00    -0.235 N
ATOM     38  H13 UNL     1      16.966  15.649  51.889  1.00  0.00     0.188 HD
ATOM     39  H12 UNL     1      17.379  17.925  52.789  1.00  0.00     0.209 HD
BRANCH  35  40
HETATM   40  C1  UNL     1      17.309  15.409  49.097  1.00  0.00     0.139 C
HETATM   41  N1  UNL     1      16.148  14.926  48.881  1.00  0.00    -0.386 N
ATOM     42  H12 UNL     1      16.058  14.144  48.232  1.00  0.00     0.157 HD
ATOM     43  H11 UNL     1      15.310  15.293  49.333  1.00  0.00     0.157 HD
HETATM   44  N2  UNL     1      18.475  14.899  48.467  1.00  0.00    -0.081 NA
ENDBRANCH  35  40
ENDBRANCH  31  33
ENDBRANCH   1  27
TORSDOF 9
ENDMDL