MODEL 2
REMARK VINA RESULT: -6.833002117      2.425      2.979
REMARK  10 active torsions:
REMARK  status: ('A' for Active; 'I' for Inactive)
REMARK    1  A    between atoms: C2_3  and  C3_4
REMARK       I    between atoms: C3_4  and  N2_6
REMARK    2  A    between atoms: N2_6  and  N3_8
REMARK       I    between atoms: N3_8  and  C4_10
REMARK    3  A    between atoms: C4_10  and  C5_12
REMARK    4  A    between atoms: C6_13  and  O3_14
REMARK    5  A    between atoms: N5_20  and  C9_21
REMARK    6  A    between atoms: C9_21  and  C10_22
REMARK    7  A    between atoms: C10_22  and  C11_23
REMARK    8  A    between atoms: C11_23  and  N6_24
REMARK    9  A    between atoms: C13_30  and  O6_31
REMARK   10  A    between atoms: N7_33  and  N8_34
ROOT
HETATM    1  N3  UNL     1      16.856  18.486  53.333  1.00  0.00    -0.263 N
ATOM      2  H3  UNL     1      17.149  17.917  54.128  1.00  0.00     0.190 HD
HETATM    3  C4  UNL     1      16.632  19.849  53.484  1.00  0.00     0.280 C
HETATM    4  O2  UNL     1      16.265  20.488  52.436  1.00  0.00    -0.266 OA
ENDROOT
BRANCH   3   5
HETATM    5  C5  UNL     1      16.778  20.595  54.706  1.00  0.00     0.152 A
HETATM    6  C6  UNL     1      15.891  21.495  55.209  1.00  0.00     0.167 A
HETATM    7  N4  UNL     1      16.166  22.119  56.389  1.00  0.00    -0.283 N
HETATM    8  C7  UNL     1      15.185  23.067  56.865  1.00  0.00     0.163 C
HETATM    9  C8  UNL     1      17.273  21.890  57.089  1.00  0.00     0.333 A
HETATM   10  O4  UNL     1      17.501  22.481  58.181  1.00  0.00    -0.246 OA
HETATM   11  N5  UNL     1      18.188  21.004  56.633  1.00  0.00    -0.265 N
HETATM   12  C12 UNL     1      17.937  20.389  55.486  1.00  0.00     0.271 A
HETATM   13  O5  UNL     1      18.785  19.562  55.057  1.00  0.00    -0.267 OA
BRANCH   6  14
HETATM   14  O3  UNL     1      14.725  21.780  54.536  1.00  0.00    -0.345 OA
ATOM     15  H3  UNL     1      14.272  22.603  54.680  1.00  0.00     0.219 HD
ENDBRANCH   6  14
BRANCH  11  16
HETATM   16  C9  UNL     1      19.380  20.787  57.443  1.00  0.00     0.139 C
BRANCH  16  17
HETATM   17  C10 UNL     1      20.555  21.576  56.891  1.00  0.00     0.048 C
BRANCH  17  18
HETATM   18  C11 UNL     1      21.803  20.718  57.000  1.00  0.00     0.231 C
BRANCH  18  19
HETATM   19  N6  UNL     1      21.506  19.435  56.422  1.00  0.00    -0.079 N
ATOM     20  H63 UNL     1      20.569  19.388  56.024  1.00  0.00     0.274 HD
ATOM     21  H62 UNL     1      22.027  19.258  55.563  1.00  0.00     0.274 HD
ATOM     22  H61 UNL     1      21.669  18.727  57.137  1.00  0.00     0.274 HD
ENDBRANCH  18  19
ENDBRANCH  17  18
ENDBRANCH  16  17
ENDBRANCH  11  16
ENDBRANCH   3   5
BRANCH   1  23
HETATM   23  N2  UNL     1      16.667  17.886  52.023  1.00  0.00    -0.262 N
HETATM   24  C3  UNL     1      17.780  17.765  51.188  1.00  0.00     0.291 C
HETATM   25  O1  UNL     1      18.906  18.206  51.663  1.00  0.00    -0.264 OA
ATOM     26  H2  UNL     1      15.747  17.563  51.723  1.00  0.00     0.190 HD
BRANCH  24  27
HETATM   27  C2  UNL     1      17.800  17.198  49.852  1.00  0.00     0.159 A
HETATM   28  N1  UNL     1      18.159  17.777  48.707  1.00  0.00    -0.319 N
HETATM   29  C1  UNL     1      18.616  19.108  48.451  1.00  0.00     0.159 C
HETATM   30  C14 UNL     1      18.012  16.847  47.707  1.00  0.00     0.202 A
HETATM   31  N7  UNL     1      17.566  15.713  48.263  1.00  0.00    -0.211 N
HETATM   32  S1  UNL     1      18.338  17.106  46.120  1.00  0.00    -0.038 SA
HETATM   33  C13 UNL     1      17.417  15.866  49.568  1.00  0.00     0.197 A
BRANCH  31  34
HETATM   34  N8  UNL     1      17.289  14.525  47.576  1.00  0.00    -0.334 N
ATOM     35  H82 UNL     1      17.949  14.013  46.989  1.00  0.00     0.177 HD
ATOM     36  H81 UNL     1      16.388  14.049  47.597  1.00  0.00     0.177 HD
ENDBRANCH  31  34
BRANCH  33  37
HETATM   37  O6  UNL     1      16.980  14.953  50.525  1.00  0.00    -0.343 OA
ATOM     38  H6  UNL     1      16.068  14.751  50.697  1.00  0.00     0.219 HD
ENDBRANCH  33  37
ENDBRANCH  24  27
ENDBRANCH   1  23
TORSDOF 10
ENDMDL