MODEL 5
REMARK VINA RESULT: -6.511973023      3.496      7.730
REMARK  9 active torsions:
REMARK  status: ('A' for Active; 'I' for Inactive)
REMARK    1  A    between atoms: N1_1  and  C1_4
REMARK    2  A    between atoms: C3_12  and  C4_13
REMARK    3  A    between atoms: C4_13  and  C5_14
REMARK    4  A    between atoms: C5_14  and  C6_15
REMARK    5  A    between atoms: C6_15  and  C7_16
REMARK    6  A    between atoms: C7_16  and  O1_17
REMARK    7  A    between atoms: C8_22  and  N7_23
REMARK    8  A    between atoms: C11_28  and  N9_29
REMARK    9  A    between atoms: C12_34  and  N11_35
ROOT
HETATM    1  N7  UNL     1      15.713  21.633  52.680  1.00  0.00    -0.217 N
HETATM    2  N8  UNL     1      14.487  22.009  52.393  1.00  0.00    -0.301 N
ATOM      3  H8  UNL     1      14.072  21.997  51.462  1.00  0.00     0.186 HD
HETATM    4  C9  UNL     1      13.856  22.418  53.529  1.00  0.00     0.127 A
HETATM    5  C10 UNL     1      14.758  22.282  54.575  1.00  0.00     0.071 A
HETATM    6  C11 UNL     1      14.751  22.512  55.925  1.00  0.00     0.130 A
HETATM    7  N10 UNL     1      15.830  22.263  56.670  1.00  0.00    -0.176 N
ATOM      8  H10 UNL     1      15.802  22.442  57.673  1.00  0.00     0.186 HD
HETATM    9  C12 UNL     1      16.959  21.777  56.108  1.00  0.00     0.683 A
HETATM   10  N13 UNL     1      17.002  21.539  54.784  1.00  0.00    -0.174 N
ATOM     11  H13 UNL     1      17.854  21.173  54.359  1.00  0.00     0.186 HD
HETATM   12  C17 UNL     1      15.925  21.785  54.025  1.00  0.00     0.160 A
ENDROOT
BRANCH   1  13
HETATM   13  C8  UNL     1      16.748  21.156  51.828  1.00  0.00     0.189 A
HETATM   14  C1  UNL     1      17.760  21.999  51.372  1.00  0.00     0.162 A
HETATM   15  N2  UNL     1      18.756  21.552  50.596  1.00  0.00    -0.170 N
HETATM   16  C2  UNL     1      18.800  20.246  50.232  1.00  0.00     0.721 A
ATOM     17  H2  UNL     1      19.482  22.194  50.278  1.00  0.00     0.186 HD
HETATM   18  N3  UNL     1      19.649  19.508  49.504  1.00  0.00    -0.129 N
HETATM   19  N5  UNL     1      17.834  19.439  50.667  1.00  0.00    -0.069 N
HETATM   20  N4  UNL     1      19.242  18.259  49.469  1.00  0.00    -0.272 N
ATOM     21  H3  UNL     1      20.487  19.863  49.045  1.00  0.00     0.205 HD
HETATM   22  C3  UNL     1      18.113  18.187  50.186  1.00  0.00     0.140 A
ATOM     23  H4  UNL     1      19.701  17.487  48.986  1.00  0.00     0.189 HD
HETATM   24  N6  UNL     1      16.832  19.875  51.443  1.00  0.00    -0.258 N
ATOM     25  H6  UNL     1      16.116  19.216  51.748  1.00  0.00     0.190 HD
BRANCH  14  26
HETATM   26  N1  UNL     1      17.708  23.231  51.719  1.00  0.00    -0.382 N
ATOM     27  H12 UNL     1      18.591  23.725  51.841  1.00  0.00     0.157 HD
ATOM     28  H11 UNL     1      16.809  23.690  51.865  1.00  0.00     0.157 HD
ENDBRANCH  14  26
BRANCH  22  29
HETATM   29  C4  UNL     1      17.229  17.029  50.508  1.00  0.00     0.107 C
BRANCH  29  30
HETATM   30  C5  UNL     1      16.667  16.365  49.325  1.00  0.00    -0.021 C
BRANCH  30  31
HETATM   31  C6  UNL     1      16.976  14.988  48.959  1.00  0.00    -0.005 C
BRANCH  31  32
HETATM   32  C7  UNL     1      16.496  13.806  49.689  1.00  0.00     0.191 C
BRANCH  32  33
HETATM   33  O1  UNL     1      15.163  13.935  50.030  1.00  0.00    -0.397 OA
ATOM     34  H1  UNL     1      14.810  14.764  49.729  1.00  0.00     0.209 HD
ENDBRANCH  32  33
ENDBRANCH  31  32
ENDBRANCH  30  31
ENDBRANCH  29  30
ENDBRANCH  22  29
ENDBRANCH   1  13
BRANCH   6  35
HETATM   35  N9  UNL     1      13.684  22.970  56.474  1.00  0.00    -0.384 N
ATOM     36  H92 UNL     1      12.976  22.326  56.826  1.00  0.00     0.157 HD
ATOM     37  H91 UNL     1      13.558  23.979  56.546  1.00  0.00     0.157 HD
ENDBRANCH   6  35
BRANCH   9  38
HETATM   38  N11 UNL     1      18.056  21.553  56.966  1.00  0.00    -0.214 N
HETATM   39  C13 UNL     1      17.927  21.798  58.372  1.00  0.00     0.168 C
HETATM   40  C14 UNL     1      19.233  22.251  58.997  1.00  0.00     0.252 C
HETATM   41  N12 UNL     1      20.325  21.378  58.614  1.00  0.00    -0.072 N
HETATM   42  C15 UNL     1      20.503  21.514  57.181  1.00  0.00     0.252 C
ATOM     43 2H12 UNL     1      21.181  21.554  59.141  1.00  0.00     0.277 HD
ATOM     44 1H12 UNL     1      20.186  20.412  58.910  1.00  0.00     0.277 HD
HETATM   45  C16 UNL     1      19.283  21.063  56.411  1.00  0.00     0.168 C
ENDBRANCH   9  38
TORSDOF 9
ENDMDL