MODEL 3
REMARK VINA RESULT: -6.993912594      0.832      1.004
REMARK  10 active torsions:
REMARK  status: ('A' for Active; 'I' for Inactive)
REMARK    1  A    between atoms: C1_4  and  N2_5
REMARK    2  A    between atoms: C1_4  and  C9_29
REMARK    3  A    between atoms: N2_5  and  O1_7
REMARK    4  A    between atoms: O1_7  and  C2_8
REMARK       I    between atoms: C2_8  and  N3_10
REMARK    5  A    between atoms: N3_10  and  N4_12
REMARK       I    between atoms: N4_12  and  C3_14
REMARK       I    between atoms: C3_14  and  N6_19
REMARK    6  A    between atoms: N5_15  and  O3_17
REMARK    7  A    between atoms: N6_19  and  O4_21
REMARK    8  A    between atoms: O4_21  and  C4_22
REMARK    9  A    between atoms: C4_22  and  C5_23
REMARK   10  A    between atoms: C5_23  and  C6_24
ROOT
HETATM    1  C2  UNL     1      17.922  23.267  55.294  1.00  0.00     0.401 C
HETATM    2  O2  UNL     1      18.408  24.263  54.722  1.00  0.00    -0.235 OA
HETATM    3  N3  UNL     1      17.305  22.265  54.508  1.00  0.00    -0.229 N
ATOM      4  H3  UNL     1      16.911  21.456  54.989  1.00  0.00     0.193 HD
ENDROOT
BRANCH   3   5
HETATM    5  N4  UNL     1      17.202  22.311  53.138  1.00  0.00    -0.124 N
HETATM    6  C3  UNL     1      18.229  21.917  52.225  1.00  0.00     0.736 C
HETATM    7  N5  UNL     1      18.958  22.903  51.771  1.00  0.00    -0.096 N
HETATM    8  N6  UNL     1      18.463  20.586  51.822  1.00  0.00    -0.093 N
ATOM      9  H5  UNL     1      18.743  23.846  52.094  1.00  0.00     0.213 HD
ATOM     10  H6  UNL     1      18.630  19.901  52.558  1.00  0.00     0.213 HD
ATOM     11  H4  UNL     1      16.326  22.654  52.743  1.00  0.00     0.206 HD
BRANCH   7  12
HETATM   12  O3  UNL     1      19.983  22.747  50.896  1.00  0.00    -0.276 OA
ATOM     13  H3  UNL     1      20.100  23.276  50.115  1.00  0.00     0.245 HD
ENDBRANCH   7  12
BRANCH   8  14
HETATM   14  O4  UNL     1      18.487  20.141  50.556  1.00  0.00    -0.266 OA
BRANCH  14  15
HETATM   15  C4  UNL     1      18.945  18.854  50.432  1.00  0.00     0.203 C
BRANCH  15  16
HETATM   16  C5  UNL     1      17.884  17.865  50.871  1.00  0.00     0.054 C
BRANCH  16  17
HETATM   17  C6  UNL     1      17.200  17.352  49.643  1.00  0.00     0.110 C
HETATM   18  S1  UNL     1      18.113  17.651  48.125  1.00  0.00    -0.153 SA
HETATM   19  C7  UNL     1      18.222  16.041  47.306  1.00  0.00     0.085 C
HETATM   20  C8  UNL     1      17.160  15.166  47.880  1.00  0.00     0.085 C
HETATM   21  S2  UNL     1      17.053  15.539  49.648  1.00  0.00    -0.153 SA
ENDBRANCH  16  17
ENDBRANCH  15  16
ENDBRANCH  14  15
ENDBRANCH   8  14
ENDBRANCH   3   5
BRANCH   1  22
HETATM   22  O1  UNL     1      17.993  23.149  56.680  1.00  0.00    -0.178 OA
BRANCH  22  23
HETATM   23  N2  UNL     1      18.012  21.901  57.206  1.00  0.00    -0.239 N
ATOM     24  H2  UNL     1      17.135  21.400  57.349  1.00  0.00     0.196 HD
BRANCH  23  25
HETATM   25  C1  UNL     1      19.246  21.283  57.563  1.00  0.00     0.134 C
HETATM   26  N1  UNL     1      19.874  21.609  58.651  1.00  0.00    -0.383 N
ATOM     27  H12 UNL     1      19.460  22.323  59.252  1.00  0.00     0.157 HD
ATOM     28  H11 UNL     1      20.756  21.167  58.907  1.00  0.00     0.157 HD
BRANCH  25  29
HETATM   29  C9  UNL     1      19.832  20.272  56.712  1.00  0.00     0.067 A
HETATM   30  C10 UNL     1      21.134  19.833  56.733  1.00  0.00     0.078 A
HETATM   31  C11 UNL     1      21.246  18.867  55.756  1.00  0.00     0.226 A
HETATM   32  O5  UNL     1      22.313  18.226  55.473  1.00  0.00    -0.284 OA
HETATM   33  C12 UNL     1      20.045  18.701  55.132  1.00  0.00     0.272 A
HETATM   34  O6  UNL     1      19.736  17.917  54.187  1.00  0.00    -0.280 OA
HETATM   35  C13 UNL     1      19.163  19.581  55.733  1.00  0.00     0.239 A
HETATM   36  O7  UNL     1      17.950  19.683  55.388  1.00  0.00    -0.283 OA
ENDBRANCH  25  29
ENDBRANCH  23  25
ENDBRANCH  22  23
ENDBRANCH   1  22
TORSDOF 10
ENDMDL