MODEL 5
REMARK VINA RESULT: -6.997779201      1.755      2.612
REMARK  9 active torsions:
REMARK  status: ('A' for Active; 'I' for Inactive)
REMARK    1  A    between atoms: C2_2  and  O1_3
REMARK    2  A    between atoms: O1_3  and  C3_4
REMARK    3  A    between atoms: C5_6  and  N1_7
REMARK    4  A    between atoms: N1_7  and  C6_9
REMARK    5  A    between atoms: C6_9  and  C7_13
REMARK    6  A    between atoms: N4_16  and  C8_17
REMARK    7  A    between atoms: C9_20  and  C10_21
REMARK    8  A    between atoms: C11_25  and  N6_26
REMARK    9  A    between atoms: C15_35  and  N9_36
ROOT
HETATM    1  C7  UNL     1      17.160  19.342  52.276  1.00  0.00     0.171 A
HETATM    2  N3  UNL     1      16.821  19.599  53.575  1.00  0.00    -0.270 N
ATOM      3  H3  UNL     1      16.143  19.071  54.126  1.00  0.00     0.189 HD
HETATM    4  N4  UNL     1      17.508  20.636  54.000  1.00  0.00    -0.184 N
HETATM    5  C13 UNL     1      18.291  21.057  52.991  1.00  0.00     0.351 A
HETATM    6  O4  UNL     1      19.080  22.032  53.055  1.00  0.00    -0.244 OA
HETATM    7  N7  UNL     1      18.073  20.245  51.914  1.00  0.00    -0.284 N
HETATM    8  C14 UNL     1      18.721  20.355  50.624  1.00  0.00     0.163 C
ENDROOT
BRANCH   1   9
HETATM    9  C6  UNL     1      16.567  18.250  51.537  1.00  0.00     0.147 C
HETATM   10  N2  UNL     1      15.363  18.319  51.078  1.00  0.00    -0.382 N
ATOM     11  H22 UNL     1      14.944  17.549  50.556  1.00  0.00     0.157 HD
ATOM     12  H21 UNL     1      14.855  19.185  51.263  1.00  0.00     0.157 HD
BRANCH   9  13
HETATM   13  N1  UNL     1      17.270  17.053  51.280  1.00  0.00    -0.325 N
ATOM     14  H1  UNL     1      17.863  16.634  51.996  1.00  0.00     0.169 HD
BRANCH  13  15
HETATM   15  C5  UNL     1      17.145  16.500  50.114  1.00  0.00     0.126 A
HETATM   16  C4  UNL     1      17.895  17.011  49.050  1.00  0.00     0.105 A
HETATM   17  C3  UNL     1      17.779  16.446  47.809  1.00  0.00     0.161 A
HETATM   18  N10 UNL     1      16.941  15.407  47.634  1.00  0.00    -0.171 N
HETATM   19  C15 UNL     1      16.231  14.925  48.650  1.00  0.00     0.679 A
ATOM     20  H10 UNL     1      16.850  14.983  46.711  1.00  0.00     0.186 HD
HETATM   21  N8  UNL     1      16.337  15.464  49.857  1.00  0.00    -0.177 N
ATOM     22  H8  UNL     1      15.781  15.075  50.619  1.00  0.00     0.185 HD
BRANCH  17  23
HETATM   23  O1  UNL     1      18.476  16.879  46.696  1.00  0.00    -0.336 OA
BRANCH  23  24
HETATM   24  C2  UNL     1      18.257  16.488  45.377  1.00  0.00     0.173 C
HETATM   25  C1  UNL     1      19.164  17.151  44.375  1.00  0.00     0.034 C
ENDBRANCH  23  24
ENDBRANCH  17  23
BRANCH  19  26
HETATM   26  N9  UNL     1      15.423  13.914  48.463  1.00  0.00    -0.234 N
ATOM     27  H92 UNL     1      14.504  14.063  48.044  1.00  0.00     0.174 HD
ATOM     28  H91 UNL     1      15.717  12.978  48.740  1.00  0.00     0.174 HD
ENDBRANCH  19  26
ENDBRANCH  13  15
ENDBRANCH   9  13
ENDBRANCH   1   9
BRANCH   4  29
HETATM   29  C8  UNL     1      17.463  21.230  55.331  1.00  0.00     0.167 A
HETATM   30  N5  UNL     1      18.478  21.062  56.132  1.00  0.00    -0.327 N
HETATM   31  C9  UNL     1      18.467  21.584  57.338  1.00  0.00     0.155 A
ATOM     32  H5  UNL     1      19.286  20.523  55.821  1.00  0.00     0.168 HD
HETATM   33  S1  UNL     1      16.960  22.362  57.383  1.00  0.00    -0.044 SA
HETATM   34  C11 UNL     1      16.403  21.954  55.775  1.00  0.00     0.118 A
BRANCH  31  35
HETATM   35  C10 UNL     1      19.537  21.474  58.340  1.00  0.00     0.234 C
HETATM   36  O2  UNL     1      19.416  22.149  59.383  1.00  0.00    -0.642 OA
HETATM   37  O3  UNL     1      20.623  20.654  58.121  1.00  0.00    -0.642 OA
ENDBRANCH  31  35
BRANCH  34  38
HETATM   38  N6  UNL     1      15.157  22.335  55.199  1.00  0.00    -0.386 N
HETATM   39  C12 UNL     1      14.073  23.013  55.822  1.00  0.00     0.147 C
ATOM     40  H6  UNL     1      15.026  22.091  54.217  1.00  0.00     0.159 HD
ENDBRANCH  34  38
ENDBRANCH   4  29
TORSDOF 9
ENDMDL