MODEL 4
REMARK VINA RESULT: -7.643886823      2.715      6.618
REMARK  9 active torsions:
REMARK  status: ('A' for Active; 'I' for Inactive)
REMARK       I    between atoms: C2_2  and  N1_4
REMARK    1  A    between atoms: N1_4  and  N2_5
REMARK    2  A    between atoms: C3_7  and  C4_8
REMARK    3  A    between atoms: C3_7  and  C15_30
REMARK    4  A    between atoms: C7_14  and  C8_15
REMARK    5  A    between atoms: C8_15  and  N5_16
REMARK    6  A    between atoms: N5_16  and  N6_17
REMARK       I    between atoms: N6_17  and  C9_18
REMARK    7  A    between atoms: C9_18  and  C10_20
REMARK    8  A    between atoms: C14_27  and  O3_28
REMARK    9  A    between atoms: C16_36  and  N11_37
ROOT
HETATM    1  C10 UNL     1      17.811  17.734  50.224  1.00  0.00     0.103 A
HETATM    2  C11 UNL     1      18.035  16.941  49.123  1.00  0.00     0.064 A
HETATM    3  C12 UNL     1      16.871  16.321  48.758  1.00  0.00     0.117 A
HETATM    4  C13 UNL     1      16.634  15.391  47.656  1.00  0.00     0.117 C
HETATM    5  N7  UNL     1      16.467  14.648  46.796  1.00  0.00    -0.190 NA
HETATM    6  N8  UNL     1      15.931  16.737  49.638  1.00  0.00    -0.328 N
ATOM      7  H8  UNL     1      14.952  16.448  49.627  1.00  0.00     0.168 HD
HETATM    8  C14 UNL     1      16.477  17.595  50.538  1.00  0.00     0.158 A
ENDROOT
BRANCH   1   9
HETATM    9  C9  UNL     1      18.823  18.588  50.936  1.00  0.00     0.365 C
HETATM   10  N6  UNL     1      18.961  18.447  52.263  1.00  0.00    -0.204 NA
HETATM   11  O2  UNL     1      19.454  19.372  50.175  1.00  0.00    -0.248 OA
BRANCH  10  12
HETATM   12  N5  UNL     1      19.088  18.314  53.495  1.00  0.00    -0.257 NA
BRANCH  12  13
HETATM   13  C8  UNL     1      19.147  18.291  54.690  1.00  0.00     0.240 C
BRANCH  13  14
HETATM   14  C7  UNL     1      19.754  19.445  55.401  1.00  0.00     0.043 A
HETATM   15  C4  UNL     1      19.312  20.700  55.482  1.00  0.00     0.093 A
HETATM   16  N3  UNL     1      20.208  21.361  56.192  1.00  0.00    -0.296 N
HETATM   17  N4  UNL     1      21.202  20.630  56.582  1.00  0.00    -0.306 N
ATOM     18  H3  UNL     1      20.124  22.353  56.412  1.00  0.00     0.187 HD
HETATM   19  C5  UNL     1      22.321  21.081  57.368  1.00  0.00     0.177 C
HETATM   20  C6  UNL     1      20.959  19.395  56.103  1.00  0.00     0.126 A
BRANCH  15  21
HETATM   21  C3  UNL     1      18.030  21.240  54.972  1.00  0.00     0.122 C
HETATM   22  N2  UNL     1      17.150  21.590  55.792  1.00  0.00    -0.228 N
ATOM     23  H2  UNL     1      17.479  21.438  56.745  1.00  0.00     0.202 HD
BRANCH  22  24
HETATM   24  N1  UNL     1      15.944  22.089  55.811  1.00  0.00    -0.287 NA
HETATM   25  C2  UNL     1      14.695  22.606  55.831  1.00  0.00     0.308 C
HETATM   26  C1  UNL     1      13.954  23.068  57.063  1.00  0.00     0.137 C
HETATM   27  O1  UNL     1      13.976  22.760  54.776  1.00  0.00    -0.256 OA
ENDBRANCH  22  24
BRANCH  21  28
HETATM   28  C15 UNL     1      17.757  21.380  53.568  1.00  0.00     0.133 A
HETATM   29  N9  UNL     1      16.705  20.753  52.966  1.00  0.00    -0.236 N
HETATM   30  O4  UNL     1      16.628  21.067  51.723  1.00  0.00    -0.155 OA
ATOM     31  H9  UNL     1      16.063  20.118  53.441  1.00  0.00     0.197 HD
HETATM   32  N10 UNL     1      17.578  21.888  51.406  1.00  0.00    -0.224 N
HETATM   33  C16 UNL     1      18.320  22.108  52.569  1.00  0.00     0.152 A
ATOM     34  H10 UNL     1      17.750  22.294  50.487  1.00  0.00     0.198 HD
BRANCH  33  35
HETATM   35  N11 UNL     1      19.348  22.860  52.561  1.00  0.00    -0.382 N
ATOM     36 2H11 UNL     1      20.095  22.739  53.246  1.00  0.00     0.157 HD
ATOM     37 1H11 UNL     1      19.594  23.651  51.965  1.00  0.00     0.157 HD
ENDBRANCH  33  35
ENDBRANCH  21  28
ENDBRANCH  15  21
ENDBRANCH  13  14
ENDBRANCH  12  13
ENDBRANCH  10  12
ENDBRANCH   1   9
BRANCH   8  38
HETATM   38  O3  UNL     1      15.851  18.238  51.594  1.00  0.00    -0.345 OA
ATOM     39  H3  UNL     1      14.910  18.271  51.720  1.00  0.00     0.219 HD
ENDBRANCH   8  38
TORSDOF 9
ENDMDL