MODEL 1
REMARK VINA RESULT: -7.094097712      0.000      0.000
REMARK  12 active torsions:
REMARK  status: ('A' for Active; 'I' for Inactive)
REMARK    1  A    between atoms: C2_9  and  S1_10
REMARK    2  A    between atoms: S1_10  and  C3_11
REMARK    3  A    between atoms: C3_11  and  N5_12
REMARK    4  A    between atoms: C4_15  and  C5_16
REMARK    5  A    between atoms: C6_17  and  C7_18
REMARK    6  A    between atoms: C7_18  and  O1_19
REMARK    7  A    between atoms: C7_18  and  C8_21
REMARK    8  A    between atoms: C8_21  and  C11_24
REMARK    9  A    between atoms: C11_24  and  O2_26
REMARK   10  A    between atoms: C11_24  and  C13_28
REMARK   11  A    between atoms: C13_28  and  N7_29
REMARK   12  A    between atoms: C13_28  and  O3_33
ROOT
HETATM    1  N5  UNL     1      18.389  20.768  52.523  1.00  0.00    -0.265 N
HETATM    2  N6  UNL     1      17.877  19.547  52.325  1.00  0.00    -0.286 N
ATOM      3  H6  UNL     1      17.488  18.951  53.056  1.00  0.00     0.188 HD
HETATM    4  C4  UNL     1      17.951  19.222  51.037  1.00  0.00     0.126 A
HETATM    5  C14 UNL     1      18.538  20.294  50.398  1.00  0.00     0.126 A
HETATM    6  C15 UNL     1      18.829  20.417  49.007  1.00  0.00     0.106 C
HETATM    7  N8  UNL     1      19.060  20.498  47.858  1.00  0.00    -0.191 NA
HETATM    8  C16 UNL     1      18.811  21.265  51.348  1.00  0.00     0.140 A
HETATM    9  N9  UNL     1      19.359  22.407  51.077  1.00  0.00    -0.383 N
ATOM     10  H91 UNL     1      19.678  22.785  50.185  1.00  0.00     0.157 HD
ATOM     11  H92 UNL     1      19.559  23.122  51.776  1.00  0.00     0.157 HD
ENDROOT
BRANCH   4  12
HETATM   12  C5  UNL     1      17.506  17.994  50.434  1.00  0.00    -0.043 C
HETATM   13  C6  UNL     1      17.146  16.941  49.915  1.00  0.00    -0.067 C
BRANCH  13  14
HETATM   14  C7  UNL     1      16.731  15.675  49.331  1.00  0.00     0.208 C
BRANCH  14  15
HETATM   15  O1  UNL     1      15.340  15.529  49.457  1.00  0.00    -0.382 OA
ATOM     16  H1  UNL     1      15.136  14.655  49.768  1.00  0.00     0.211 HD
ENDBRANCH  14  15
BRANCH  14  17
HETATM   17  C8  UNL     1      17.194  15.502  47.930  1.00  0.00     0.024 C
HETATM   18  C9  UNL     1      17.968  16.734  47.491  1.00  0.00     0.022 C
HETATM   19  C10 UNL     1      15.964  15.451  47.009  1.00  0.00     0.022 C
BRANCH  17  20
HETATM   20  C11 UNL     1      17.941  14.241  47.697  1.00  0.00     0.115 C
HETATM   21  C12 UNL     1      16.972  13.070  47.538  1.00  0.00     0.051 C
BRANCH  20  22
HETATM   22  O2  UNL     1      18.671  13.924  48.860  1.00  0.00    -0.385 OA
ATOM     23  H2  UNL     1      19.456  13.452  48.610  1.00  0.00     0.210 HD
ENDBRANCH  20  22
BRANCH  20  24
HETATM   24  C13 UNL     1      18.885  14.234  46.548  1.00  0.00     0.351 C
BRANCH  24  25
HETATM   25  N7  UNL     1      18.452  13.372  45.472  1.00  0.00    -0.050 N
ATOM     26  H73 UNL     1      17.491  13.062  45.617  1.00  0.00     0.277 HD
ATOM     27  H72 UNL     1      18.327  13.900  44.608  1.00  0.00     0.277 HD
ATOM     28  H71 UNL     1      19.073  12.576  45.327  1.00  0.00     0.277 HD
ENDBRANCH  24  25
BRANCH  24  29
HETATM   29  O3  UNL     1      20.142  13.746  46.972  1.00  0.00    -0.368 OA
ATOM     30  H3  UNL     1      20.779  13.865  46.278  1.00  0.00     0.212 HD
ENDBRANCH  24  29
ENDBRANCH  20  24
ENDBRANCH  17  20
ENDBRANCH  14  17
ENDBRANCH  13  14
ENDBRANCH   4  12
BRANCH   1  31
HETATM   31  C3  UNL     1      18.496  21.458  53.779  1.00  0.00     0.233 C
BRANCH  31  32
HETATM   32  S1  UNL     1      18.768  20.294  55.129  1.00  0.00    -0.069 SA
BRANCH  32  33
HETATM   33  C2  UNL     1      20.115  20.764  56.171  1.00  0.00     0.179 A
HETATM   34  N1  UNL     1      21.138  20.016  56.587  1.00  0.00    -0.259 N
HETATM   35  C1  UNL     1      21.275  18.605  56.214  1.00  0.00     0.181 C
HETATM   36  N2  UNL     1      21.954  20.726  57.348  1.00  0.00    -0.224 N
HETATM   37  N3  UNL     1      21.444  21.934  57.415  1.00  0.00    -0.226 N
ATOM     38  H2  UNL     1      22.811  20.399  57.794  1.00  0.00     0.210 HD
HETATM   39  N4  UNL     1      20.331  21.993  56.714  1.00  0.00    -0.263 N
ATOM     40  H3  UNL     1      21.851  22.712  57.933  1.00  0.00     0.210 HD
ATOM     41  H4  UNL     1      19.736  22.813  56.599  1.00  0.00     0.190 HD
ENDBRANCH  32  33
ENDBRANCH  31  32
ENDBRANCH   1  31
TORSDOF 12
ENDMDL