MODEL 4
REMARK VINA RESULT: -11.386065275      1.969      3.411
REMARK  5 active torsions:
REMARK  status: ('A' for Active; 'I' for Inactive)
REMARK       I    between atoms: C1_2  and  N1_3
REMARK       I    between atoms: C1_2  and  N2_17
REMARK    1  A    between atoms: N1_3  and  C2_5
REMARK    2  A    between atoms: C5_8  and  C6_9
REMARK    3  A    between atoms: N2_17  and  C14_19
REMARK    4  A    between atoms: C18_23  and  N3_24
REMARK       I    between atoms: N3_24  and  C19_26
REMARK    5  A    between atoms: C19_26  and  C20_28
ROOT
HETATM    1  O1  UNL     1      61.111   4.669  -1.071  1.00  0.00    -0.247 OA
HETATM    2  C1  UNL     1      61.052   5.720  -1.749  1.00  0.00     0.325 C
HETATM    3  N1  UNL     1      61.176   7.002  -1.162  1.00  0.00    -0.309 N
ATOM      4  H1  UNL     1      61.110   7.808  -1.784  1.00  0.00     0.170 HD
HETATM    5  N2  UNL     1      60.854   5.651  -3.146  1.00  0.00    -0.309 N
ATOM      6  H2  UNL     1      60.821   6.535  -3.654  1.00  0.00     0.170 HD
ENDROOT
BRANCH   5   7
HETATM    7  C14 UNL     1      60.697   4.473  -3.901  1.00  0.00     0.038 A
HETATM    8  C15 UNL     1      59.478   4.058  -4.353  1.00  0.00     0.029 A
HETATM    9  C16 UNL     1      59.351   2.867  -5.083  1.00  0.00     0.004 A
HETATM   10  C17 UNL     1      60.470   2.114  -5.345  1.00  0.00     0.029 A
HETATM   11  C18 UNL     1      61.733   2.506  -4.901  1.00  0.00     0.037 A
HETATM   12  C25 UNL     1      61.822   3.698  -4.175  1.00  0.00     0.059 A
BRANCH  11  13
HETATM   13  N3  UNL     1      62.920   1.804  -5.154  1.00  0.00    -0.323 N
HETATM   14  C19 UNL     1      63.725   1.968  -6.274  1.00  0.00     0.257 C
HETATM   15  O2  UNL     1      63.431   2.799  -7.164  1.00  0.00    -0.267 OA
ATOM     16  H3  UNL     1      63.215   1.118  -4.460  1.00  0.00     0.169 HD
BRANCH  14  17
HETATM   17  C20 UNL     1      64.967   1.176  -6.480  1.00  0.00     0.047 A
HETATM   18  C21 UNL     1      66.207   1.751  -6.587  1.00  0.00     0.020 A
HETATM   19  C22 UNL     1      67.348   0.967  -6.784  1.00  0.00     0.018 A
HETATM   20  C23 UNL     1      67.239  -0.401  -6.872  1.00  0.00     0.087 A
HETATM   21  N4  UNL     1      66.013  -0.939  -6.763  1.00  0.00    -0.374 N
HETATM   22  C24 UNL     1      64.903  -0.197  -6.573  1.00  0.00     0.104 A
ATOM     23  H4  UNL     1      65.918  -1.953  -6.827  1.00  0.00     0.164 HD
ENDBRANCH  14  17
ENDBRANCH  11  13
ENDBRANCH   5   7
BRANCH   3  24
HETATM   24  C2  UNL     1      61.382   7.257   0.202  1.00  0.00     0.036 A
HETATM   25  C3  UNL     1      62.218   6.370   0.900  1.00  0.00     0.030 A
HETATM   26  C4  UNL     1      62.456   6.540   2.236  1.00  0.00     0.014 A
HETATM   27  C5  UNL     1      61.909   7.563   2.978  1.00  0.00    -0.026 A
HETATM   28  C12 UNL     1      61.093   8.429   2.302  1.00  0.00     0.014 A
HETATM   29  C13 UNL     1      60.832   8.280   0.933  1.00  0.00     0.030 A
BRANCH  27  30
HETATM   30  C6  UNL     1      62.202   7.688   4.390  1.00  0.00    -0.026 A
HETATM   31  C7  UNL     1      61.774   6.706   5.244  1.00  0.00     0.012 A
HETATM   32  C8  UNL     1      62.035   6.796   6.581  1.00  0.00     0.001 A
HETATM   33  C9  UNL     1      62.727   7.855   7.117  1.00  0.00     0.000 A
HETATM   34  C10 UNL     1      63.155   8.839   6.248  1.00  0.00     0.001 A
HETATM   35  C11 UNL     1      62.894   8.761   4.878  1.00  0.00     0.012 A
ENDBRANCH  27  30
ENDBRANCH   3  24
TORSDOF 5
ENDMDL