MODEL 2
REMARK VINA RESULT: -11.287154616      3.196      9.189
REMARK  6 active torsions:
REMARK  status: ('A' for Active; 'I' for Inactive)
REMARK    1  A    between atoms: N1_1  and  C1_4
REMARK    2  A    between atoms: C5_12  and  C6_13
REMARK    3  A    between atoms: C12_21  and  C13_22
REMARK    4  A    between atoms: C17_26  and  O1_27
REMARK    5  A    between atoms: O1_27  and  C18_28
REMARK    6  A    between atoms: C18_28  and  C19_29
ROOT
HETATM    1  C6  UNL     1      61.815   5.929  -3.437  1.00  0.00     0.043 A
HETATM    2  C7  UNL     1      62.422   6.757  -4.343  1.00  0.00     0.044 A
HETATM    3  C8  UNL     1      62.854   6.255  -5.577  1.00  0.00    -0.004 A
HETATM    4  C9  UNL     1      63.479   6.839  -6.662  1.00  0.00     0.031 A
HETATM    5  C10 UNL     1      63.677   5.879  -7.630  1.00  0.00     0.089 A
HETATM    6  N4  UNL     1      63.177   4.711  -7.144  1.00  0.00    -0.363 N
ATOM      7  H4  UNL     1      63.178   3.816  -7.633  1.00  0.00     0.165 HD
HETATM    8  C11 UNL     1      62.682   4.927  -5.913  1.00  0.00     0.070 A
HETATM    9  C12 UNL     1      62.068   4.128  -4.976  1.00  0.00     0.071 A
HETATM   10  N5  UNL     1      61.655   4.640  -3.780  1.00  0.00    -0.353 N
ATOM     11  H5  UNL     1      61.203   4.014  -3.114  1.00  0.00     0.166 HD
ENDROOT
BRANCH   1  12
HETATM   12  C5  UNL     1      61.331   6.386  -2.112  1.00  0.00    -0.008 A
HETATM   13  C4  UNL     1      60.876   7.662  -1.916  1.00  0.00     0.016 A
HETATM   14  C3  UNL     1      60.426   8.092  -0.688  1.00  0.00     0.033 A
HETATM   15  C2  UNL     1      60.425   7.225   0.389  1.00  0.00     0.062 A
HETATM   16  N3  UNL     1      60.052   7.355   1.687  1.00  0.00    -0.298 N
HETATM   17  C27 UNL     1      60.886   5.940   0.177  1.00  0.00     0.038 A
HETATM   18  N2  UNL     1      60.261   6.205   2.290  1.00  0.00    -0.285 N
ATOM     19  H3  UNL     1      59.674   8.198   2.121  1.00  0.00     0.187 HD
HETATM   20  C1  UNL     1      60.765   5.314   1.425  1.00  0.00     0.126 A
ATOM     21  H2  UNL     1      60.068   6.019   3.274  1.00  0.00     0.188 HD
HETATM   22  C26 UNL     1      61.334   5.514  -1.046  1.00  0.00     0.031 A
BRANCH  20  23
HETATM   23  N1  UNL     1      61.102   4.084   1.627  1.00  0.00    -0.384 N
ATOM     24  H12 UNL     1      61.188   3.402   0.872  1.00  0.00     0.157 HD
ATOM     25  H11 UNL     1      61.323   3.614   2.505  1.00  0.00     0.157 HD
ENDBRANCH  20  23
ENDBRANCH   1  12
BRANCH   9  26
HETATM   26  C13 UNL     1      61.863   2.721  -5.296  1.00  0.00    -0.004 A
HETATM   27  C14 UNL     1      60.552   2.312  -5.494  1.00  0.00     0.014 A
HETATM   28  C15 UNL     1      60.309   0.998  -5.788  1.00  0.00     0.004 A
HETATM   29  C16 UNL     1      61.341   0.070  -5.894  1.00  0.00     0.037 A
HETATM   30  C17 UNL     1      62.647   0.459  -5.701  1.00  0.00     0.070 A
HETATM   31  C25 UNL     1      62.884   1.806  -5.400  1.00  0.00     0.050 A
BRANCH  30  32
HETATM   32  O1  UNL     1      63.706  -0.414  -5.793  1.00  0.00    -0.347 OA
BRANCH  32  33
HETATM   33  C18 UNL     1      64.834  -0.291  -6.590  1.00  0.00     0.214 C
BRANCH  33  34
HETATM   34  C19 UNL     1      66.100  -0.734  -5.943  1.00  0.00    -0.034 A
HETATM   35  C20 UNL     1      67.235   0.046  -6.152  1.00  0.00     0.009 A
HETATM   36  C21 UNL     1      68.450  -0.334  -5.562  1.00  0.00     0.001 A
HETATM   37  C22 UNL     1      68.527  -1.459  -4.790  1.00  0.00     0.000 A
HETATM   38  C23 UNL     1      67.400  -2.219  -4.594  1.00  0.00     0.001 A
HETATM   39  C24 UNL     1      66.179  -1.864  -5.167  1.00  0.00     0.009 A
ENDBRANCH  33  34
ENDBRANCH  32  33
ENDBRANCH  30  32
ENDBRANCH   9  26
TORSDOF 6
ENDMDL