MODEL 5
REMARK VINA RESULT: -8.078487164      1.531      1.925
REMARK  5 active torsions:
REMARK  status: ('A' for Active; 'I' for Inactive)
REMARK    1  A    between atoms: C1_2  and  C2_4
REMARK    2  A    between atoms: C7_9  and  S1_10
REMARK    3  A    between atoms: S1_10  and  C8_11
REMARK    4  A    between atoms: C10_17  and  C11_18
REMARK    5  A    between atoms: C18_27  and  C19_28
ROOT
HETATM    1  C8  UNL     1      61.407   5.369  -4.763  1.00  0.00     0.089 A
HETATM    2  N2  UNL     1      61.521   6.600  -4.254  1.00  0.00    -0.334 N
ATOM      3  H2  UNL     1      61.600   7.449  -4.815  1.00  0.00     0.168 HD
HETATM    4  C9  UNL     1      61.517   6.579  -2.908  1.00  0.00     0.136 A
HETATM    5  N3  UNL     1      61.580   7.293  -1.771  1.00  0.00    -0.326 N
ATOM      6  H3  UNL     1      61.673   8.308  -1.719  1.00  0.00     0.169 HD
HETATM    7  C10 UNL     1      61.502   6.470  -0.714  1.00  0.00     0.117 A
HETATM    8  N4  UNL     1      61.387   5.218  -1.157  1.00  0.00    -0.338 N
ATOM      9  H4  UNL     1      61.310   4.382  -0.579  1.00  0.00     0.167 HD
HETATM   10  C17 UNL     1      61.393   5.250  -2.495  1.00  0.00     0.092 A
HETATM   11  C18 UNL     1      61.327   4.519  -3.689  1.00  0.00     0.039 A
ENDROOT
BRANCH   1  12
HETATM   12  S1  UNL     1      61.377   4.871  -6.469  1.00  0.00    -0.071 SA
BRANCH  12  13
HETATM   13  C7  UNL     1      62.620   3.690  -6.904  1.00  0.00     0.022 A
HETATM   14  C2  UNL     1      62.271   2.407  -7.226  1.00  0.00     0.046 A
HETATM   15  C3  UNL     1      63.224   1.449  -7.571  1.00  0.00     0.018 A
HETATM   16  C4  UNL     1      64.557   1.772  -7.598  1.00  0.00     0.001 A
HETATM   17  C5  UNL     1      64.916   3.063  -7.276  1.00  0.00     0.001 A
HETATM   18  C6  UNL     1      63.967   4.008  -6.935  1.00  0.00     0.020 A
BRANCH  14  19
HETATM   19  C1  UNL     1      60.901   1.996  -7.247  1.00  0.00     0.266 C
HETATM   20  N1  UNL     1      60.537   0.657  -7.505  1.00  0.00    -0.057 NA
HETATM   21  O1  UNL     1      59.987   2.820  -7.034  1.00  0.00    -0.271 OA
ENDBRANCH  14  19
ENDBRANCH  12  13
ENDBRANCH   1  12
BRANCH  11  22
HETATM   22  C19 UNL     1      61.191   3.084  -3.750  1.00  0.00    -0.021 A
HETATM   23  C20 UNL     1      59.969   2.447  -3.792  1.00  0.00     0.012 A
HETATM   24  C21 UNL     1      59.827   1.078  -3.858  1.00  0.00     0.001 A
HETATM   25  C22 UNL     1      60.971   0.323  -3.885  1.00  0.00     0.000 A
HETATM   26  C23 UNL     1      62.212   0.909  -3.846  1.00  0.00     0.001 A
HETATM   27  C24 UNL     1      62.322   2.281  -3.779  1.00  0.00     0.012 A
ENDBRANCH  11  22
BRANCH   7  28
HETATM   28  C11 UNL     1      61.541   6.936   0.665  1.00  0.00     0.008 A
HETATM   29  C12 UNL     1      60.955   8.135   1.027  1.00  0.00     0.015 A
HETATM   30  C13 UNL     1      61.001   8.559   2.331  1.00  0.00     0.001 A
HETATM   31  C14 UNL     1      61.610   7.843   3.323  1.00  0.00     0.000 A
HETATM   32  C15 UNL     1      62.202   6.637   2.975  1.00  0.00     0.001 A
HETATM   33  C16 UNL     1      62.152   6.220   1.670  1.00  0.00     0.015 A
ENDBRANCH   7  28
TORSDOF 5
ENDMDL