MODEL 4
REMARK VINA RESULT: -11.651296554      0.583      1.024
REMARK  7 active torsions:
REMARK  status: ('A' for Active; 'I' for Inactive)
REMARK    1  A    between atoms: N1_1  and  N2_4
REMARK    2  A    between atoms: N3_6  and  C1_8
REMARK    3  A    between atoms: C4_11  and  C5_12
REMARK    4  A    between atoms: C7_16  and  N5_17
REMARK       I    between atoms: N5_17  and  C8_19
REMARK       I    between atoms: C8_19  and  N6_21
REMARK    5  A    between atoms: N6_21  and  C9_23
REMARK    6  A    between atoms: C12_26  and  O2_27
REMARK    7  A    between atoms: O2_27  and  C13_28
ROOT
HETATM    1  C5  UNL     1      61.298   6.837  -1.541  1.00  0.00     0.075 A
HETATM    2  C6  UNL     1      61.659   7.794  -2.468  1.00  0.00     0.137 A
HETATM    3  N4  UNL     1      61.456   7.281  -3.702  1.00  0.00    -0.199 N
ATOM      4  H4  UNL     1      61.634   7.761  -4.583  1.00  0.00     0.183 HD
HETATM    5  C7  UNL     1      60.977   6.026  -3.571  1.00  0.00     0.686 A
HETATM    6  N7  UNL     1      60.891   5.785  -2.276  1.00  0.00    -0.189 N
ATOM      7  H7  UNL     1      60.556   4.907  -1.879  1.00  0.00     0.184 HD
ENDROOT
BRANCH   5   8
HETATM    8  N5  UNL     1      60.669   5.233  -4.530  1.00  0.00    -0.141 N
HETATM    9  C8  UNL     1      61.761   4.511  -5.159  1.00  0.00     0.339 C
HETATM   10  O1  UNL     1      62.605   5.134  -5.830  1.00  0.00    -0.246 OA
HETATM   11  N6  UNL     1      61.795   3.125  -4.969  1.00  0.00    -0.308 N
ATOM     12  H6  UNL     1      61.064   2.700  -4.399  1.00  0.00     0.170 HD
ATOM     13  H5  UNL     1      59.703   5.115  -4.836  1.00  0.00     0.189 HD
BRANCH  11  14
HETATM   14  C9  UNL     1      62.784   2.282  -5.519  1.00  0.00     0.036 A
HETATM   15  C10 UNL     1      62.477   0.909  -5.590  1.00  0.00     0.032 A
HETATM   16  C11 UNL     1      63.357  -0.001  -6.127  1.00  0.00     0.039 A
HETATM   17  C12 UNL     1      64.582   0.393  -6.620  1.00  0.00     0.076 A
HETATM   18  C19 UNL     1      64.892   1.714  -6.557  1.00  0.00     0.039 A
HETATM   19  C20 UNL     1      64.004   2.620  -6.018  1.00  0.00     0.032 A
BRANCH  17  20
HETATM   20  O2  UNL     1      65.472  -0.537  -7.163  1.00  0.00    -0.311 OA
BRANCH  20  21
HETATM   21  C13 UNL     1      66.541  -0.905  -6.351  1.00  0.00     0.076 A
HETATM   22  C14 UNL     1      67.797  -0.376  -6.558  1.00  0.00     0.037 A
HETATM   23  C15 UNL     1      68.869  -0.730  -5.763  1.00  0.00     0.003 A
HETATM   24  C16 UNL     1      68.682  -1.636  -4.733  1.00  0.00     0.000 A
HETATM   25  C17 UNL     1      67.422  -2.148  -4.548  1.00  0.00     0.003 A
HETATM   26  C18 UNL     1      66.335  -1.812  -5.329  1.00  0.00     0.037 A
ENDBRANCH  20  21
ENDBRANCH  17  20
ENDBRANCH  11  14
ENDBRANCH   5   8
BRANCH   1  27
HETATM   27  C4  UNL     1      61.332   6.909  -0.089  1.00  0.00    -0.007 A
HETATM   28  C3  UNL     1      61.259   5.778   0.695  1.00  0.00     0.016 A
HETATM   29  C2  UNL     1      61.290   5.841   2.079  1.00  0.00     0.032 A
HETATM   30  C1  UNL     1      61.397   7.054   2.726  1.00  0.00     0.049 A
HETATM   31  C22 UNL     1      61.470   8.186   1.943  1.00  0.00     0.032 A
HETATM   32  C21 UNL     1      61.438   8.120   0.550  1.00  0.00     0.016 A
BRANCH  30  33
HETATM   33  N3  UNL     1      61.432   7.145   4.155  1.00  0.00    -0.287 N
HETATM   34  N2  UNL     1      62.411   7.726   4.635  1.00  0.00    -0.249 N
ATOM     35  H2  UNL     1      63.188   7.203   4.231  1.00  0.00     0.207 HD
ATOM     36  H3  UNL     1      60.693   6.755   4.740  1.00  0.00     0.188 HD
BRANCH  34  37
HETATM   37  N1  UNL     1      63.001   8.574   5.323  1.00  0.00    -0.331 N
ATOM     38  H12 UNL     1      63.122   9.304   4.620  1.00  0.00     0.178 HD
ATOM     39  H11 UNL     1      63.426   8.955   6.168  1.00  0.00     0.178 HD
ENDBRANCH  34  37
ENDBRANCH  30  33
ENDBRANCH   1  27
TORSDOF 7
ENDMDL