MODEL 1
REMARK VINA RESULT: -10.017523088      0.000      0.000
REMARK  7 active torsions:
REMARK  status: ('A' for Active; 'I' for Inactive)
REMARK       I    between atoms: C1_2  and  N1_3
REMARK    1  A    between atoms: C1_2  and  C15_23
REMARK    2  A    between atoms: N1_3  and  C2_5
REMARK    3  A    between atoms: C5_8  and  N2_9
REMARK    4  A    between atoms: N2_9  and  C6_11
REMARK    5  A    between atoms: C6_11  and  N3_13
REMARK    6  A    between atoms: N3_13  and  C7_15
REMARK    7  A    between atoms: C19_27  and  C20_28
ROOT
HETATM    1  C2  UNL     1      62.326   4.305  -3.291  1.00  0.00     0.035 A
HETATM    2  C3  UNL     1      61.711   3.139  -3.597  1.00  0.00     0.032 A
HETATM    3  C4  UNL     1      62.219   2.260  -4.572  1.00  0.00     0.032 A
HETATM    4  C5  UNL     1      63.357   2.548  -5.253  1.00  0.00     0.034 A
HETATM    5  C13 UNL     1      64.015   3.754  -4.953  1.00  0.00     0.032 A
HETATM    6  C14 UNL     1      63.501   4.592  -3.999  1.00  0.00     0.032 A
ENDROOT
BRANCH   1   7
HETATM    7  N1  UNL     1      61.893   5.229  -2.349  1.00  0.00    -0.323 N
HETATM    8  C1  UNL     1      62.080   5.186  -0.956  1.00  0.00     0.256 C
HETATM    9  O1  UNL     1      62.686   4.269  -0.341  1.00  0.00    -0.267 OA
ATOM     10  H1  UNL     1      61.378   6.032  -2.709  1.00  0.00     0.169 HD
BRANCH   8  11
HETATM   11  C15 UNL     1      61.567   6.243  -0.073  1.00  0.00     0.033 A
HETATM   12  C16 UNL     1      60.742   7.245  -0.516  1.00  0.00     0.017 A
HETATM   13  C17 UNL     1      60.248   8.245   0.336  1.00  0.00     0.002 A
HETATM   14  C18 UNL     1      60.617   8.198   1.657  1.00  0.00     0.012 A
HETATM   15  C19 UNL     1      61.447   7.213   2.161  1.00  0.00    -0.025 A
HETATM   16  C25 UNL     1      61.900   6.258   1.279  1.00  0.00     0.029 A
BRANCH  15  17
HETATM   17  C20 UNL     1      61.832   7.177   3.573  1.00  0.00    -0.023 A
HETATM   18  C21 UNL     1      62.617   6.152   4.053  1.00  0.00     0.029 A
HETATM   19  C22 UNL     1      62.986   6.111   5.378  1.00  0.00     0.088 A
HETATM   20  N4  UNL     1      62.566   7.091   6.203  1.00  0.00    -0.375 N
HETATM   21  C23 UNL     1      61.801   8.112   5.793  1.00  0.00     0.088 A
ATOM     22  H4  UNL     1      62.843   7.053   7.184  1.00  0.00     0.164 HD
HETATM   23  C24 UNL     1      61.434   8.150   4.466  1.00  0.00     0.029 A
ENDBRANCH  15  17
ENDBRANCH   8  11
ENDBRANCH   1   7
BRANCH   4  24
HETATM   24  N2  UNL     1      63.953   1.779  -6.267  1.00  0.00    -0.333 N
ATOM     25  H2  UNL     1      64.612   2.262  -6.876  1.00  0.00     0.168 HD
BRANCH  24  26
HETATM   26  C6  UNL     1      63.737   0.404  -6.534  1.00  0.00     0.176 C
HETATM   27  S1  UNL     1      62.615   0.011  -7.711  1.00  0.00    -0.041 SA
BRANCH  26  28
HETATM   28  N3  UNL     1      64.415  -0.669  -5.932  1.00  0.00    -0.333 N
ATOM     29  H3  UNL     1      63.840  -1.446  -5.606  1.00  0.00     0.168 HD
BRANCH  28  30
HETATM   30  C7  UNL     1      65.791  -0.785  -5.730  1.00  0.00     0.034 A
HETATM   31  C8  UNL     1      66.687   0.130  -6.158  1.00  0.00     0.029 A
HETATM   32  C9  UNL     1      68.052  -0.036  -5.890  1.00  0.00     0.002 A
HETATM   33  C10 UNL     1      68.482  -1.121  -5.199  1.00  0.00     0.000 A
HETATM   34  C11 UNL     1      67.573  -2.055  -4.763  1.00  0.00     0.002 A
HETATM   35  C12 UNL     1      66.251  -1.894  -5.022  1.00  0.00     0.029 A
ENDBRANCH  28  30
ENDBRANCH  26  28
ENDBRANCH  24  26
ENDBRANCH   4  24
TORSDOF 7
ENDMDL