MODEL 3
REMARK VINA RESULT: -1.068866043      1.585      1.805
REMARK  5 active torsions:
REMARK  status: ('A' for Active; 'I' for Inactive)
REMARK       I    between atoms: C1_2  and  N1_3
REMARK    1  A    between atoms: C1_2  and  C22_30
REMARK    2  A    between atoms: N1_3  and  C2_5
REMARK    3  A    between atoms: C4_7  and  C5_8
REMARK    4  A    between atoms: C9_12  and  N2_13
REMARK    5  A    between atoms: C12_18  and  C13_19
ROOT
HETATM    1  C2  UNL     1      64.308   1.613  -5.350  1.00  0.00     0.036 A
HETATM    2  C3  UNL     1      63.309   1.190  -6.244  1.00  0.00     0.042 A
HETATM    3  C4  UNL     1      62.045   1.712  -6.276  1.00  0.00    -0.023 A
HETATM    4  C11 UNL     1      61.763   2.710  -5.367  1.00  0.00     0.026 A
HETATM    5  C12 UNL     1      62.699   3.164  -4.470  1.00  0.00    -0.006 A
HETATM    6  C21 UNL     1      63.984   2.612  -4.460  1.00  0.00     0.043 A
ENDROOT
BRANCH   1   7
HETATM    7  N1  UNL     1      65.588   1.014  -5.370  1.00  0.00    -0.322 N
HETATM    8  C1  UNL     1      65.912  -0.350  -5.443  1.00  0.00     0.272 C
HETATM    9  O1  UNL     1      65.085  -1.265  -5.502  1.00  0.00    -0.266 OA
ATOM     10  H1  UNL     1      66.379   1.656  -5.325  1.00  0.00     0.169 HD
BRANCH   8  11
HETATM   11  C22 UNL     1      67.349  -0.727  -5.453  1.00  0.00     0.100 A
HETATM   12  C23 UNL     1      67.974  -1.581  -4.572  1.00  0.00     0.036 A
HETATM   13  C24 UNL     1      69.302  -1.676  -4.905  1.00  0.00     0.019 A
HETATM   14  C25 UNL     1      69.481  -0.865  -6.006  1.00  0.00     0.088 A
HETATM   15  N4  UNL     1      68.291  -0.312  -6.306  1.00  0.00    -0.361 N
ATOM     16  H4  UNL     1      68.129   0.334  -7.078  1.00  0.00     0.165 HD
ENDBRANCH   8  11
ENDBRANCH   1   7
BRANCH   3  17
HETATM   17  C5  UNL     1      61.093   1.194  -7.247  1.00  0.00    -0.024 A
HETATM   18  C6  UNL     1      60.209   0.196  -6.895  1.00  0.00     0.012 A
HETATM   19  C7  UNL     1      59.302  -0.302  -7.808  1.00  0.00     0.003 A
HETATM   20  C8  UNL     1      59.268   0.193  -9.085  1.00  0.00     0.036 A
HETATM   21  C9  UNL     1      60.129   1.187  -9.479  1.00  0.00     0.103 A
HETATM   22  C10 UNL     1      61.034   1.671  -8.540  1.00  0.00     0.048 A
BRANCH  21  23
HETATM   23  N2  UNL     1      60.116   1.722 -10.804  1.00  0.00    -0.116 N
HETATM   24  O2  UNL     1      59.591   2.830 -11.000  1.00  0.00    -0.532 OA
HETATM   25  O3  UNL     1      60.662   1.061 -11.874  1.00  0.00    -0.532 OA
ENDBRANCH  21  23
ENDBRANCH   3  17
BRANCH   5  26
HETATM   26  C13 UNL     1      62.347   4.226  -3.526  1.00  0.00     0.043 A
HETATM   27  C14 UNL     1      61.951   5.513  -3.867  1.00  0.00     0.044 A
HETATM   28  C15 UNL     1      61.700   6.236  -2.717  1.00  0.00    -0.007 A
HETATM   29  C16 UNL     1      61.291   7.529  -2.461  1.00  0.00     0.014 A
HETATM   30  C20 UNL     1      61.950   5.371  -1.673  1.00  0.00     0.043 A
HETATM   31  C17 UNL     1      61.115   8.003  -1.177  1.00  0.00     0.001 A
HETATM   32  C18 UNL     1      61.362   7.144  -0.128  1.00  0.00     0.002 A
HETATM   33  C19 UNL     1      61.772   5.854  -0.393  1.00  0.00     0.030 A
HETATM   34  N3  UNL     1      62.331   4.186  -2.189  1.00  0.00    -0.355 N
ATOM     35  H3  UNL     1      62.576   3.367  -1.633  1.00  0.00     0.166 HD
ENDBRANCH   5  26
TORSDOF 5
ENDMDL