MODEL 3
REMARK VINA RESULT: -11.239950675      0.870      1.224
REMARK  7 active torsions:
REMARK  status: ('A' for Active; 'I' for Inactive)
REMARK       I    between atoms: C1_2  and  N1_3
REMARK    1  A    between atoms: C1_2  and  C19_28
REMARK    2  A    between atoms: N1_3  and  C2_5
REMARK    3  A    between atoms: C5_8  and  N2_9
REMARK    4  A    between atoms: N2_9  and  C6_11
REMARK    5  A    between atoms: C6_11  and  N3_13
REMARK    6  A    between atoms: N3_13  and  C7_15
REMARK    7  A    between atoms: C10_18  and  C11_19
ROOT
HETATM    1  N2  UNL     1      61.121   4.775  -5.663  1.00  0.00    -0.333 N
ATOM      2  H2  UNL     1      60.266   4.640  -6.202  1.00  0.00     0.168 HD
ENDROOT
BRANCH   1   3
HETATM    3  C5  UNL     1      62.160   3.886  -5.950  1.00  0.00     0.034 A
HETATM    4  C4  UNL     1      62.150   2.973  -6.975  1.00  0.00     0.032 A
HETATM    5  C3  UNL     1      63.228   2.105  -7.176  1.00  0.00     0.032 A
HETATM    6  C2  UNL     1      64.347   2.101  -6.383  1.00  0.00     0.035 A
HETATM    7  C18 UNL     1      64.324   3.051  -5.340  1.00  0.00     0.032 A
HETATM    8  C17 UNL     1      63.282   3.905  -5.129  1.00  0.00     0.032 A
BRANCH   6   9
HETATM    9  N1  UNL     1      65.455   1.247  -6.504  1.00  0.00    -0.323 N
HETATM   10  C1  UNL     1      65.491  -0.103  -6.180  1.00  0.00     0.256 C
HETATM   11  O1  UNL     1      64.467  -0.698  -5.717  1.00  0.00    -0.267 OA
ATOM     12  H1  UNL     1      66.315   1.658  -6.865  1.00  0.00     0.169 HD
BRANCH  10  13
HETATM   13  C19 UNL     1      66.710  -0.929  -6.352  1.00  0.00     0.032 A
HETATM   14  C20 UNL     1      67.380  -0.960  -7.557  1.00  0.00     0.017 A
HETATM   15  C21 UNL     1      68.508  -1.704  -7.770  1.00  0.00     0.001 A
HETATM   16  C22 UNL     1      69.017  -2.464  -6.737  1.00  0.00     0.000 A
HETATM   17  C23 UNL     1      68.376  -2.453  -5.529  1.00  0.00     0.001 A
HETATM   18  C24 UNL     1      67.219  -1.686  -5.330  1.00  0.00     0.017 A
ENDBRANCH  10  13
ENDBRANCH   6   9
ENDBRANCH   1   3
BRANCH   1  19
HETATM   19  C6  UNL     1      61.091   5.803  -4.758  1.00  0.00     0.176 C
HETATM   20  S1  UNL     1      62.029   7.153  -5.209  1.00  0.00    -0.041 SA
BRANCH  19  21
HETATM   21  N3  UNL     1      60.437   5.930  -3.555  1.00  0.00    -0.333 N
ATOM     22  H3  UNL     1      59.422   5.869  -3.639  1.00  0.00     0.168 HD
BRANCH  21  23
HETATM   23  C7  UNL     1      60.875   6.128  -2.225  1.00  0.00     0.034 A
HETATM   24  C8  UNL     1      60.758   7.407  -1.662  1.00  0.00     0.030 A
HETATM   25  C9  UNL     1      61.100   7.645  -0.351  1.00  0.00     0.016 A
HETATM   26  C10 UNL     1      61.571   6.649   0.477  1.00  0.00    -0.002 A
HETATM   27  C15 UNL     1      61.687   5.390  -0.076  1.00  0.00     0.016 A
HETATM   28  C16 UNL     1      61.348   5.141  -1.387  1.00  0.00     0.030 A
BRANCH  26  29
HETATM   29  C11 UNL     1      61.933   6.905   1.869  1.00  0.00     0.085 A
HETATM   30  C12 UNL     1      61.399   7.813   2.748  1.00  0.00     0.040 A
HETATM   31  C13 UNL     1      62.059   7.691   3.944  1.00  0.00     0.027 A
HETATM   32  C14 UNL     1      63.001   6.678   3.738  1.00  0.00     0.142 A
HETATM   33  O2  UNL     1      62.886   6.246   2.496  1.00  0.00    -0.322 OA
ENDBRANCH  26  29
ENDBRANCH  21  23
ENDBRANCH  19  21
ENDBRANCH   1  19
TORSDOF 7
ENDMDL