MODEL 4
REMARK VINA RESULT: -5.663874633      4.370     12.622
REMARK  5 active torsions:
REMARK  status: ('A' for Active; 'I' for Inactive)
REMARK    1  A    between atoms: C5_8  and  C6_9
REMARK    2  A    between atoms: C9_12  and  C10_13
REMARK    3  A    between atoms: C12_17  and  C13_18
REMARK    4  A    between atoms: C16_21  and  C17_22
REMARK    5  A    between atoms: N3_23  and  C18_25
ROOT
HETATM    1  C10 UNL     1      62.926   3.295  -4.368  1.00  0.00     0.059 A
HETATM    2  C11 UNL     1      61.733   3.826  -4.797  1.00  0.00     0.120 A
HETATM    3  N2  UNL     1      61.286   4.623  -3.797  1.00  0.00    -0.349 N
ATOM      4  H2  UNL     1      60.418   5.159  -3.820  1.00  0.00     0.167 HD
HETATM    5  C12 UNL     1      62.152   4.602  -2.772  1.00  0.00     0.116 A
HETATM    6  N4  UNL     1      63.154   3.783  -3.138  1.00  0.00    -0.340 N
ATOM      7  H4  UNL     1      63.968   3.564  -2.565  1.00  0.00     0.167 HD
ENDROOT
BRANCH   5   8
HETATM    8  C13 UNL     1      62.036   5.324  -1.510  1.00  0.00     0.008 A
HETATM    9  C14 UNL     1      61.696   6.660  -1.457  1.00  0.00     0.016 A
HETATM   10  C15 UNL     1      61.594   7.314  -0.232  1.00  0.00     0.014 A
HETATM   11  C16 UNL     1      61.827   6.662   0.960  1.00  0.00    -0.021 A
HETATM   12  C24 UNL     1      62.162   5.344   0.912  1.00  0.00     0.014 A
HETATM   13  C25 UNL     1      62.262   4.700  -0.299  1.00  0.00     0.016 A
BRANCH  11  14
HETATM   14  C17 UNL     1      61.725   7.331   2.240  1.00  0.00     0.099 C
HETATM   15  N3  UNL     1      62.635   7.110   3.123  1.00  0.00    -0.365 N
ATOM     16  H3  UNL     1      63.410   6.477   2.924  1.00  0.00     0.165 HD
BRANCH  15  17
HETATM   17  C18 UNL     1      62.538   7.764   4.379  1.00  0.00     0.031 A
HETATM   18  C19 UNL     1      61.410   7.639   5.161  1.00  0.00     0.029 A
HETATM   19  C20 UNL     1      61.339   8.283   6.376  1.00  0.00     0.002 A
HETATM   20  C21 UNL     1      62.377   9.076   6.865  1.00  0.00     0.000 A
HETATM   21  C22 UNL     1      63.495   9.196   6.080  1.00  0.00     0.002 A
HETATM   22  C23 UNL     1      63.579   8.558   4.867  1.00  0.00     0.029 A
ENDBRANCH  15  17
ENDBRANCH  11  14
ENDBRANCH   5   8
BRANCH   1  23
HETATM   23  C9  UNL     1      63.820   2.369  -5.074  1.00  0.00    -0.008 A
HETATM   24  C8  UNL     1      65.064   2.778  -5.486  1.00  0.00     0.014 A
HETATM   25  C7  UNL     1      65.883   1.892  -6.145  1.00  0.00     0.013 A
HETATM   26  C6  UNL     1      65.528   0.585  -6.427  1.00  0.00    -0.020 A
HETATM   27  C27 UNL     1      64.281   0.198  -6.006  1.00  0.00     0.013 A
HETATM   28  C26 UNL     1      63.444   1.070  -5.344  1.00  0.00     0.014 A
BRANCH  26  29
HETATM   29  C5  UNL     1      66.441  -0.312  -7.133  1.00  0.00     0.042 A
HETATM   30  C1  UNL     1      66.559  -1.643  -6.787  1.00  0.00     0.256 A
HETATM   31  O1  UNL     1      65.859  -2.105  -5.836  1.00  0.00    -0.267 OA
HETATM   32  N1  UNL     1      67.413  -2.465  -7.453  1.00  0.00    -0.333 N
HETATM   33  C2  UNL     1      68.176  -2.004  -8.477  1.00  0.00     0.091 A
ATOM     34  H1  UNL     1      67.482  -3.446  -7.178  1.00  0.00     0.168 HD
HETATM   35  C3  UNL     1      68.096  -0.679  -8.861  1.00  0.00     0.018 A
HETATM   36  C4  UNL     1      67.228   0.139  -8.179  1.00  0.00     0.019 A
ENDBRANCH  26  29
ENDBRANCH   1  23
TORSDOF 5
ENDMDL