MODEL 3
REMARK VINA RESULT: -9.893149331      0.514      1.120
REMARK  5 active torsions:
REMARK  status: ('A' for Active; 'I' for Inactive)
REMARK    1  A    between atoms: C1_4  and  C2_6
REMARK    2  A    between atoms: C5_9  and  C6_10
REMARK    3  A    between atoms: C9_13  and  C10_14
REMARK    4  A    between atoms: C15_23  and  N5_24
REMARK    5  A    between atoms: N5_24  and  C16_26
ROOT
HETATM    1  C10 UNL     1      61.376   4.800  -3.988  1.00  0.00    -0.025 A
HETATM    2  C11 UNL     1      60.630   5.486  -4.930  1.00  0.00     0.014 A
HETATM    3  C12 UNL     1      60.531   4.970  -6.221  1.00  0.00     0.031 A
HETATM    4  C13 UNL     1      61.167   3.791  -6.560  1.00  0.00     0.047 A
HETATM    5  N3  UNL     1      61.073   3.293  -7.802  1.00  0.00    -0.352 N
ATOM      6  H3  UNL     1      60.529   3.780  -8.515  1.00  0.00     0.166 HD
HETATM    7  C14 UNL     1      61.709   2.137  -8.094  1.00  0.00     0.182 A
HETATM    8  N4  UNL     1      62.439   1.451  -7.198  1.00  0.00    -0.338 N
ATOM      9  H4  UNL     1      62.904   0.582  -7.460  1.00  0.00     0.168 HD
HETATM   10  C15 UNL     1      62.542   1.939  -5.949  1.00  0.00     0.119 A
HETATM   11  C22 UNL     1      61.908   3.122  -5.605  1.00  0.00     0.035 A
HETATM   12  C23 UNL     1      62.018   3.623  -4.306  1.00  0.00     0.029 A
ENDROOT
BRANCH   1  13
HETATM   13  C9  UNL     1      61.507   5.299  -2.611  1.00  0.00    -0.026 A
HETATM   14  C8  UNL     1      61.040   6.556  -2.260  1.00  0.00     0.013 A
HETATM   15  C7  UNL     1      61.166   7.027  -0.961  1.00  0.00     0.013 A
HETATM   16  C6  UNL     1      61.755   6.274   0.033  1.00  0.00    -0.026 A
HETATM   17  C25 UNL     1      62.221   5.020  -0.318  1.00  0.00     0.013 A
HETATM   18  C24 UNL     1      62.096   4.547  -1.619  1.00  0.00     0.013 A
BRANCH  16  19
HETATM   19  C5  UNL     1      61.884   6.775   1.396  1.00  0.00    -0.026 A
HETATM   20  C4  UNL     1      61.090   7.732   1.943  1.00  0.00     0.013 A
HETATM   21  C3  UNL     1      61.309   8.133   3.259  1.00  0.00     0.015 A
HETATM   22  C2  UNL     1      62.302   7.593   4.027  1.00  0.00     0.004 A
HETATM   23  C27 UNL     1      63.111   6.618   3.472  1.00  0.00     0.015 A
HETATM   24  C26 UNL     1      62.898   6.227   2.190  1.00  0.00     0.013 A
BRANCH  22  25
HETATM   25  C1  UNL     1      62.551   8.004   5.430  1.00  0.00     0.120 C
HETATM   26  N1  UNL     1      61.936   7.522   6.431  1.00  0.00    -0.387 N
ATOM     27  H12 UNL     1      62.107   7.805   7.395  1.00  0.00     0.157 HD
ATOM     28  H11 UNL     1      61.231   6.809   6.244  1.00  0.00     0.157 HD
HETATM   29  N2  UNL     1      63.535   9.000   5.689  1.00  0.00    -0.082 NA
ENDBRANCH  22  25
ENDBRANCH  16  19
ENDBRANCH   1  13
BRANCH  10  30
HETATM   30  N5  UNL     1      63.223   1.337  -5.033  1.00  0.00    -0.342 N
ATOM     31  H5  UNL     1      62.896   1.317  -4.067  1.00  0.00     0.167 HD
BRANCH  30  32
HETATM   32  C16 UNL     1      64.454   0.696  -5.409  1.00  0.00     0.033 A
HETATM   33  C17 UNL     1      65.408   1.369  -6.132  1.00  0.00     0.029 A
HETATM   34  C18 UNL     1      66.576   0.739  -6.479  1.00  0.00     0.002 A
HETATM   35  C19 UNL     1      66.830  -0.567  -6.121  1.00  0.00     0.000 A
HETATM   36  C20 UNL     1      65.868  -1.236  -5.396  1.00  0.00     0.002 A
HETATM   37  C21 UNL     1      64.705  -0.607  -5.050  1.00  0.00     0.029 A
ENDBRANCH  30  32
ENDBRANCH  10  30
TORSDOF 5
ENDMDL