MODEL 2
REMARK VINA RESULT: -4.087453915      1.802      2.868
REMARK  7 active torsions:
REMARK  status: ('A' for Active; 'I' for Inactive)
REMARK    1  A    between atoms: N1_1  and  C1_4
REMARK    2  A    between atoms: C5_10  and  C6_11
REMARK    3  A    between atoms: C6_11  and  O1_12
REMARK    4  A    between atoms: C6_11  and  C7_14
REMARK    5  A    between atoms: C8_15  and  C9_16
REMARK    6  A    between atoms: C16_23  and  C17_24
REMARK    7  A    between atoms: N3_30  and  C23_31
ROOT
HETATM    1  C7  UNL     1      63.941   1.508  -5.740  1.00  0.00     0.062 A
HETATM    2  C8  UNL     1      65.168   2.111  -5.736  1.00  0.00     0.002 A
HETATM    3  C15 UNL     1      64.957   3.383  -5.279  1.00  0.00     0.045 A
HETATM    4  C16 UNL     1      63.588   3.587  -4.990  1.00  0.00     0.051 A
HETATM    5  N3  UNL     1      63.022   2.425  -5.286  1.00  0.00    -0.311 N
ENDROOT
BRANCH   1   6
HETATM    6  C6  UNL     1      63.621   0.117  -6.162  1.00  0.00     0.206 C
BRANCH   6   7
HETATM    7  C5  UNL     1      62.478   0.062  -7.083  1.00  0.00     0.020 A
HETATM    8  C1  UNL     1      62.470   0.801  -8.234  1.00  0.00     0.107 A
HETATM    9  N2  UNL     1      61.385   0.745  -9.043  1.00  0.00    -0.352 N
HETATM   10  C2  UNL     1      60.330  -0.011  -8.743  1.00  0.00     0.089 A
ATOM     11  H2  UNL     1      61.375   1.295  -9.902  1.00  0.00     0.166 HD
HETATM   12  C3  UNL     1      60.260  -0.786  -7.602  1.00  0.00     0.018 A
HETATM   13  C4  UNL     1      61.364  -0.726  -6.783  1.00  0.00     0.015 A
BRANCH   8  14
HETATM   14  N1  UNL     1      63.427   1.535  -8.607  1.00  0.00    -0.385 N
ATOM     15  H12 UNL     1      64.115   1.262  -9.309  1.00  0.00     0.157 HD
ATOM     16  H11 UNL     1      63.496   2.459  -8.179  1.00  0.00     0.157 HD
ENDBRANCH   8  14
ENDBRANCH   6   7
BRANCH   6  17
HETATM   17  O1  UNL     1      63.458  -0.743  -5.104  1.00  0.00    -0.385 OA
ATOM     18  H1  UNL     1      64.262  -0.842  -4.607  1.00  0.00     0.211 HD
ENDBRANCH   6  17
ENDBRANCH   1   6
BRANCH   2  19
HETATM   19  C9  UNL     1      66.467   1.569  -6.109  1.00  0.00    -0.024 A
HETATM   20  C10 UNL     1      67.025   0.544  -5.330  1.00  0.00     0.012 A
HETATM   21  C11 UNL     1      68.235  -0.044  -5.613  1.00  0.00     0.001 A
HETATM   22  C12 UNL     1      68.919   0.411  -6.720  1.00  0.00     0.000 A
HETATM   23  C13 UNL     1      68.382   1.415  -7.490  1.00  0.00     0.001 A
HETATM   24  C14 UNL     1      67.162   2.009  -7.209  1.00  0.00     0.012 A
ENDBRANCH   2  19
BRANCH   5  25
HETATM   25  C23 UNL     1      61.627   2.107  -5.136  1.00  0.00     0.040 A
HETATM   26  C24 UNL     1      60.660   2.644  -5.998  1.00  0.00     0.030 A
HETATM   27  C25 UNL     1      59.314   2.386  -5.866  1.00  0.00     0.002 A
HETATM   28  C26 UNL     1      58.878   1.576  -4.861  1.00  0.00     0.000 A
HETATM   29  C27 UNL     1      59.793   1.028  -3.992  1.00  0.00     0.002 A
HETATM   30  C28 UNL     1      61.141   1.286  -4.123  1.00  0.00     0.030 A
ENDBRANCH   5  25
BRANCH   4  31
HETATM   31  C17 UNL     1      63.074   4.836  -4.435  1.00  0.00    -0.009 A
HETATM   32  C18 UNL     1      63.085   5.972  -5.273  1.00  0.00     0.014 A
HETATM   33  C19 UNL     1      62.597   7.192  -4.885  1.00  0.00     0.001 A
HETATM   34  C20 UNL     1      62.066   7.353  -3.631  1.00  0.00     0.000 A
HETATM   35  C21 UNL     1      62.047   6.260  -2.805  1.00  0.00     0.001 A
HETATM   36  C22 UNL     1      62.550   5.005  -3.208  1.00  0.00     0.014 A
ENDBRANCH   4  31
TORSDOF 7
ENDMDL