MODEL 3
REMARK VINA RESULT: -9.103879962      4.613     10.762
REMARK  12 active torsions:
REMARK  status: ('A' for Active; 'I' for Inactive)
REMARK    1  A    between atoms: O1_2  and  C2_3
REMARK    2  A    between atoms: C4_5  and  N1_6
REMARK    3  A    between atoms: N1_6  and  C5_8
REMARK    4  A    between atoms: C5_8  and  C6_9
REMARK    5  A    between atoms: C6_9  and  C7_10
REMARK    6  A    between atoms: N2_13  and  C10_14
REMARK    7  A    between atoms: C10_14  and  C11_15
REMARK    8  A    between atoms: C21_28  and  O2_29
REMARK    9  A    between atoms: O2_29  and  C22_30
REMARK   10  A    between atoms: C22_30  and  C23_31
REMARK   11  A    between atoms: C27_35  and  C28_36
REMARK   12  A    between atoms: C28_36  and  O3_37
ROOT
HETATM    1  C2  UNL     1     -16.609  20.810  18.641  1.00  0.00     0.103 A
HETATM    2  C3  UNL     1     -16.134  22.002  19.120  1.00  0.00     0.072 A
HETATM    3  C4  UNL     1     -15.220  22.771  18.427  1.00  0.00     0.070 A
HETATM    4  C19 UNL     1     -14.789  22.297  17.207  1.00  0.00     0.145 A
HETATM    5  F1  UNL     1     -13.896  23.051  16.526  1.00  0.00    -0.204 F
HETATM    6  C20 UNL     1     -15.268  21.084  16.710  1.00  0.00     0.084 A
HETATM    7  C21 UNL     1     -16.173  20.322  17.398  1.00  0.00     0.105 A
ENDROOT
BRANCH   3   8
HETATM    8  N1  UNL     1     -14.728  24.001  18.954  1.00  0.00    -0.387 N
ATOM      9  H1  UNL     1     -14.666  24.828  18.361  1.00  0.00     0.159 HD
BRANCH   8  10
HETATM   10  C5  UNL     1     -14.319  24.061  20.341  1.00  0.00     0.120 C
BRANCH  10  11
HETATM   11  C6  UNL     1     -12.881  24.503  20.480  1.00  0.00     0.024 C
BRANCH  11  12
HETATM   12  C7  UNL     1     -12.462  25.115  19.153  1.00  0.00    -0.010 C
HETATM   13  C8  UNL     1     -12.051  26.541  19.300  1.00  0.00     0.024 C
HETATM   14  C9  UNL     1     -11.007  26.952  18.340  1.00  0.00     0.117 C
HETATM   15  N2  UNL     1     -10.929  26.262  17.098  1.00  0.00    -0.408 N
HETATM   16  C17 UNL     1     -11.127  24.862  17.152  1.00  0.00     0.117 C
HETATM   17  C18 UNL     1     -11.278  24.341  18.570  1.00  0.00     0.024 C
BRANCH  15  18
HETATM   18  C10 UNL     1      -9.931  26.754  16.212  1.00  0.00     0.155 C
BRANCH  18  19
HETATM   19  C11 UNL     1     -10.517  26.964  14.863  1.00  0.00    -0.039 A
HETATM   20  C12 UNL     1     -10.948  28.224  14.468  1.00  0.00     0.010 A
HETATM   21  C13 UNL     1     -11.486  28.403  13.213  1.00  0.00     0.026 A
HETATM   22  C14 UNL     1     -11.621  27.380  12.316  1.00  0.00     0.055 A
HETATM   23 CL1  UNL     1     -12.299  27.613  10.741  1.00  0.00    -0.083 Cl
HETATM   24  C15 UNL     1     -11.197  26.112  12.687  1.00  0.00     0.056 A
HETATM   25 CL2  UNL     1     -11.363  24.795  11.554  1.00  0.00    -0.083 Cl
HETATM   26  C16 UNL     1     -10.657  25.942  13.952  1.00  0.00     0.034 A
ENDBRANCH  18  19
ENDBRANCH  15  18
ENDBRANCH  11  12
ENDBRANCH  10  11
ENDBRANCH   8  10
ENDBRANCH   3   8
BRANCH   1  27
HETATM   27  O1  UNL     1     -17.527  20.068  19.370  1.00  0.00    -0.353 OA
HETATM   28  C1  UNL     1     -18.786  20.536  19.768  1.00  0.00     0.210 C
ENDBRANCH   1  27
BRANCH   7  29
HETATM   29  O2  UNL     1     -16.680  19.151  16.998  1.00  0.00    -0.346 OA
BRANCH  29  30
HETATM   30  C22 UNL     1     -17.305  18.694  15.882  1.00  0.00     0.207 C
BRANCH  30  31
HETATM   31  C23 UNL     1     -18.448  17.720  16.118  1.00  0.00     0.146 C
HETATM   32  C24 UNL     1     -19.471  18.489  16.940  1.00  0.00     0.034 C
HETATM   33  C25 UNL     1     -20.118  17.526  17.883  1.00  0.00     0.003 C
HETATM   34  C26 UNL     1     -21.120  16.627  17.194  1.00  0.00     0.010 C
HETATM   35  C27 UNL     1     -20.572  15.930  16.006  1.00  0.00     0.043 C
HETATM   36  C29 UNL     1     -20.163  16.744  14.843  1.00  0.00     0.060 C
HETATM   37  C30 UNL     1     -21.237  17.699  14.360  1.00  0.00     0.046 C
HETATM   38  C31 UNL     1     -20.017  15.733  13.678  1.00  0.00     0.046 C
HETATM   39  O4  UNL     1     -18.979  17.406  14.896  1.00  0.00    -0.373 OA
BRANCH  35  40
HETATM   40  C28 UNL     1     -21.652  14.927  15.568  1.00  0.00     0.171 C
BRANCH  40  41
HETATM   41  O3  UNL     1     -22.651  14.989  16.546  1.00  0.00    -0.400 OA
ATOM     42  H3  UNL     1     -23.080  15.828  16.426  1.00  0.00     0.209 HD
ENDBRANCH  40  41
ENDBRANCH  35  40
ENDBRANCH  30  31
ENDBRANCH  29  30
ENDBRANCH   7  29
TORSDOF 12
ENDMDL