MODEL 2
REMARK VINA RESULT: -8.966557965      2.044      4.062
REMARK  12 active torsions:
REMARK  status: ('A' for Active; 'I' for Inactive)
REMARK       I    between atoms: C1_2  and  N1_3
REMARK    1  A    between atoms: C1_2  and  C12_19
REMARK    2  A    between atoms: N1_3  and  C2_5
REMARK    3  A    between atoms: C2_5  and  C3_6
REMARK    4  A    between atoms: C3_6  and  C4_7
REMARK    5  A    between atoms: C4_7  and  C5_8
REMARK    6  A    between atoms: C5_8  and  C6_9
REMARK    7  A    between atoms: C6_9  and  N2_10
REMARK    8  A    between atoms: N2_10  and  C7_12
REMARK    9  A    between atoms: C15_23  and  O2_24
REMARK   10  A    between atoms: O2_24  and  C16_25
REMARK   11  A    between atoms: C23_36  and  O5_37
REMARK   12  A    between atoms: O5_37  and  C24_38
ROOT
HETATM    1  C12 UNL     1     -15.884  20.204  16.069  1.00  0.00     0.036 A
HETATM    2  C13 UNL     1     -14.976  20.111  15.039  1.00  0.00     0.044 A
HETATM    3  C14 UNL     1     -13.817  20.839  15.047  1.00  0.00     0.071 A
HETATM    4 CL1  UNL     1     -12.681  20.568  13.718  1.00  0.00    -0.081 Cl
HETATM    5  C15 UNL     1     -13.546  21.695  16.114  1.00  0.00     0.131 A
HETATM    6  C23 UNL     1     -14.432  21.829  17.193  1.00  0.00     0.105 A
HETATM    7  C29 UNL     1     -15.610  21.032  17.097  1.00  0.00     0.057 A
ENDROOT
BRANCH   1   8
HETATM    8  C1  UNL     1     -17.135  19.382  15.984  1.00  0.00     0.251 C
HETATM    9  O1  UNL     1     -18.123  19.792  16.638  1.00  0.00    -0.268 OA
HETATM   10  N1  UNL     1     -17.109  18.242  15.203  1.00  0.00    -0.357 N
ATOM     11  H1  UNL     1     -16.204  18.110  14.752  1.00  0.00     0.162 HD
BRANCH  10  12
HETATM   12  C2  UNL     1     -18.018  17.213  14.870  1.00  0.00     0.123 C
BRANCH  12  13
HETATM   13  C3  UNL     1     -19.399  17.521  14.450  1.00  0.00     0.020 C
BRANCH  13  14
HETATM   14  C4  UNL     1     -20.518  17.453  15.401  1.00  0.00     0.003 C
BRANCH  14  15
HETATM   15  C5  UNL     1     -20.565  16.120  16.161  1.00  0.00     0.020 C
BRANCH  15  16
HETATM   16  C6  UNL     1     -20.690  16.415  17.660  1.00  0.00     0.119 C
BRANCH  16  17
HETATM   17  N2  UNL     1     -19.536  17.151  18.119  1.00  0.00    -0.390 N
ATOM     18  H2  UNL     1     -18.644  16.972  17.658  1.00  0.00     0.159 HD
BRANCH  17  19
HETATM   19  C7  UNL     1     -19.556  18.009  19.062  1.00  0.00     0.030 A
HETATM   20  C8  UNL     1     -20.781  18.569  19.375  1.00  0.00     0.046 A
HETATM   21  C9  UNL     1     -20.865  19.500  20.382  1.00  0.00     0.089 A
HETATM   22  N3  UNL     1     -19.758  19.875  21.074  1.00  0.00    -0.375 N
HETATM   23  C10 UNL     1     -18.553  19.350  20.796  1.00  0.00     0.089 A
ATOM     24  H3  UNL     1     -19.844  20.568  21.818  1.00  0.00     0.164 HD
HETATM   25  C11 UNL     1     -18.456  18.413  19.784  1.00  0.00     0.046 A
ENDBRANCH  17  19
ENDBRANCH  16  17
ENDBRANCH  15  16
ENDBRANCH  14  15
ENDBRANCH  13  14
ENDBRANCH  12  13
ENDBRANCH  10  12
ENDBRANCH   1   8
BRANCH   6  26
HETATM   26  O5  UNL     1     -14.296  22.584  18.239  1.00  0.00    -0.343 OA
BRANCH  26  27
HETATM   27  C24 UNL     1     -14.160  23.331  19.275  1.00  0.00     0.129 C
HETATM   28  C25 UNL     1     -14.763  22.784  20.589  1.00  0.00     0.032 C
HETATM   29  C26 UNL     1     -14.509  23.968  21.522  1.00  0.00     0.002 C
HETATM   30  C27 UNL     1     -15.100  25.085  20.679  1.00  0.00     0.002 C
HETATM   31  C28 UNL     1     -14.800  24.721  19.245  1.00  0.00     0.032 C
ENDBRANCH  26  27
ENDBRANCH   6  26
BRANCH   5  32
HETATM   32  O2  UNL     1     -12.408  22.389  16.057  1.00  0.00    -0.301 OA
BRANCH  32  33
HETATM   33  C16 UNL     1     -11.934  23.605  15.844  1.00  0.00     0.136 A
HETATM   34  C17 UNL     1     -11.862  24.252  14.651  1.00  0.00     0.092 A
HETATM   35 CL2  UNL     1     -12.488  23.518  13.213  1.00  0.00    -0.079 Cl
HETATM   36  C18 UNL     1     -11.337  25.538  14.495  1.00  0.00     0.061 A
HETATM   37 CL3  UNL     1     -11.280  26.298  12.918  1.00  0.00    -0.082 Cl
HETATM   38  C19 UNL     1     -10.856  26.218  15.588  1.00  0.00     0.065 A
HETATM   39  C20 UNL     1     -10.910  25.603  16.816  1.00  0.00     0.109 A
HETATM   40  C21 UNL     1     -11.429  24.342  16.948  1.00  0.00     0.140 A
HETATM   41  O4  UNL     1     -10.488  26.094  18.042  1.00  0.00    -0.323 OA
HETATM   42  O3  UNL     1     -11.344  24.007  18.279  1.00  0.00    -0.320 OA
HETATM   43  C22 UNL     1     -10.772  25.100  19.005  1.00  0.00     0.352 A
ENDBRANCH  32  33
ENDBRANCH   5  32
TORSDOF 12
ENDMDL