MODEL 2
REMARK VINA RESULT: -7.293213521      6.286      9.928
REMARK  12 active torsions:
REMARK  status: ('A' for Active; 'I' for Inactive)
REMARK    1  A    between atoms: C2_2  and  C3_3
REMARK    2  A    between atoms: C3_3  and  C4_4
REMARK    3  A    between atoms: C4_4  and  C5_5
REMARK    4  A    between atoms: C5_5  and  C6_6
REMARK    5  A    between atoms: C6_6  and  C7_7
REMARK    6  A    between atoms: C7_7  and  O1_8
REMARK    7  A    between atoms: O1_8  and  C8_9
REMARK    8  A    between atoms: C9_10  and  C10_11
REMARK    9  A    between atoms: N1_13  and  N2_15
REMARK       I    between atoms: N2_15  and  C12_17
REMARK   10  A    between atoms: C12_17  and  C13_19
REMARK   11  A    between atoms: C18_26  and  O3_27
REMARK   12  A    between atoms: C23_34  and  O4_35
ROOT
HETATM    1  C8  UNL     1     -20.526  17.707  18.461  1.00  0.00     0.114 A
HETATM    2  C9  UNL     1     -19.536  18.625  18.361  1.00  0.00     0.025 A
HETATM    3  C19 UNL     1     -18.747  18.575  17.206  1.00  0.00     0.041 A
HETATM    4  C20 UNL     1     -18.982  17.626  16.213  1.00  0.00     0.043 A
HETATM    5 CL1  UNL     1     -17.942  17.636  14.795  1.00  0.00    -0.084 Cl
HETATM    6  C21 UNL     1     -19.995  16.721  16.351  1.00  0.00    -0.004 A
HETATM    7  C22 UNL     1     -20.233  15.720  15.288  1.00  0.00     0.053 C
HETATM    8  C23 UNL     1     -20.782  16.751  17.480  1.00  0.00     0.110 A
ENDROOT
BRANCH   2   9
HETATM    9  C10 UNL     1     -19.313  19.731  19.256  1.00  0.00     0.035 C
HETATM   10  C11 UNL     1     -20.406  20.174  20.228  1.00  0.00     0.070 C
HETATM   11  N1  UNL     1     -18.311  20.467  19.304  1.00  0.00    -0.301 N
ATOM     12  H1  UNL     1     -18.494  21.136  20.051  1.00  0.00     0.186 HD
BRANCH  11  13
HETATM   13  N2  UNL     1     -17.123  20.776  18.829  1.00  0.00    -0.266 N
HETATM   14  C12 UNL     1     -16.856  21.576  17.655  1.00  0.00     0.272 C
HETATM   15  O2  UNL     1     -17.892  21.973  17.080  1.00  0.00    -0.266 OA
ATOM     16  H2  UNL     1     -16.314  20.419  19.338  1.00  0.00     0.190 HD
BRANCH  14  17
HETATM   17  C13 UNL     1     -15.553  21.907  17.162  1.00  0.00     0.069 A
HETATM   18  C14 UNL     1     -14.684  22.652  17.972  1.00  0.00     0.039 A
HETATM   19  C15 UNL     1     -13.417  23.034  17.564  1.00  0.00     0.013 A
HETATM   20 BR1  UNL     1     -12.277  24.057  18.720  1.00  0.00    -0.051 Br
HETATM   21  C16 UNL     1     -13.016  22.654  16.314  1.00  0.00     0.041 A
HETATM   22  C17 UNL     1     -13.817  21.932  15.487  1.00  0.00     0.046 A
HETATM   23 BR2  UNL     1     -13.225  21.424  13.751  1.00  0.00    -0.048 Br
HETATM   24  C18 UNL     1     -15.111  21.553  15.928  1.00  0.00     0.099 A
BRANCH  24  25
HETATM   25  O3  UNL     1     -15.836  20.837  15.040  1.00  0.00    -0.358 OA
ATOM     26  H3  UNL     1     -15.897  19.889  15.044  1.00  0.00     0.217 HD
ENDBRANCH  24  25
ENDBRANCH  14  17
ENDBRANCH  11  13
ENDBRANCH   2   9
BRANCH   1  27
HETATM   27  O1  UNL     1     -21.345  17.656  19.563  1.00  0.00    -0.347 OA
BRANCH  27  28
HETATM   28  C7  UNL     1     -21.075  16.783  20.637  1.00  0.00     0.176 C
BRANCH  28  29
HETATM   29  C6  UNL     1     -21.901  17.180  21.871  1.00  0.00     0.027 C
BRANCH  29  30
HETATM   30  C5  UNL     1     -23.328  17.431  21.444  1.00  0.00     0.002 C
BRANCH  30  31
HETATM   31  C4  UNL     1     -23.670  18.900  21.466  1.00  0.00     0.000 C
BRANCH  31  32
HETATM   32  C3  UNL     1     -24.253  19.397  20.183  1.00  0.00    -0.000 C
BRANCH  32  33
HETATM   33  C2  UNL     1     -25.054  18.245  19.583  1.00  0.00    -0.005 C
HETATM   34  C1  UNL     1     -26.240  18.722  18.806  1.00  0.00     0.005 C
ENDBRANCH  32  33
ENDBRANCH  31  32
ENDBRANCH  30  31
ENDBRANCH  29  30
ENDBRANCH  28  29
ENDBRANCH  27  28
ENDBRANCH   1  27
BRANCH   8  35
HETATM   35  O4  UNL     1     -21.774  15.826  17.551  1.00  0.00    -0.352 OA
HETATM   36  C24 UNL     1     -23.140  15.908  17.492  1.00  0.00     0.210 C
ENDBRANCH   8  35
TORSDOF 12
ENDMDL