MODEL 3
REMARK VINA RESULT: -8.613456462      3.081      8.756
REMARK  13 active torsions:
REMARK  status: ('A' for Active; 'I' for Inactive)
REMARK    1  A    between atoms: C2_2  and  C3_3
REMARK    2  A    between atoms: C3_3  and  C4_4
REMARK    3  A    between atoms: C4_4  and  C5_5
REMARK    4  A    between atoms: C5_5  and  C6_6
REMARK    5  A    between atoms: C6_6  and  N1_7
REMARK    6  A    between atoms: N1_7  and  C8_9
REMARK    7  A    between atoms: C8_9  and  C9_10
REMARK    8  A    between atoms: C9_10  and  O1_11
REMARK    9  A    between atoms: C9_10  and  C10_13
REMARK   10  A    between atoms: C10_13  and  O2_14
REMARK   11  A    between atoms: O2_14  and  C11_15
REMARK   12  A    between atoms: C16_23  and  N3_24
REMARK   13  A    between atoms: N3_24  and  C17_26
ROOT
HETATM    1  C11 UNL     1     -17.882  18.167  15.323  1.00  0.00     0.144 A
HETATM    2  C12 UNL     1     -18.283  18.025  16.679  1.00  0.00     0.080 A
HETATM    3  C13 UNL     1     -17.744  18.895  17.583  1.00  0.00     0.051 A
HETATM    4 CL1  UNL     1     -17.532  18.117  19.218  1.00  0.00    -0.083 Cl
HETATM    5  C14 UNL     1     -16.882  19.879  17.251  1.00  0.00     0.029 A
HETATM    6  C15 UNL     1     -16.497  19.969  15.890  1.00  0.00     0.091 A
HETATM    7  N2  UNL     1     -17.010  19.128  15.022  1.00  0.00    -0.333 N
ATOM      8  H2  UNL     1     -16.720  19.217  14.049  1.00  0.00     0.168 HD
HETATM    9  C16 UNL     1     -15.482  20.841  15.564  1.00  0.00     0.134 A
HETATM   10  N4  UNL     1     -14.909  21.571  16.510  1.00  0.00    -0.340 N
ATOM     11  H4  UNL     1     -14.154  22.194  16.223  1.00  0.00     0.167 HD
HETATM   12  C23 UNL     1     -15.233  21.562  17.808  1.00  0.00     0.047 A
HETATM   13  C24 UNL     1     -14.695  22.388  18.718  1.00  0.00     0.053 A
HETATM   14  C25 UNL     1     -15.116  22.460  20.019  1.00  0.00     0.047 A
HETATM   15  C26 UNL     1     -14.508  23.339  20.960  1.00  0.00     0.099 C
HETATM   16  N5  UNL     1     -14.015  24.039  21.737  1.00  0.00    -0.191 NA
HETATM   17  C27 UNL     1     -16.159  21.634  20.366  1.00  0.00     0.030 A
HETATM   18  C28 UNL     1     -16.771  20.737  19.460  1.00  0.00    -0.047 A
HETATM   19  C29 UNL     1     -18.202  20.404  19.772  1.00  0.00     0.049 C
HETATM   20  C30 UNL     1     -16.290  20.676  18.190  1.00  0.00     0.011 A
ENDROOT
BRANCH   9  21
HETATM   21  N3  UNL     1     -15.142  20.902  14.312  1.00  0.00    -0.341 N
ATOM     22  H3  UNL     1     -15.725  20.473  13.594  1.00  0.00     0.167 HD
BRANCH  21  23
HETATM   23  C17 UNL     1     -13.932  21.584  13.962  1.00  0.00     0.035 A
HETATM   24  C18 UNL     1     -12.730  20.953  13.747  1.00  0.00     0.031 A
HETATM   25  C19 UNL     1     -11.584  21.640  13.409  1.00  0.00     0.028 A
HETATM   26  C20 UNL     1     -11.597  23.017  13.272  1.00  0.00     0.055 A
HETATM   27 CL2  UNL     1     -10.146  23.908  12.841  1.00  0.00    -0.083 Cl
HETATM   28  C21 UNL     1     -12.796  23.663  13.486  1.00  0.00     0.058 A
HETATM   29 CL3  UNL     1     -12.807  25.411  13.309  1.00  0.00    -0.082 Cl
HETATM   30  C22 UNL     1     -13.938  22.977  13.821  1.00  0.00     0.055 A
ENDBRANCH  21  23
ENDBRANCH   9  21
BRANCH   1  31
HETATM   31  O2  UNL     1     -18.405  17.316  14.375  1.00  0.00    -0.333 OA
BRANCH  31  32
HETATM   32  C10 UNL     1     -19.810  17.274  14.204  1.00  0.00     0.214 C
BRANCH  32  33
HETATM   33  C9  UNL     1     -20.400  16.048  14.867  1.00  0.00     0.180 C
BRANCH  33  34
HETATM   34  C8  UNL     1     -21.900  15.988  14.670  1.00  0.00     0.096 C
BRANCH  34  35
HETATM   35  N1  UNL     1     -22.635  15.835  15.855  1.00  0.00    -0.376 N
HETATM   36  C7  UNL     1     -24.035  15.817  15.708  1.00  0.00     0.154 C
BRANCH  35  37
HETATM   37  C6  UNL     1     -22.037  15.416  17.037  1.00  0.00     0.062 C
BRANCH  37  38
HETATM   38  C5  UNL     1     -22.392  16.192  18.281  1.00  0.00     0.044 C
BRANCH  38  39
HETATM   39  C4  UNL     1     -21.079  16.721  18.822  1.00  0.00     0.005 C
BRANCH  39  40
HETATM   40  C3  UNL     1     -21.203  18.006  19.571  1.00  0.00     0.000 C
BRANCH  40  41
HETATM   41  C2  UNL     1     -20.716  17.866  20.974  1.00  0.00    -0.005 C
HETATM   42  C1  UNL     1     -21.722  17.097  21.798  1.00  0.00     0.005 C
ENDBRANCH  40  41
ENDBRANCH  39  40
ENDBRANCH  38  39
ENDBRANCH  37  38
ENDBRANCH  35  37
ENDBRANCH  34  35
ENDBRANCH  33  34
BRANCH  33  43
HETATM   43  O1  UNL     1     -19.769  14.929  14.354  1.00  0.00    -0.388 OA
ATOM     44  H1  UNL     1     -19.202  14.518  14.995  1.00  0.00     0.210 HD
ENDBRANCH  33  43
ENDBRANCH  32  33
ENDBRANCH  31  32
ENDBRANCH   1  31
TORSDOF 13
ENDMDL