MODEL 1
REMARK VINA RESULT: -8.445517650      0.000      0.000
REMARK  13 active torsions:
REMARK  status: ('A' for Active; 'I' for Inactive)
REMARK    1  A    between atoms: C2_2  and  O1_3
REMARK    2  A    between atoms: O1_3  and  C3_4
REMARK    3  A    between atoms: C5_6  and  C6_7
REMARK    4  A    between atoms: C7_8  and  C8_9
REMARK    5  A    between atoms: C10_11  and  C11_12
REMARK    6  A    between atoms: C11_12  and  O2_13
REMARK    7  A    between atoms: C11_12  and  N1_15
REMARK    8  A    between atoms: N1_15  and  C12_16
REMARK    9  A    between atoms: C17_23  and  C18_24
REMARK   10  A    between atoms: C21_30  and  N2_31
REMARK   11  A    between atoms: C25_35  and  O5_36
REMARK   12  A    between atoms: C27_38  and  O6_39
REMARK   13  A    between atoms: O6_39  and  C28_40
ROOT
HETATM    1  C8  UNL     1     -13.228  23.135  18.560  1.00  0.00    -0.009 A
HETATM    2  C9  UNL     1     -12.334  23.153  17.519  1.00  0.00     0.032 A
HETATM    3  C10 UNL     1     -11.407  24.189  17.325  1.00  0.00     0.052 A
HETATM    4  C19 UNL     1     -11.366  25.258  18.211  1.00  0.00     0.051 A
HETATM    5 CL3  UNL     1     -10.249  26.593  18.048  1.00  0.00    -0.083 Cl
HETATM    6  C20 UNL     1     -12.259  25.238  19.244  1.00  0.00     0.055 A
HETATM    7  C21 UNL     1     -13.170  24.224  19.435  1.00  0.00     0.041 A
ENDROOT
BRANCH   1   8
HETATM    8  C7  UNL     1     -14.180  22.062  18.786  1.00  0.00     0.014 C
HETATM    9  C6  UNL     1     -15.164  21.832  17.964  1.00  0.00     0.012 C
BRANCH   9  10
HETATM   10  C5  UNL     1     -16.161  20.773  18.124  1.00  0.00    -0.031 A
HETATM   11  C4  UNL     1     -16.356  19.783  17.170  1.00  0.00     0.051 A
HETATM   12  C3  UNL     1     -17.292  18.793  17.292  1.00  0.00     0.105 A
HETATM   13  C27 UNL     1     -18.075  18.789  18.423  1.00  0.00     0.135 A
HETATM   14  C25 UNL     1     -17.948  19.730  19.416  1.00  0.00     0.105 A
HETATM   15  C24 UNL     1     -16.970  20.718  19.229  1.00  0.00     0.051 A
BRANCH  12  16
HETATM   16  O1  UNL     1     -17.470  17.826  16.343  1.00  0.00    -0.349 OA
BRANCH  16  17
HETATM   17  C2  UNL     1     -17.747  17.967  14.993  1.00  0.00     0.171 C
HETATM   18  C1  UNL     1     -18.874  17.131  14.469  1.00  0.00     0.034 C
ENDBRANCH  16  17
ENDBRANCH  12  16
BRANCH  13  19
HETATM   19  O6  UNL     1     -19.027  17.799  18.565  1.00  0.00    -0.346 OA
BRANCH  19  20
HETATM   20  C28 UNL     1     -20.282  17.973  17.937  1.00  0.00     0.171 C
HETATM   21  C29 UNL     1     -20.894  16.634  17.564  1.00  0.00     0.034 C
ENDBRANCH  19  20
ENDBRANCH  13  19
BRANCH  14  22
HETATM   22  O5  UNL     1     -18.745  19.690  20.524  1.00  0.00    -0.353 OA
HETATM   23  C26 UNL     1     -19.919  20.416  20.746  1.00  0.00     0.210 C
ENDBRANCH  14  22
ENDBRANCH   9  10
ENDBRANCH   1   8
BRANCH   7  24
HETATM   24  N2  UNL     1     -14.107  24.271  20.498  1.00  0.00    -0.389 N
HETATM   25  C22 UNL     1     -15.290  25.134  20.353  1.00  0.00     0.149 C
HETATM   26  C23 UNL     1     -13.993  23.541  21.726  1.00  0.00     0.149 C
ENDBRANCH   7  24
BRANCH   3  27
HETATM   27  C11 UNL     1     -10.498  24.178  16.204  1.00  0.00     0.227 C
BRANCH  27  28
HETATM   28  O2  UNL     1      -9.451  23.430  16.489  1.00  0.00    -0.335 OA
ATOM     29  H2  UNL     1      -8.795  23.523  15.808  1.00  0.00     0.220 HD
ENDBRANCH  27  28
BRANCH  27  30
HETATM   30  N1  UNL     1     -10.585  24.801  14.989  1.00  0.00    -0.379 NA
BRANCH  30  31
HETATM   31  C12 UNL     1     -10.743  25.414  13.810  1.00  0.00     0.129 A
HETATM   32  C13 UNL     1     -11.032  24.683  12.628  1.00  0.00     0.048 A
HETATM   33  C14 UNL     1     -11.078  25.194  11.373  1.00  0.00     0.029 A
HETATM   34  C15 UNL     1     -10.827  26.522  11.210  1.00  0.00     0.057 A
HETATM   35 CL1  UNL     1     -10.872  27.229   9.627  1.00  0.00    -0.083 Cl
HETATM   36  C16 UNL     1     -10.538  27.311  12.292  1.00  0.00     0.076 A
HETATM   37 CL2  UNL     1     -10.226  29.019  12.017  1.00  0.00    -0.081 Cl
HETATM   38  C17 UNL     1     -10.498  26.762  13.576  1.00  0.00     0.104 A
BRANCH  38  39
HETATM   39  C18 UNL     1     -10.224  27.687  14.626  1.00  0.00     0.214 C
HETATM   40  O3  UNL     1     -11.039  28.393  15.208  1.00  0.00    -0.644 OA
HETATM   41  O4  UNL     1      -8.893  27.848  15.083  1.00  0.00    -0.644 OA
ENDBRANCH  38  39
ENDBRANCH  30  31
ENDBRANCH  27  30
ENDBRANCH   3  27
TORSDOF 13
ENDMDL