MODEL 3
REMARK VINA RESULT: -7.898837075      6.619     13.080
REMARK  11 active torsions:
REMARK  status: ('A' for Active; 'I' for Inactive)
REMARK    1  A    between atoms: C2_2  and  C3_3
REMARK    2  A    between atoms: C3_3  and  N1_4
REMARK    3  A    between atoms: C3_3  and  C22_32
REMARK       I    between atoms: N1_4  and  C4_6
REMARK    4  A    between atoms: C4_6  and  C5_8
REMARK    5  A    between atoms: C7_10  and  O2_11
REMARK    6  A    between atoms: O2_11  and  C8_12
REMARK    7  A    between atoms: C8_12  and  C9_13
REMARK    8  A    between atoms: C9_13  and  O3_14
REMARK    9  A    between atoms: C11_16  and  C12_17
REMARK   10  A    between atoms: C18_26  and  C19_27
REMARK   11  A    between atoms: C25_37  and  O4_38
ROOT
HETATM    1  C5  UNL     1     -23.215  16.185  17.424  1.00  0.00     0.103 A
HETATM    2  C6  UNL     1     -23.096  16.675  18.734  1.00  0.00     0.073 A
HETATM    3  C7  UNL     1     -24.187  16.952  19.507  1.00  0.00     0.084 A
HETATM    4  C11 UNL     1     -25.446  16.722  18.925  1.00  0.00     0.032 A
HETATM    5  C18 UNL     1     -25.562  16.243  17.645  1.00  0.00     0.027 A
HETATM    6  N2  UNL     1     -24.439  15.981  16.913  1.00  0.00    -0.354 N
ATOM      7  H2  UNL     1     -24.533  15.625  15.961  1.00  0.00     0.166 HD
ENDROOT
BRANCH   1   8
HETATM    8  C4  UNL     1     -21.990  15.920  16.687  1.00  0.00     0.269 C
HETATM    9  N1  UNL     1     -21.092  16.957  16.335  1.00  0.00    -0.344 N
ATOM     10  H1  UNL     1     -21.330  17.908  16.617  1.00  0.00     0.163 HD
HETATM   11  O1  UNL     1     -21.679  14.761  16.332  1.00  0.00    -0.266 OA
BRANCH   9  12
HETATM   12  C3  UNL     1     -19.876  16.761  15.614  1.00  0.00     0.152 C
BRANCH  12  13
HETATM   13  C2  UNL     1     -20.151  16.972  14.119  1.00  0.00     0.028 C
HETATM   14  C1  UNL     1     -20.051  15.630  13.406  1.00  0.00     0.007 C
ENDBRANCH  12  13
BRANCH  12  15
HETATM   15  C22 UNL     1     -18.750  17.618  16.058  1.00  0.00     0.105 A
HETATM   16  N3  UNL     1     -18.334  17.906  17.297  1.00  0.00    -0.342 N
HETATM   17  C23 UNL     1     -17.270  18.724  17.285  1.00  0.00     0.063 A
ATOM     18  H3  UNL     1     -18.771  17.548  18.147  1.00  0.00     0.167 HD
HETATM   19  C24 UNL     1     -16.475  19.308  18.255  1.00  0.00     0.068 A
HETATM   20  C29 UNL     1     -17.000  18.967  15.954  1.00  0.00     0.060 A
HETATM   21  C25 UNL     1     -15.411  20.131  17.958  1.00  0.00     0.070 A
HETATM   22  C27 UNL     1     -15.152  20.366  16.622  1.00  0.00     0.039 A
HETATM   23  C28 UNL     1     -15.941  19.788  15.629  1.00  0.00     0.035 A
HETATM   24  N4  UNL     1     -17.913  18.284  15.235  1.00  0.00    -0.342 N
ATOM     25  H4  UNL     1     -17.965  18.271  14.217  1.00  0.00     0.167 HD
BRANCH  21  26
HETATM   26  O4  UNL     1     -14.603  20.723  18.919  1.00  0.00    -0.356 OA
HETATM   27  C26 UNL     1     -15.146  21.729  19.764  1.00  0.00     0.210 C
ENDBRANCH  21  26
ENDBRANCH  12  15
ENDBRANCH   9  12
ENDBRANCH   1   8
BRANCH   3  28
HETATM   28  O2  UNL     1     -24.107  17.420  20.762  1.00  0.00    -0.348 OA
BRANCH  28  29
HETATM   29  C8  UNL     1     -23.130  17.869  21.595  1.00  0.00     0.201 C
BRANCH  29  30
HETATM   30  C9  UNL     1     -22.212  18.941  21.093  1.00  0.00     0.193 C
BRANCH  30  31
HETATM   31  O3  UNL     1     -20.911  18.532  20.861  1.00  0.00    -0.394 OA
HETATM   32  C10 UNL     1     -20.086  19.611  20.639  1.00  0.00     0.201 C
ENDBRANCH  30  31
ENDBRANCH  29  30
ENDBRANCH  28  29
ENDBRANCH   3  28
BRANCH   5  33
HETATM   33  C19 UNL     1     -26.910  15.999  17.065  1.00  0.00     0.028 C
HETATM   34  C20 UNL     1     -27.335  17.166  16.184  1.00  0.00     0.016 C
HETATM   35  C21 UNL     1     -26.828  14.775  16.147  1.00  0.00     0.016 C
ENDBRANCH   5  33
BRANCH   4  36
HETATM   36  C12 UNL     1     -26.600  17.049  19.785  1.00  0.00     0.002 A
HETATM   37  C13 UNL     1     -27.216  16.099  20.568  1.00  0.00     0.039 A
HETATM   38  C14 UNL     1     -28.288  16.370  21.396  1.00  0.00     0.056 A
HETATM   39 CL1  UNL     1     -29.028  15.122  22.368  1.00  0.00    -0.083 Cl
HETATM   40  C15 UNL     1     -28.775  17.653  21.448  1.00  0.00     0.057 A
HETATM   41 CL2  UNL     1     -30.133  18.065  22.475  1.00  0.00    -0.082 Cl
HETATM   42  C16 UNL     1     -28.164  18.615  20.665  1.00  0.00     0.050 A
HETATM   43  C17 UNL     1     -27.097  18.333  19.844  1.00  0.00     0.047 A
HETATM   44 CL3  UNL     1     -26.406  19.623  18.901  1.00  0.00    -0.083 Cl
ENDBRANCH   4  36
TORSDOF 11
ENDMDL