MODEL 4
REMARK VINA RESULT: -10.215285492      0.916      2.556
REMARK  11 active torsions:
REMARK  status: ('A' for Active; 'I' for Inactive)
REMARK    1  A    between atoms: C2_2  and  C3_3
REMARK    2  A    between atoms: C5_5  and  C6_6
REMARK    3  A    between atoms: C6_6  and  N1_7
REMARK    4  A    between atoms: N1_7  and  C7_8
REMARK    5  A    between atoms: N1_7  and  C20_27
REMARK    6  A    between atoms: C7_8  and  C8_9
REMARK    7  A    between atoms: C8_9  and  C9_10
REMARK    8  A    between atoms: N2_11  and  C10_13
REMARK    9  A    between atoms: C20_27  and  C21_28
REMARK   10  A    between atoms: C28_38  and  O1_39
REMARK   11  A    between atoms: C30_41  and  O2_42
ROOT
HETATM    1  C10 UNL     1     -19.505  17.865  17.579  1.00  0.00     0.066 A
HETATM    2  C11 UNL     1     -20.203  17.427  18.728  1.00  0.00     0.087 A
HETATM    3  C12 UNL     1     -19.997  18.084  19.988  1.00  0.00     0.103 C
HETATM    4  N3  UNL     1     -19.845  18.612  21.021  1.00  0.00    -0.191 NA
HETATM    5  C13 UNL     1     -21.068  16.377  18.618  1.00  0.00     0.113 A
HETATM    6  N4  UNL     1     -21.261  15.763  17.441  1.00  0.00    -0.364 N
ATOM      7  H4  UNL     1     -21.913  14.982  17.382  1.00  0.00     0.165 HD
HETATM    8  C14 UNL     1     -20.612  16.161  16.348  1.00  0.00     0.046 A
HETATM    9  C15 UNL     1     -20.878  15.459  15.170  1.00  0.00     0.054 A
HETATM   10  C16 UNL     1     -20.253  15.804  13.991  1.00  0.00     0.036 A
HETATM   11 CL1  UNL     1     -20.569  14.938  12.488  1.00  0.00    -0.084 Cl
HETATM   12  C17 UNL     1     -19.368  16.859  14.044  1.00  0.00     0.025 A
HETATM   13  C18 UNL     1     -19.095  17.559  15.199  1.00  0.00     0.018 A
HETATM   14  C19 UNL     1     -19.724  17.209  16.370  1.00  0.00     0.019 A
ENDROOT
BRANCH   1  15
HETATM   15  N2  UNL     1     -18.746  18.795  17.700  1.00  0.00    -0.367 N
HETATM   16  C9  UNL     1     -18.066  19.916  17.393  1.00  0.00     0.063 C
ATOM     17  H2  UNL     1     -18.390  18.619  18.640  1.00  0.00     0.165 HD
BRANCH  16  18
HETATM   18  C8  UNL     1     -16.763  19.722  16.604  1.00  0.00     0.064 C
BRANCH  18  19
HETATM   19  C7  UNL     1     -16.389  21.006  15.893  1.00  0.00     0.122 C
BRANCH  19  20
HETATM   20  N1  UNL     1     -14.995  21.267  15.899  1.00  0.00    -0.404 N
BRANCH  20  21
HETATM   21  C6  UNL     1     -14.315  20.951  17.102  1.00  0.00     0.156 C
BRANCH  21  22
HETATM   22  C5  UNL     1     -13.923  22.191  17.805  1.00  0.00    -0.037 A
HETATM   23  C4  UNL     1     -12.723  22.782  17.497  1.00  0.00     0.019 A
HETATM   24  C3  UNL     1     -12.284  23.942  18.118  1.00  0.00    -0.022 A
HETATM   25  C30 UNL     1     -13.118  24.481  19.070  1.00  0.00     0.107 A
HETATM   26  C28 UNL     1     -14.340  23.922  19.418  1.00  0.00     0.102 A
HETATM   27  C27 UNL     1     -14.732  22.751  18.759  1.00  0.00     0.048 A
BRANCH  24  28
HETATM   28  C2  UNL     1     -10.976  24.528  17.730  1.00  0.00     0.037 C
HETATM   29  C1  UNL     1     -10.165  23.647  16.834  1.00  0.00     0.010 C
ENDBRANCH  24  28
BRANCH  25  30
HETATM   30  O2  UNL     1     -12.739  25.638  19.728  1.00  0.00    -0.353 OA
HETATM   31  C31 UNL     1     -12.092  25.687  20.970  1.00  0.00     0.210 C
ENDBRANCH  25  30
BRANCH  26  32
HETATM   32  O1  UNL     1     -15.137  24.504  20.382  1.00  0.00    -0.353 OA
HETATM   33  C29 UNL     1     -15.220  23.932  21.659  1.00  0.00     0.210 C
ENDBRANCH  26  32
ENDBRANCH  21  22
ENDBRANCH  20  21
BRANCH  20  34
HETATM   34  C20 UNL     1     -14.360  20.890  14.679  1.00  0.00     0.156 C
BRANCH  34  35
HETATM   35  C21 UNL     1     -13.274  21.791  14.236  1.00  0.00    -0.037 A
HETATM   36  C22 UNL     1     -12.011  21.272  14.078  1.00  0.00     0.034 A
HETATM   37  C23 UNL     1     -10.999  22.109  13.666  1.00  0.00     0.060 A
HETATM   38 CL2  UNL     1      -9.365  21.474  13.453  1.00  0.00    -0.082 Cl
HETATM   39  C24 UNL     1     -11.192  23.449  13.405  1.00  0.00     0.089 A
HETATM   40  N5  UNL     1     -10.133  24.290  12.983  1.00  0.00    -0.099 NA
HETATM   41  C25 UNL     1     -12.466  23.970  13.565  1.00  0.00     0.060 A
HETATM   42 CL3  UNL     1     -12.728  25.674  13.236  1.00  0.00    -0.082 Cl
HETATM   43  C26 UNL     1     -13.483  23.127  13.979  1.00  0.00     0.034 A
ENDBRANCH  34  35
ENDBRANCH  20  34
ENDBRANCH  19  20
ENDBRANCH  18  19
ENDBRANCH  16  18
ENDBRANCH   1  15
TORSDOF 11
ENDMDL