MODEL 4
REMARK VINA RESULT: -8.534547589      3.920      7.315
REMARK  11 active torsions:
REMARK  status: ('A' for Active; 'I' for Inactive)
REMARK    1  A    between atoms: C3_7  and  C4_8
REMARK    2  A    between atoms: C4_8  and  N3_9
REMARK    3  A    between atoms: N3_9  and  C5_11
REMARK    4  A    between atoms: C9_15  and  O1_16
REMARK    5  A    between atoms: O1_16  and  C10_17
REMARK    6  A    between atoms: C10_17  and  C11_18
REMARK    7  A    between atoms: C16_24  and  C17_25
REMARK    8  A    between atoms: C17_25  and  C19_27
REMARK    9  A    between atoms: C17_25  and  C28_38
REMARK   10  A    between atoms: N5_29  and  C21_31
REMARK   11  A    between atoms: C21_31  and  C22_32
ROOT
HETATM    1  C11 UNL     1     -23.444  15.801  17.038  1.00  0.00    -0.025 A
HETATM    2  C12 UNL     1     -22.418  15.975  17.937  1.00  0.00     0.033 A
HETATM    3  C13 UNL     1     -22.734  16.361  19.226  1.00  0.00     0.034 A
HETATM    4 CL1  UNL     1     -21.416  16.582  20.361  1.00  0.00    -0.084 Cl
HETATM    5  C14 UNL     1     -24.045  16.555  19.564  1.00  0.00     0.024 A
HETATM    6  C15 UNL     1     -25.054  16.357  18.601  1.00  0.00     0.011 A
HETATM    7  C16 UNL     1     -24.800  15.970  17.304  1.00  0.00    -0.031 A
ENDROOT
BRANCH   1   8
HETATM    8  C10 UNL     1     -23.063  15.701  15.626  1.00  0.00     0.215 C
BRANCH   8   9
HETATM    9  O1  UNL     1     -22.055  16.490  15.154  1.00  0.00    -0.346 OA
BRANCH   9  10
HETATM   10  C9  UNL     1     -20.862  16.945  15.352  1.00  0.00     0.078 A
HETATM   11  C7  UNL     1     -19.824  16.543  14.517  1.00  0.00    -0.026 A
HETATM   12  C6  UNL     1     -18.538  17.006  14.704  1.00  0.00     0.041 A
HETATM   13  C8  UNL     1     -20.054  15.604  13.389  1.00  0.00     0.051 C
HETATM   14  C5  UNL     1     -18.231  17.888  15.729  1.00  0.00     0.068 A
HETATM   15  C32 UNL     1     -19.244  18.298  16.567  1.00  0.00     0.145 A
HETATM   16  C31 UNL     1     -20.512  17.816  16.349  1.00  0.00     0.082 A
HETATM   17  F2  UNL     1     -19.009  19.153  17.580  1.00  0.00    -0.204 F
BRANCH  14  18
HETATM   18  N3  UNL     1     -16.919  18.369  15.963  1.00  0.00    -0.380 N
ATOM     19  H3  UNL     1     -16.216  17.693  16.261  1.00  0.00     0.160 HD
BRANCH  18  20
HETATM   20  C4  UNL     1     -16.499  19.747  15.812  1.00  0.00     0.206 C
BRANCH  20  21
HETATM   21  C3  UNL     1     -15.887  20.197  17.112  1.00  0.00     0.158 A
HETATM   22  N2  UNL     1     -15.110  19.400  17.885  1.00  0.00    -0.280 N
HETATM   23  N1  UNL     1     -14.743  20.098  18.937  1.00  0.00    -0.282 N
ATOM     24  H2  UNL     1     -14.855  18.433  17.687  1.00  0.00     0.189 HD
HETATM   25  C2  UNL     1     -15.288  21.325  18.823  1.00  0.00     0.136 A
ATOM     26  H1  UNL     1     -14.153  19.770  19.702  1.00  0.00     0.189 HD
HETATM   27  C1  UNL     1     -15.070  22.378  19.860  1.00  0.00     0.099 C
HETATM   28  O2  UNL     1     -15.970  21.349  17.714  1.00  0.00    -0.281 OA
ENDBRANCH  20  21
ENDBRANCH  18  20
ENDBRANCH  14  18
ENDBRANCH   9  10
ENDBRANCH   8   9
ENDBRANCH   1   8
BRANCH   7  29
HETATM   29  C17 UNL     1     -25.899  15.494  16.461  1.00  0.00     0.075 C
HETATM   30  C18 UNL     1     -25.967  15.614  15.047  1.00  0.00     0.032 C
BRANCH  29  31
HETATM   31  C19 UNL     1     -27.060  16.392  16.910  1.00  0.00     0.107 C
HETATM   32  N4  UNL     1     -27.419  17.130  15.798  1.00  0.00    -0.086 NA
HETATM   33  N5  UNL     1     -27.871  16.646  17.932  1.00  0.00    -0.376 N
HETATM   34  C20 UNL     1     -28.619  15.609  18.628  1.00  0.00     0.150 C
BRANCH  33  35
HETATM   35  C21 UNL     1     -28.240  17.974  18.380  1.00  0.00     0.128 C
BRANCH  35  36
HETATM   36  C22 UNL     1     -27.404  18.740  19.296  1.00  0.00     0.003 C
HETATM   37  C23 UNL     1     -26.395  19.693  18.722  1.00  0.00     0.006 C
HETATM   38  C24 UNL     1     -25.383  20.017  19.820  1.00  0.00     0.000 C
HETATM   39  C25 UNL     1     -25.674  19.361  21.125  1.00  0.00     0.000 C
HETATM   40  C26 UNL     1     -27.084  19.471  21.609  1.00  0.00     0.000 C
HETATM   41  C27 UNL     1     -28.069  19.419  20.456  1.00  0.00     0.006 C
ENDBRANCH  35  36
ENDBRANCH  33  35
ENDBRANCH  29  31
BRANCH  29  42
HETATM   42  C28 UNL     1     -26.258  14.089  16.946  1.00  0.00     0.114 C
HETATM   43  C29 UNL     1     -25.413  12.939  16.456  1.00  0.00     0.053 C
HETATM   44  C30 UNL     1     -27.616  13.648  16.317  1.00  0.00     0.053 C
HETATM   45  F1  UNL     1     -26.371  13.949  18.273  1.00  0.00    -0.242 F
ENDBRANCH  29  42
ENDBRANCH   7  29
TORSDOF 11
ENDMDL