MODEL 1
REMARK VINA RESULT: -8.704247405      0.000      0.000
REMARK  12 active torsions:
REMARK  status: ('A' for Active; 'I' for Inactive)
REMARK    1  A    between atoms: C2_2  and  C3_3
REMARK    2  A    between atoms: C3_3  and  C4_4
REMARK    3  A    between atoms: C4_4  and  O1_5
REMARK    4  A    between atoms: O1_5  and  C5_6
REMARK    5  A    between atoms: C5_6  and  C6_7
REMARK    6  A    between atoms: C6_7  and  N1_8
REMARK    7  A    between atoms: N2_11  and  C9_12
REMARK    8  A    between atoms: C12_17  and  S1_18
REMARK    9  A    between atoms: S1_18  and  C13_19
REMARK   10  A    between atoms: C16_23  and  C17_24
REMARK       I    between atoms: C17_24  and  N4_26
REMARK   11  A    between atoms: N4_26  and  C18_28
REMARK   12  A    between atoms: C21_31  and  C22_32
ROOT
HETATM    1  C9  UNL     1     -16.175  20.141  17.345  1.00  0.00     0.055 A
HETATM    2  C10 UNL     1     -14.968  20.272  16.666  1.00  0.00     0.063 A
HETATM    3  C11 UNL     1     -14.167  21.370  16.799  1.00  0.00     0.063 A
HETATM    4  N3  UNL     1     -12.976  21.762  16.280  1.00  0.00    -0.335 N
ATOM      5  H3  UNL     1     -12.410  21.228  15.620  1.00  0.00     0.168 HD
HETATM    6  C12 UNL     1     -12.664  22.967  16.779  1.00  0.00     0.150 A
HETATM    7  N5  UNL     1     -13.660  23.324  17.607  1.00  0.00    -0.335 N
ATOM      8  H5  UNL     1     -13.696  24.199  18.131  1.00  0.00     0.168 HD
HETATM    9  C25 UNL     1     -14.604  22.367  17.646  1.00  0.00     0.062 A
HETATM   10  C26 UNL     1     -15.788  22.285  18.339  1.00  0.00     0.058 A
HETATM   11  C27 UNL     1     -16.561  21.157  18.173  1.00  0.00     0.062 A
HETATM   12 CL2  UNL     1     -18.066  21.080  19.072  1.00  0.00    -0.082 Cl
ENDROOT
BRANCH   6  13
HETATM   13  S1  UNL     1     -11.239  23.985  16.463  1.00  0.00    -0.052 SA
BRANCH  13  14
HETATM   14  C13 UNL     1     -11.249  24.709  14.854  1.00  0.00     0.036 A
HETATM   15  C14 UNL     1     -11.186  26.083  14.759  1.00  0.00     0.052 A
HETATM   16 CL1  UNL     1     -11.098  27.107  16.196  1.00  0.00    -0.083 Cl
HETATM   17  C15 UNL     1     -11.188  26.736  13.546  1.00  0.00     0.042 A
HETATM   18  C16 UNL     1     -11.255  25.990  12.365  1.00  0.00     0.034 A
HETATM   19  C20 UNL     1     -11.318  24.623  12.493  1.00  0.00     0.026 A
HETATM   20  C21 UNL     1     -11.317  23.955  13.706  1.00  0.00    -0.035 A
BRANCH  18  21
HETATM   21  C17 UNL     1     -11.256  26.686  11.082  1.00  0.00     0.251 C
HETATM   22  O2  UNL     1     -10.351  26.444  10.220  1.00  0.00    -0.268 OA
HETATM   23  N4  UNL     1     -12.232  27.648  10.716  1.00  0.00    -0.357 N
ATOM     24  H4  UNL     1     -12.972  27.868  11.382  1.00  0.00     0.162 HD
BRANCH  23  25
HETATM   25  C18 UNL     1     -12.225  28.329   9.447  1.00  0.00     0.118 C
HETATM   26  C19 UNL     1     -13.570  28.254   8.762  1.00  0.00     0.026 C
ENDBRANCH  23  25
ENDBRANCH  18  21
BRANCH  20  27
HETATM   27  C22 UNL     1     -11.388  22.457  13.759  1.00  0.00     0.012 C
HETATM   28  C23 UNL     1     -10.024  21.851  13.502  1.00  0.00     0.015 C
HETATM   29  C24 UNL     1     -12.443  21.890  12.862  1.00  0.00     0.015 C
ENDBRANCH  20  27
ENDBRANCH  13  14
ENDBRANCH   6  13
BRANCH   1  30
HETATM   30  N2  UNL     1     -16.988  18.977  17.174  1.00  0.00    -0.370 N
HETATM   31  C8  UNL     1     -17.773  18.777  15.981  1.00  0.00     0.168 C
HETATM   32  C7  UNL     1     -19.126  18.279  16.311  1.00  0.00     0.083 C
HETATM   33  N1  UNL     1     -19.429  17.933  17.622  1.00  0.00    -0.369 N
HETATM   34  C29 UNL     1     -18.456  17.625  18.567  1.00  0.00     0.083 C
HETATM   35  C28 UNL     1     -17.048  17.945  18.186  1.00  0.00     0.168 C
BRANCH  33  36
HETATM   36  C6  UNL     1     -20.808  17.930  18.032  1.00  0.00     0.153 C
BRANCH  36  37
HETATM   37  C5  UNL     1     -21.166  16.560  18.500  1.00  0.00     0.187 C
BRANCH  37  38
HETATM   38  O1  UNL     1     -21.361  15.626  17.606  1.00  0.00    -0.390 OA
BRANCH  38  39
HETATM   39  C4  UNL     1     -22.299  15.389  16.725  1.00  0.00     0.167 C
BRANCH  39  40
HETATM   40  C3  UNL     1     -22.035  15.579  15.263  1.00  0.00     0.026 C
BRANCH  40  41
HETATM   41  C2  UNL     1     -20.553  15.224  14.998  1.00  0.00    -0.002 C
HETATM   42  C1  UNL     1     -20.176  15.568  13.577  1.00  0.00     0.005 C
ENDBRANCH  40  41
ENDBRANCH  39  40
ENDBRANCH  38  39
ENDBRANCH  37  38
ENDBRANCH  36  37
ENDBRANCH  33  36
ENDBRANCH   1  30
TORSDOF 12
ENDMDL