MODEL 3
REMARK VINA RESULT: -9.467081444      1.179      1.639
REMARK  12 active torsions:
REMARK  status: ('A' for Active; 'I' for Inactive)
REMARK    1  A    between atoms: O1_2  and  C2_3
REMARK    2  A    between atoms: C4_5  and  C5_6
REMARK    3  A    between atoms: C5_6  and  N1_7
REMARK    4  A    between atoms: N1_7  and  C7_9
REMARK    5  A    between atoms: C7_9  and  C8_10
REMARK    6  A    between atoms: C8_10  and  O2_11
REMARK    7  A    between atoms: C8_10  and  C9_13
REMARK    8  A    between atoms: C9_13  and  S1_14
REMARK    9  A    between atoms: S1_14  and  C10_15
REMARK   10  A    between atoms: C15_21  and  N2_22
REMARK       I    between atoms: N2_22  and  C16_24
REMARK   11  A    between atoms: C16_24  and  C17_26
REMARK   12  A    between atoms: C27_38  and  O4_39
ROOT
HETATM    1  C10 UNL     1     -19.095  18.046  16.323  1.00  0.00     0.027 A
HETATM    2  C11 UNL     1     -18.167  17.853  15.321  1.00  0.00     0.022 A
HETATM    3  C12 UNL     1     -18.438  17.018  14.267  1.00  0.00     0.025 A
HETATM    4  C13 UNL     1     -19.651  16.367  14.210  1.00  0.00     0.036 A
HETATM    5 CL1  UNL     1     -20.038  15.296  12.887  1.00  0.00    -0.084 Cl
HETATM    6  C14 UNL     1     -20.613  16.542  15.210  1.00  0.00     0.054 A
HETATM    7  C15 UNL     1     -20.324  17.373  16.245  1.00  0.00     0.053 A
ENDROOT
BRANCH   1   8
HETATM    8  S1  UNL     1     -18.754  19.128  17.695  1.00  0.00    -0.125 SA
BRANCH   8   9
HETATM    9  C9  UNL     1     -17.006  19.539  17.787  1.00  0.00     0.113 C
BRANCH   9  10
HETATM   10  C8  UNL     1     -16.644  20.877  17.218  1.00  0.00     0.145 C
BRANCH  10  11
HETATM   11  C7  UNL     1     -15.921  20.711  15.870  1.00  0.00     0.154 C
BRANCH  11  12
HETATM   12  N1  UNL     1     -14.538  20.951  16.091  1.00  0.00    -0.391 N
HETATM   13  C6  UNL     1     -13.644  19.979  15.585  1.00  0.00     0.148 C
BRANCH  12  14
HETATM   14  C5  UNL     1     -14.116  22.295  16.054  1.00  0.00     0.096 C
BRANCH  14  15
HETATM   15  C4  UNL     1     -13.647  22.903  17.289  1.00  0.00    -0.017 A
HETATM   16  C3  UNL     1     -12.399  23.532  17.233  1.00  0.00     0.052 A
HETATM   17  C2  UNL     1     -11.831  24.149  18.310  1.00  0.00     0.104 A
HETATM   18  C27 UNL     1     -12.512  24.161  19.524  1.00  0.00     0.123 A
HETATM   19  C26 UNL     1     -13.733  23.547  19.582  1.00  0.00     0.071 A
HETATM   20  C25 UNL     1     -14.302  22.928  18.498  1.00  0.00     0.039 A
HETATM   21 CL3  UNL     1     -14.618  23.545  21.101  1.00  0.00    -0.081 Cl
BRANCH  17  22
HETATM   22  O1  UNL     1     -10.598  24.784  18.305  1.00  0.00    -0.353 OA
HETATM   23  C1  UNL     1     -10.331  26.033  17.736  1.00  0.00     0.210 C
ENDBRANCH  17  22
BRANCH  18  24
HETATM   24  O4  UNL     1     -12.009  24.761  20.660  1.00  0.00    -0.351 OA
HETATM   25  C28 UNL     1     -12.261  26.120  20.911  1.00  0.00     0.210 C
ENDBRANCH  18  24
ENDBRANCH  14  15
ENDBRANCH  12  14
ENDBRANCH  11  12
ENDBRANCH  10  11
BRANCH  10  26
HETATM   26  O2  UNL     1     -17.805  21.625  17.020  1.00  0.00    -0.393 OA
ATOM     27  H2  UNL     1     -17.658  22.511  17.327  1.00  0.00     0.210 HD
ENDBRANCH  10  26
ENDBRANCH   9  10
ENDBRANCH   8   9
ENDBRANCH   1   8
BRANCH   7  28
HETATM   28  N2  UNL     1     -21.235  17.609  17.296  1.00  0.00    -0.322 N
HETATM   29  C16 UNL     1     -21.636  16.771  18.340  1.00  0.00     0.258 C
HETATM   30  O3  UNL     1     -21.133  15.610  18.438  1.00  0.00    -0.267 OA
ATOM     31  H2  UNL     1     -21.666  18.532  17.293  1.00  0.00     0.169 HD
BRANCH  29  32
HETATM   32  C17 UNL     1     -22.607  17.075  19.393  1.00  0.00     0.059 A
HETATM   33  C18 UNL     1     -23.952  16.947  19.305  1.00  0.00    -0.044 A
HETATM   34  C19 UNL     1     -24.621  16.320  18.131  1.00  0.00     0.049 C
HETATM   35  C20 UNL     1     -24.773  17.358  20.374  1.00  0.00     0.014 A
HETATM   36  C21 UNL     1     -24.271  17.888  21.526  1.00  0.00    -0.060 A
HETATM   37  C22 UNL     1     -25.184  18.313  22.640  1.00  0.00     0.048 C
HETATM   38  C23 UNL     1     -22.907  18.022  21.632  1.00  0.00     0.031 A
HETATM   39  C24 UNL     1     -22.114  17.627  20.599  1.00  0.00     0.050 A
HETATM   40 CL2  UNL     1     -20.381  17.814  20.770  1.00  0.00    -0.083 Cl
ENDBRANCH  29  32
ENDBRANCH   7  28
TORSDOF 12
ENDMDL