MODEL 1
REMARK VINA RESULT: -10.165335545      0.000      0.000
REMARK  12 active torsions:
REMARK  status: ('A' for Active; 'I' for Inactive)
REMARK    1  A    between atoms: O1_2  and  C2_3
REMARK    2  A    between atoms: C5_7  and  N1_8
REMARK       I    between atoms: N1_8  and  C6_9
REMARK    3  A    between atoms: C6_9  and  C7_11
REMARK    4  A    between atoms: C7_11  and  O3_12
REMARK    5  A    between atoms: O3_12  and  C8_13
REMARK    6  A    between atoms: C11_16  and  C12_17
REMARK    7  A    between atoms: C13_18  and  C14_19
REMARK    8  A    between atoms: C14_19  and  C15_21
REMARK    9  A    between atoms: C16_22  and  C17_23
REMARK   10  A    between atoms: C22_30  and  O5_31
REMARK   11  A    between atoms: C26_36  and  O6_37
REMARK   12  A    between atoms: C28_39  and  O7_40
ROOT
HETATM    1  C8  UNL     1      11.777  18.698  17.431  1.00  0.00     0.070 A
HETATM    2  C9  UNL     1      10.421  18.774  17.713  1.00  0.00     0.037 A
HETATM    3  C10 UNL     1       9.474  18.182  16.891  1.00  0.00     0.014 A
HETATM    4  C11 UNL     1       9.841  17.508  15.780  1.00  0.00    -0.030 A
HETATM    5  C23 UNL     1      11.208  17.428  15.490  1.00  0.00    -0.049 A
HETATM    6  C24 UNL     1      11.620  16.692  14.266  1.00  0.00     0.049 C
HETATM    7  C25 UNL     1      12.130  18.010  16.300  1.00  0.00     0.044 A
ENDROOT
BRANCH   1   8
HETATM    8  O3  UNL     1      12.651  19.304  18.284  1.00  0.00    -0.341 OA
BRANCH   8   9
HETATM    9  C7  UNL     1      12.583  20.544  18.896  1.00  0.00     0.294 C
BRANCH   9  10
HETATM   10  C6  UNL     1      12.701  21.643  17.841  1.00  0.00     0.316 C
HETATM   11  N1  UNL     1      13.915  22.138  17.640  1.00  0.00    -0.364 NA
HETATM   12  O2  UNL     1      11.594  21.976  17.257  1.00  0.00    -0.255 OA
BRANCH  11  13
HETATM   13  C5  UNL     1      15.161  22.645  17.433  1.00  0.00     0.169 A
HETATM   14  C4  UNL     1      15.785  22.664  16.178  1.00  0.00     0.080 A
HETATM   15  C3  UNL     1      17.027  23.221  16.045  1.00  0.00     0.067 A
HETATM   16 CL1  UNL     1      14.967  21.972  14.788  1.00  0.00    -0.081 Cl
HETATM   17  C2  UNL     1      17.720  23.777  17.096  1.00  0.00     0.106 A
HETATM   18  C28 UNL     1      17.124  23.766  18.338  1.00  0.00     0.138 A
HETATM   19  C26 UNL     1      15.884  23.218  18.499  1.00  0.00     0.147 A
BRANCH  17  20
HETATM   20  O1  UNL     1      18.980  24.334  16.928  1.00  0.00    -0.353 OA
HETATM   21  C1  UNL     1      19.063  25.578  16.219  1.00  0.00     0.210 C
ENDBRANCH  17  20
BRANCH  18  22
HETATM   22  O7  UNL     1      17.829  24.331  19.406  1.00  0.00    -0.351 OA
HETATM   23  C29 UNL     1      17.769  25.691  19.715  1.00  0.00     0.210 C
ENDBRANCH  18  22
BRANCH  19  24
HETATM   24  O6  UNL     1      15.261  23.194  19.740  1.00  0.00    -0.350 OA
HETATM   25  C27 UNL     1      14.494  24.247  20.258  1.00  0.00     0.210 C
ENDBRANCH  19  24
ENDBRANCH  11  13
ENDBRANCH   9  10
ENDBRANCH   8   9
ENDBRANCH   1   8
BRANCH   4  26
HETATM   26  C12 UNL     1       8.898  16.952  14.852  1.00  0.00     0.016 C
HETATM   27  C13 UNL     1       7.922  16.120  14.865  1.00  0.00     0.055 C
BRANCH  27  28
HETATM   28  C14 UNL     1       7.287  15.340  15.861  1.00  0.00     0.172 C
HETATM   29  O4  UNL     1       7.161  14.083  15.736  1.00  0.00    -0.289 OA
BRANCH  28  30
HETATM   30  C15 UNL     1       6.732  15.930  17.095  1.00  0.00     0.055 C
HETATM   31  C16 UNL     1       7.380  15.961  18.219  1.00  0.00     0.018 C
BRANCH  31  32
HETATM   32  C17 UNL     1       6.828  16.547  19.451  1.00  0.00    -0.001 A
HETATM   33  C18 UNL     1       5.791  17.430  19.407  1.00  0.00     0.040 A
HETATM   34  C19 UNL     1       5.294  17.992  20.569  1.00  0.00     0.056 A
HETATM   35 CL2  UNL     1       3.963  19.127  20.516  1.00  0.00    -0.083 Cl
HETATM   36  C20 UNL     1       5.847  17.663  21.803  1.00  0.00     0.058 A
HETATM   37 CL3  UNL     1       5.233  18.369  23.289  1.00  0.00    -0.082 Cl
HETATM   38  C21 UNL     1       6.876  16.786  21.856  1.00  0.00     0.063 A
HETATM   39  C22 UNL     1       7.370  16.225  20.673  1.00  0.00     0.077 A
BRANCH  39  40
HETATM   40  O5  UNL     1       8.419  15.341  20.813  1.00  0.00    -0.360 OA
ATOM     41  H5  UNL     1       8.468  14.523  20.333  1.00  0.00     0.217 HD
ENDBRANCH  39  40
ENDBRANCH  31  32
ENDBRANCH  28  30
ENDBRANCH  27  28
ENDBRANCH   4  26
TORSDOF 12
ENDMDL