MODEL 4
REMARK VINA RESULT: -6.924717438      1.295      1.770
REMARK  15 active torsions:
REMARK  status: ('A' for Active; 'I' for Inactive)
REMARK    1  A    between atoms: C4_4  and  C5_5
REMARK    2  A    between atoms: C5_5  and  C6_6
REMARK    3  A    between atoms: C10_10  and  O1_11
REMARK    4  A    between atoms: O1_11  and  C11_12
REMARK    5  A    between atoms: C11_12  and  C12_14
REMARK    6  A    between atoms: C12_14  and  C13_15
REMARK    7  A    between atoms: C13_15  and  C14_16
REMARK    8  A    between atoms: C17_19  and  C19_21
REMARK    9  A    between atoms: C19_21  and  C20_22
REMARK   10  A    between atoms: C20_22  and  C21_23
REMARK   11  A    between atoms: C26_30  and  C28_32
REMARK   12  A    between atoms: C28_32  and  O5_33
REMARK   13  A    between atoms: C28_32  and  C29_35
REMARK   14  A    between atoms: C29_35  and  C30_36
REMARK   15  A    between atoms: C32_41  and  O6_42
ROOT
HETATM    1  C19 UNL     1       7.522  18.615  19.819  1.00  0.00     0.015 C
ENDROOT
BRANCH   1   2
HETATM    2  C17 UNL     1       8.943  18.294  19.496  1.00  0.00    -0.016 C
HETATM    3  C10 UNL     1       9.214  17.735  18.186  1.00  0.00     0.140 C
HETATM    4  C9  UNL     1      10.724  17.457  17.971  1.00  0.00     0.034 C
HETATM    5  C8  UNL     1      11.590  18.351  18.775  1.00  0.00     0.012 C
HETATM    6  C6  UNL     1      11.048  19.672  19.161  1.00  0.00    -0.040 C
HETATM    7  C7  UNL     1      11.807  20.106  20.430  1.00  0.00     0.015 C
HETATM    8  C33 UNL     1       9.599  19.691  19.526  1.00  0.00     0.021 C
HETATM    9  C18 UNL     1       9.474  17.504  20.672  1.00  0.00     0.018 C
BRANCH   3  10
HETATM   10  O1  UNL     1       8.449  16.733  17.616  1.00  0.00    -0.315 OA
BRANCH  10  11
HETATM   11  C11 UNL     1       8.072  16.670  16.262  1.00  0.00     0.259 C
HETATM   12  O2  UNL     1       8.741  17.431  15.534  1.00  0.00    -0.265 OA
BRANCH  11  13
HETATM   13  C12 UNL     1       6.990  15.781  15.796  1.00  0.00     0.111 C
BRANCH  13  14
HETATM   14  C13 UNL     1       5.765  15.884  16.667  1.00  0.00     0.013 C
BRANCH  14  15
HETATM   15  C14 UNL     1       4.681  14.942  16.276  1.00  0.00    -0.022 C
HETATM   16  C15 UNL     1       3.434  15.628  15.793  1.00  0.00     0.009 C
HETATM   17  C16 UNL     1       5.195  14.000  15.229  1.00  0.00     0.009 C
ENDBRANCH  14  15
ENDBRANCH  13  14
ENDBRANCH  11  13
ENDBRANCH  10  11
ENDBRANCH   3  10
BRANCH   6  18
HETATM   18  C5  UNL     1      11.243  20.705  18.071  1.00  0.00     0.036 C
BRANCH  18  19
HETATM   19  C4  UNL     1      12.360  20.462  17.167  1.00  0.00    -0.024 C
HETATM   20  C2  UNL     1      13.452  21.237  17.195  1.00  0.00    -0.091 C
HETATM   21  C1  UNL     1      14.601  20.989  16.268  1.00  0.00     0.042 C
HETATM   22  C3  UNL     1      13.568  22.376  18.145  1.00  0.00     0.042 C
ENDBRANCH  18  19
ENDBRANCH   6  18
ENDBRANCH   1   2
BRANCH   1  23
HETATM   23  C20 UNL     1       6.926  18.179  21.075  1.00  0.00     0.042 C
BRANCH  23  24
HETATM   24  C21 UNL     1       5.421  18.120  20.917  1.00  0.00     0.098 C
HETATM   25  C22 UNL     1       4.841  18.972  19.857  1.00  0.00     0.061 C
HETATM   26  C23 UNL     1       3.466  18.300  19.664  1.00  0.00     0.057 C
HETATM   27  C24 UNL     1       2.896  18.608  18.325  1.00  0.00     0.027 C
HETATM   28  C25 UNL     1       3.862  16.872  19.757  1.00  0.00     0.269 C
HETATM   29  C26 UNL     1       2.632  18.660  20.840  1.00  0.00     0.001 C
HETATM   30  O3  UNL     1       3.313  15.844  19.295  1.00  0.00    -0.264 OA
HETATM   31  O4  UNL     1       5.048  16.808  20.502  1.00  0.00    -0.307 OA
HETATM   32  C27 UNL     1       2.381  20.161  20.931  1.00  0.00     0.019 C
HETATM   33  C31 UNL     1       3.263  18.199  22.111  1.00  0.00     0.048 C
HETATM   34  C32 UNL     1       4.731  18.376  22.226  1.00  0.00     0.154 C
BRANCH  29  35
HETATM   35  C28 UNL     1       1.278  17.992  20.694  1.00  0.00     0.136 C
BRANCH  35  36
HETATM   36  O5  UNL     1       0.277  18.885  20.339  1.00  0.00    -0.394 OA
ATOM     37  H5  UNL     1      -0.513  18.771  20.853  1.00  0.00     0.210 HD
ENDBRANCH  35  36
BRANCH  35  38
HETATM   38  C29 UNL     1       0.850  17.214  21.893  1.00  0.00     0.150 C
BRANCH  38  39
HETATM   39  C30 UNL     1       0.510  15.806  21.442  1.00  0.00     0.390 C
HETATM   40  F1  UNL     1       0.336  15.735  20.093  1.00  0.00    -0.171 F
HETATM   41  F2  UNL     1      -0.620  15.334  22.101  1.00  0.00    -0.171 F
HETATM   42  F3  UNL     1       1.601  14.997  21.773  1.00  0.00    -0.171 F
ENDBRANCH  38  39
ENDBRANCH  35  38
ENDBRANCH  29  35
BRANCH  34  43
HETATM   43  O6  UNL     1       5.201  17.382  23.119  1.00  0.00    -0.392 OA
ATOM     44  H6  UNL     1       5.272  17.803  23.968  1.00  0.00     0.210 HD
ENDBRANCH  34  43
ENDBRANCH  23  24
ENDBRANCH   1  23
TORSDOF 15
ENDMDL