MODEL 5
REMARK VINA RESULT: -9.245791734      3.277      7.316
REMARK  10 active torsions:
REMARK  status: ('A' for Active; 'I' for Inactive)
REMARK    1  A    between atoms: C2_3  and  C3_4
REMARK    2  A    between atoms: C5_6  and  O1_7
REMARK    3  A    between atoms: O1_7  and  C6_8
REMARK    4  A    between atoms: C6_8  and  C7_9
REMARK    5  A    between atoms: C7_9  and  C8_10
REMARK    6  A    between atoms: C8_10  and  N2_11
REMARK    7  A    between atoms: N2_11  and  C9_14
REMARK    8  A    between atoms: C9_14  and  C10_15
REMARK    9  A    between atoms: C10_15  and  C11_16
REMARK   10  A    between atoms: C11_16  and  N3_17
ROOT
HETATM    1  C3  UNL     1       6.140  15.580  17.098  1.00  0.00     0.033 A
HETATM    2  C4  UNL     1       7.299  15.731  16.395  1.00  0.00     0.053 A
HETATM    3  C5  UNL     1       7.482  15.165  15.127  1.00  0.00     0.071 A
HETATM    4  C22 UNL     1       6.454  14.436  14.589  1.00  0.00     0.062 A
HETATM    5  C23 UNL     1       5.291  14.289  15.311  1.00  0.00     0.058 A
HETATM    6 CL1  UNL     1       3.994  13.349  14.606  1.00  0.00    -0.083 Cl
HETATM    7  C24 UNL     1       5.084  14.840  16.567  1.00  0.00     0.080 A
HETATM    8  C25 UNL     1       3.830  14.643  17.247  1.00  0.00     0.102 C
HETATM    9  N4  UNL     1       2.806  14.473  17.771  1.00  0.00    -0.191 NA
ENDROOT
BRANCH   1  10
HETATM   10  C2  UNL     1       5.936  16.235  18.395  1.00  0.00     0.120 A
HETATM   11  N1  UNL     1       6.701  16.230  19.495  1.00  0.00    -0.334 N
HETATM   12  C1  UNL     1       7.975  15.584  19.702  1.00  0.00     0.158 C
HETATM   13  C31 UNL     1       6.079  17.026  20.418  1.00  0.00     0.086 A
HETATM   14  C26 UNL     1       4.914  17.531  19.869  1.00  0.00     0.084 A
HETATM   15  C30 UNL     1       6.354  17.403  21.709  1.00  0.00     0.063 A
HETATM   16  N5  UNL     1       4.868  17.024  18.640  1.00  0.00    -0.338 N
HETATM   17  C27 UNL     1       4.049  18.369  20.540  1.00  0.00     0.063 A
ATOM     18  H5  UNL     1       4.122  17.207  17.969  1.00  0.00     0.167 HD
HETATM   19 CL2  UNL     1       2.584  18.986  19.806  1.00  0.00    -0.082 Cl
HETATM   20  C28 UNL     1       4.338  18.738  21.827  1.00  0.00     0.028 A
HETATM   21  C29 UNL     1       5.490  18.254  22.408  1.00  0.00     0.028 A
HETATM   22 CL3  UNL     1       7.760  16.840  22.575  1.00  0.00    -0.082 Cl
ENDBRANCH   1  10
BRANCH   3  23
HETATM   23  O1  UNL     1       8.654  15.351  14.474  1.00  0.00    -0.351 OA
BRANCH  23  24
HETATM   24  C6  UNL     1       9.896  15.802  14.817  1.00  0.00     0.177 C
BRANCH  24  25
HETATM   25  C7  UNL     1      10.061  17.269  15.020  1.00  0.00     0.054 C
BRANCH  25  26
HETATM   26  C8  UNL     1      10.995  17.541  16.165  1.00  0.00     0.234 C
BRANCH  26  27
HETATM   27  N2  UNL     1      10.408  17.542  17.466  1.00  0.00    -0.075 N
ATOM     28  H22 UNL     1       9.456  17.903  17.426  1.00  0.00     0.277 HD
ATOM     29  H21 UNL     1      10.220  16.587  17.772  1.00  0.00     0.277 HD
BRANCH  27  30
HETATM   30  C9  UNL     1      11.163  18.239  18.450  1.00  0.00     0.234 C
BRANCH  30  31
HETATM   31  C10 UNL     1      10.667  19.655  18.591  1.00  0.00     0.057 C
BRANCH  31  32
HETATM   32  C11 UNL     1      11.572  20.672  17.965  1.00  0.00     0.274 C
BRANCH  32  33
HETATM   33  N3  UNL     1      12.974  20.509  18.222  1.00  0.00     0.088 N
HETATM   34  C12 UNL     1      13.425  21.010  19.487  1.00  0.00     0.273 C
HETATM   35  C13 UNL     1      14.854  21.567  19.416  1.00  0.00     0.039 C
HETATM   36  C14 UNL     1      14.840  22.835  18.592  1.00  0.00    -0.037 C
HETATM   37  C15 UNL     1      16.135  23.043  17.848  1.00  0.00     0.010 C
HETATM   38  C19 UNL     1      14.409  24.032  19.396  1.00  0.00     0.010 C
HETATM   39  C20 UNL     1      13.776  22.637  17.508  1.00  0.00     0.039 C
HETATM   40  C16 UNL     1      17.182  23.802  18.575  1.00  0.00     0.001 C
HETATM   41  C17 UNL     1      16.676  24.905  19.463  1.00  0.00     0.000 C
HETATM   42  C18 UNL     1      15.508  24.470  20.316  1.00  0.00     0.001 C
HETATM   43  C21 UNL     1      13.738  21.150  17.173  1.00  0.00     0.273 C
ENDBRANCH  32  33
ENDBRANCH  31  32
ENDBRANCH  30  31
ENDBRANCH  27  30
ENDBRANCH  26  27
ENDBRANCH  25  26
ENDBRANCH  24  25
ENDBRANCH  23  24
ENDBRANCH   3  23
TORSDOF 10
ENDMDL