MODEL 1
REMARK VINA RESULT: -9.762035199      0.000      0.000
REMARK  11 active torsions:
REMARK  status: ('A' for Active; 'I' for Inactive)
REMARK    1  A    between atoms: C4_4  and  N1_5
REMARK       I    between atoms: N1_5  and  C5_7
REMARK    2  A    between atoms: C5_7  and  C6_9
REMARK    3  A    between atoms: C6_9  and  N2_12
REMARK       I    between atoms: N2_12  and  C9_14
REMARK    4  A    between atoms: C9_14  and  C10_16
REMARK    5  A    between atoms: C10_16  and  C11_17
REMARK    6  A    between atoms: C10_16  and  S1_24
REMARK    7  A    between atoms: C11_17  and  C12_18
REMARK    8  A    between atoms: C12_18  and  C14_20
REMARK    9  A    between atoms: C14_20  and  C15_21
REMARK   10  A    between atoms: S1_24  and  C18_25
REMARK   11  A    between atoms: C26_36  and  N3_37
ROOT
HETATM    1  C6  UNL     1      10.578  19.072  19.506  1.00  0.00     0.106 C
HETATM    2  C7  UNL     1      11.298  18.432  20.750  1.00  0.00     0.048 C
HETATM    3  C8  UNL     1       9.574  20.064  20.386  1.00  0.00     0.048 C
ENDROOT
BRANCH   1   4
HETATM    4  C5  UNL     1      11.470  20.079  19.010  1.00  0.00     0.249 C
HETATM    5  N1  UNL     1      12.849  20.210  19.366  1.00  0.00    -0.323 N
ATOM      6  H1  UNL     1      13.286  19.466  19.910  1.00  0.00     0.169 HD
HETATM    7  O1  UNL     1      11.071  20.981  18.197  1.00  0.00    -0.270 OA
BRANCH   5   8
HETATM    8  C4  UNL     1      13.631  21.328  18.996  1.00  0.00     0.057 A
HETATM    9  C3  UNL     1      13.850  22.244  20.072  1.00  0.00     0.040 A
HETATM   10  C2  UNL     1      14.784  23.230  19.983  1.00  0.00    -0.031 A
HETATM   11  C1  UNL     1      15.038  24.150  21.139  1.00  0.00     0.050 C
HETATM   12  C26 UNL     1      15.565  23.371  18.813  1.00  0.00     0.066 A
HETATM   13  C25 UNL     1      15.346  22.486  17.775  1.00  0.00     0.058 A
HETATM   14  C24 UNL     1      14.362  21.480  17.917  1.00  0.00     0.063 A
HETATM   15 CL3  UNL     1      14.170  20.404  16.501  1.00  0.00    -0.082 Cl
BRANCH  12  16
HETATM   16  N3  UNL     1      16.518  24.407  18.834  1.00  0.00    -0.235 N
HETATM   17  C27 UNL     1      17.851  24.234  18.643  1.00  0.00     0.226 A
HETATM   18  N4  UNL     1      18.425  25.432  18.720  1.00  0.00    -0.279 N
HETATM   19  N5  UNL     1      17.499  26.312  18.947  1.00  0.00    -0.227 N
ATOM     20  H4  UNL     1      19.421  25.626  18.619  1.00  0.00     0.189 HD
HETATM   21  N6  UNL     1      16.360  25.680  19.013  1.00  0.00    -0.220 N
ATOM     22  H5  UNL     1      17.637  27.316  19.053  1.00  0.00     0.210 HD
ATOM     23  H6  UNL     1      15.461  26.131  19.184  1.00  0.00     0.210 HD
ENDBRANCH  12  16
ENDBRANCH   5   8
ENDBRANCH   1   4
BRANCH   1  24
HETATM   24  N2  UNL     1       9.696  18.232  18.894  1.00  0.00    -0.343 N
HETATM   25  C9  UNL     1       9.565  17.418  17.725  1.00  0.00     0.232 C
HETATM   26  O2  UNL     1      10.529  17.424  16.958  1.00  0.00    -0.272 OA
ATOM     27  H2  UNL     1       8.848  18.160  19.457  1.00  0.00     0.163 HD
BRANCH  25  28
HETATM   28  C10 UNL     1       8.350  16.637  17.479  1.00  0.00     0.145 C
BRANCH  28  29
HETATM   29  C11 UNL     1       8.458  15.486  16.469  1.00  0.00     0.029 C
BRANCH  29  30
HETATM   30  C12 UNL     1       7.978  15.676  15.113  1.00  0.00    -0.017 C
HETATM   31  C13 UNL     1       7.962  17.034  14.534  1.00  0.00     0.010 C
BRANCH  30  32
HETATM   32  C14 UNL     1       6.690  14.953  14.776  1.00  0.00     0.008 C
BRANCH  32  33
HETATM   33  C15 UNL     1       5.710  14.764  15.858  1.00  0.00    -0.023 C
HETATM   34  C16 UNL     1       4.682  13.750  15.290  1.00  0.00     0.009 C
HETATM   35  C17 UNL     1       4.817  15.987  16.119  1.00  0.00     0.009 C
ENDBRANCH  32  33
ENDBRANCH  30  32
ENDBRANCH  29  30
ENDBRANCH  28  29
BRANCH  28  36
HETATM   36  S1  UNL     1       7.613  15.980  18.945  1.00  0.00    -0.114 SA
BRANCH  36  37
HETATM   37  C18 UNL     1       6.689  16.912  20.068  1.00  0.00     0.023 A
HETATM   38  C19 UNL     1       5.456  17.452  19.630  1.00  0.00     0.022 A
HETATM   39  C20 UNL     1       4.546  18.071  20.447  1.00  0.00     0.025 A
HETATM   40  C21 UNL     1       4.795  18.204  21.797  1.00  0.00     0.035 A
HETATM   41 CL1  UNL     1       3.611  18.963  22.836  1.00  0.00    -0.084 Cl
HETATM   42  C22 UNL     1       5.995  17.689  22.261  1.00  0.00     0.049 A
HETATM   43  C23 UNL     1       6.910  17.068  21.426  1.00  0.00     0.052 A
HETATM   44 CL2  UNL     1       8.389  16.398  22.144  1.00  0.00    -0.083 Cl
ENDBRANCH  36  37
ENDBRANCH  28  36
ENDBRANCH  25  28
ENDBRANCH   1  24
TORSDOF 11
ENDMDL