MODEL 3
REMARK VINA RESULT: -6.880910472      9.018     14.035
REMARK  13 active torsions:
REMARK  status: ('A' for Active; 'I' for Inactive)
REMARK    1  A    between atoms: C2_2  and  O2_4
REMARK    2  A    between atoms: O2_4  and  C3_5
REMARK    3  A    between atoms: C3_5  and  C4_6
REMARK    4  A    between atoms: C4_6  and  C5_7
REMARK    5  A    between atoms: C7_9  and  C8_10
REMARK    6  A    between atoms: C8_10  and  C9_11
REMARK    7  A    between atoms: C15_17  and  C16_18
REMARK    8  A    between atoms: C16_18  and  C17_19
REMARK    9  A    between atoms: C21_23  and  O3_24
REMARK   10  A    between atoms: C22_26  and  C23_27
REMARK   11  A    between atoms: C23_27  and  C24_28
REMARK   12  A    between atoms: C28_32  and  O4_33
REMARK   13  A    between atoms: O4_33  and  S1_34
ROOT
HETATM    1  C9  UNL     1      13.776  21.520  17.475  1.00  0.00     0.025 C
HETATM    2  C10 UNL     1      12.384  21.561  16.859  1.00  0.00     0.022 C
HETATM    3  C11 UNL     1      13.800  22.756  18.366  1.00  0.00     0.020 C
HETATM    4  C12 UNL     1      15.094  22.983  19.047  1.00  0.00     0.043 C
HETATM    5  C13 UNL     1      16.209  23.413  18.164  1.00  0.00    -0.015 A
HETATM    6  C14 UNL     1      16.706  22.677  17.092  1.00  0.00    -0.034 A
HETATM    7  C15 UNL     1      17.741  23.134  16.358  1.00  0.00    -0.014 A
HETATM    8  C21 UNL     1      18.289  24.390  16.729  1.00  0.00     0.082 A
HETATM    9  C22 UNL     1      17.819  25.116  17.762  1.00  0.00     0.014 A
HETATM   10  C28 UNL     1      16.745  24.630  18.519  1.00  0.00     0.108 A
HETATM   11  C29 UNL     1      16.174  21.381  16.624  1.00  0.00     0.119 C
HETATM   12  C30 UNL     1      14.714  21.608  16.342  1.00  0.00     0.255 C
HETATM   13  F1  UNL     1      14.592  22.921  15.842  1.00  0.00    -0.205 F
HETATM   14  F2  UNL     1      14.306  20.808  15.305  1.00  0.00    -0.205 F
ENDROOT
BRANCH   1  15
HETATM   15  C8  UNL     1      13.861  20.265  18.308  1.00  0.00     0.042 C
BRANCH  15  16
HETATM   16  C7  UNL     1      12.922  19.188  17.894  1.00  0.00    -0.023 C
HETATM   17  C5  UNL     1      11.842  18.860  18.562  1.00  0.00    -0.086 C
HETATM   18  C6  UNL     1      11.453  19.543  19.825  1.00  0.00     0.043 C
BRANCH  17  19
HETATM   19  C4  UNL     1      10.954  17.780  18.093  1.00  0.00     0.060 C
BRANCH  19  20
HETATM   20  C3  UNL     1      10.148  18.056  16.881  1.00  0.00     0.183 C
BRANCH  20  21
HETATM   21  O2  UNL     1      10.270  16.989  15.972  1.00  0.00    -0.321 OA
BRANCH  21  22
HETATM   22  C2  UNL     1       9.194  16.267  15.503  1.00  0.00     0.254 C
HETATM   23  C1  UNL     1       8.094  16.926  14.764  1.00  0.00     0.126 C
HETATM   24  O1  UNL     1       9.172  15.030  15.720  1.00  0.00    -0.266 OA
ENDBRANCH  21  22
ENDBRANCH  20  21
ENDBRANCH  19  20
ENDBRANCH  17  19
ENDBRANCH  15  16
ENDBRANCH   1  15
BRANCH  10  25
HETATM   25  O4  UNL     1      16.253  25.353  19.573  1.00  0.00    -0.213 OA
BRANCH  25  26
HETATM   26  S1  UNL     1      16.780  25.353  21.160  1.00  0.00     0.257 S
HETATM   27  O5  UNL     1      18.072  24.641  21.372  1.00  0.00    -0.572 OA
HETATM   28  O6  UNL     1      16.961  26.760  21.715  1.00  0.00    -0.572 OA
HETATM   29  O7  UNL     1      15.646  24.638  22.207  1.00  0.00    -0.572 OA
ENDBRANCH  25  26
ENDBRANCH  10  25
BRANCH   7  30
HETATM   30  C16 UNL     1      18.285  22.345  15.244  1.00  0.00     0.069 C
BRANCH  30  31
HETATM   31  C17 UNL     1      18.737  23.148  14.086  1.00  0.00    -0.020 C
HETATM   32  C18 UNL     1      17.907  23.815  13.306  1.00  0.00    -0.091 C
HETATM   33  C19 UNL     1      18.371  24.625  12.140  1.00  0.00     0.042 C
HETATM   34  C20 UNL     1      16.444  23.781  13.539  1.00  0.00     0.042 C
ENDBRANCH  30  31
ENDBRANCH   7  30
BRANCH   9  35
HETATM   35  C23 UNL     1      18.386  26.421  18.144  1.00  0.00     0.072 C
BRANCH  35  36
HETATM   36  C24 UNL     1      18.451  27.412  17.041  1.00  0.00    -0.020 C
HETATM   37  C25 UNL     1      19.080  28.557  17.084  1.00  0.00    -0.091 C
HETATM   38  C26 UNL     1      19.811  28.986  18.297  1.00  0.00     0.042 C
HETATM   39  C27 UNL     1      19.062  29.450  15.890  1.00  0.00     0.042 C
ENDBRANCH  35  36
ENDBRANCH   9  35
BRANCH   8  40
HETATM   40  O3  UNL     1      19.339  24.796  15.939  1.00  0.00    -0.359 OA
ATOM     41  H3  UNL     1      19.202  24.650  15.010  1.00  0.00     0.217 HD
ENDBRANCH   8  40
TORSDOF 13
ENDMDL