MODEL 2
REMARK VINA RESULT: -7.683893377      6.115     13.061
REMARK  11 active torsions:
REMARK  status: ('A' for Active; 'I' for Inactive)
REMARK    1  A    between atoms: C2_2  and  N1_3
REMARK       I    between atoms: N2_9  and  C6_10
REMARK       I    between atoms: C6_10  and  N6_32
REMARK    2  A    between atoms: N3_11  and  C7_13
REMARK    3  A    between atoms: C7_13  and  C8_14
REMARK    4  A    between atoms: C8_14  and  C9_15
REMARK    5  A    between atoms: C9_15  and  C10_16
REMARK    6  A    between atoms: C10_16  and  C11_17
REMARK    7  A    between atoms: C11_17  and  C12_18
REMARK    8  A    between atoms: C12_18  and  N4_19
REMARK    9  A    between atoms: C15_23  and  O1_24
REMARK   10  A    between atoms: O1_24  and  C16_25
REMARK   11  A    between atoms: N6_32  and  C20_34
ROOT
HETATM    1  N1  UNL     1       4.148  17.450  18.630  1.00  0.00    -0.370 N
ATOM      2  H1  UNL     1       5.018  17.634  19.130  1.00  0.00     0.161 HD
HETATM    3  C3  UNL     1       4.095  16.567  17.687  1.00  0.00     0.158 C
HETATM    4  S1  UNL     1       2.651  16.110  16.696  1.00  0.00    -0.092 SA
HETATM    5  C4  UNL     1       3.534  14.919  15.603  1.00  0.00     0.103 C
HETATM    6  C5  UNL     1       4.650  14.528  16.581  1.00  0.00     0.160 C
HETATM    7  N2  UNL     1       5.132  15.742  17.192  1.00  0.00    -0.161 N
HETATM    8  C6  UNL     1       6.547  16.110  17.314  1.00  0.00     0.686 C
HETATM    9  N3  UNL     1       7.112  15.821  18.382  1.00  0.00    -0.205 N
ATOM     10  H3  UNL     1       6.464  15.355  19.018  1.00  0.00     0.183 HD
HETATM   11  N6  UNL     1       7.166  16.752  16.230  1.00  0.00    -0.188 N
ATOM     12  H6  UNL     1       6.530  17.146  15.536  1.00  0.00     0.184 HD
ENDROOT
BRANCH   9  13
HETATM   13  C7  UNL     1       8.377  15.946  18.969  1.00  0.00     0.079 C
BRANCH  13  14
HETATM   14  C8  UNL     1       8.172  16.213  20.444  1.00  0.00     0.045 C
BRANCH  14  15
HETATM   15  C9  UNL     1       8.659  17.619  20.764  1.00  0.00     0.005 C
BRANCH  15  16
HETATM   16  C10 UNL     1      10.117  17.802  20.639  1.00  0.00     0.002 C
BRANCH  16  17
HETATM   17  C11 UNL     1      10.571  19.215  20.601  1.00  0.00     0.020 C
BRANCH  17  18
HETATM   18  C12 UNL     1      11.647  19.519  19.629  1.00  0.00     0.120 C
BRANCH  18  19
HETATM   19  N4  UNL     1      12.565  20.561  19.936  1.00  0.00    -0.384 N
HETATM   20  C13 UNL     1      13.494  20.881  19.106  1.00  0.00     0.075 A
HETATM   21  C14 UNL     1      14.386  21.884  19.389  1.00  0.00     0.093 A
HETATM   22  S2  UNL     1      13.698  20.106  17.611  1.00  0.00    -0.060 SA
HETATM   23  C15 UNL     1      15.390  22.249  18.519  1.00  0.00     0.145 A
HETATM   24  N5  UNL     1      15.646  21.723  17.336  1.00  0.00    -0.335 N
HETATM   25  C18 UNL     1      15.018  20.739  16.706  1.00  0.00     0.050 A
ATOM     26  H5  UNL     1      16.437  22.131  16.836  1.00  0.00     0.168 HD
HETATM   27  C19 UNL     1      15.424  20.250  15.365  1.00  0.00     0.076 C
ATOM     28  H4  UNL     1      12.486  21.059  20.823  1.00  0.00     0.160 HD
BRANCH  23  29
HETATM   29  O1  UNL     1      16.225  23.300  18.959  1.00  0.00    -0.336 OA
BRANCH  29  30
HETATM   30  C16 UNL     1      15.765  24.170  19.945  1.00  0.00     0.173 C
HETATM   31  C17 UNL     1      16.906  24.896  20.594  1.00  0.00     0.034 C
ENDBRANCH  29  30
ENDBRANCH  23  29
ENDBRANCH  18  19
ENDBRANCH  17  18
ENDBRANCH  16  17
ENDBRANCH  15  16
ENDBRANCH  14  15
ENDBRANCH  13  14
ENDBRANCH   9  13
BRANCH  11  32
HETATM   32  C20 UNL     1       8.524  16.931  15.963  1.00  0.00     0.092 A
HETATM   33  C21 UNL     1       9.257  17.875  16.607  1.00  0.00     0.064 A
HETATM   34 CL1  UNL     1       8.564  18.977  17.809  1.00  0.00    -0.082 Cl
HETATM   35  C22 UNL     1      10.594  18.050  16.343  1.00  0.00     0.050 A
HETATM   36  C23 UNL     1      11.221  17.260  15.409  1.00  0.00     0.037 A
HETATM   37 CL2  UNL     1      12.932  17.497  15.085  1.00  0.00    -0.084 Cl
HETATM   38  C24 UNL     1      10.490  16.295  14.744  1.00  0.00     0.050 A
HETATM   39  C25 UNL     1       9.151  16.124  15.011  1.00  0.00     0.064 A
HETATM   40 CL3  UNL     1       8.236  14.885  14.150  1.00  0.00    -0.082 Cl
ENDBRANCH  11  32
BRANCH   1  41
HETATM   41  C2  UNL     1       2.931  18.173  18.953  1.00  0.00     0.117 C
HETATM   42  C1  UNL     1       3.277  19.624  19.092  1.00  0.00     0.026 C
ENDBRANCH   1  41
TORSDOF 11
ENDMDL