MODEL 5
REMARK VINA RESULT: -5.773887369      2.201      5.680
REMARK  15 active torsions:
REMARK  status: ('A' for Active; 'I' for Inactive)
REMARK    1  A    between atoms: C2_2  and  C3_3
REMARK    2  A    between atoms: C3_3  and  N1_4
REMARK    3  A    between atoms: C3_3  and  C4_8
REMARK    4  A    between atoms: C4_8  and  O2_10
REMARK    5  A    between atoms: O2_10  and  C5_11
REMARK    6  A    between atoms: C6_12  and  C8_14
REMARK    7  A    between atoms: C12_19  and  O3_20
REMARK    8  A    between atoms: O3_20  and  C13_21
REMARK    9  A    between atoms: C13_21  and  C14_23
REMARK   10  A    between atoms: C23_33  and  C24_34
REMARK   11  A    between atoms: C24_34  and  C25_35
REMARK   12  A    between atoms: C25_35  and  O6_36
REMARK   13  A    between atoms: C26_38  and  C27_39
REMARK   14  A    between atoms: C27_39  and  C28_40
REMARK   15  A    between atoms: C28_40  and  C29_41
ROOT
HETATM    1  C5  UNL     1       4.588  17.194  18.832  1.00  0.00     0.155 C
HETATM    2  C6  UNL     1       3.186  16.735  18.713  1.00  0.00     0.016 C
HETATM    3  C7  UNL     1       2.704  17.095  17.251  1.00  0.00     0.023 C
HETATM    4  C9  UNL     1       2.514  17.660  19.674  1.00  0.00     0.015 C
HETATM    5  C10 UNL     1       2.694  17.014  21.027  1.00  0.00     0.015 C
HETATM    6  C11 UNL     1       4.149  17.378  21.335  1.00  0.00     0.032 C
HETATM    7  C12 UNL     1       3.877  18.543  22.276  1.00  0.00     0.167 C
HETATM    8  C18 UNL     1       3.253  19.464  21.303  1.00  0.00    -0.028 C
HETATM    9  C19 UNL     1       2.058  20.154  21.678  1.00  0.00    -0.006 A
HETATM   10  C20 UNL     1       0.736  20.173  21.291  1.00  0.00     0.038 A
HETATM   11  C21 UNL     1       0.044  21.069  22.070  1.00  0.00     0.142 A
HETATM   12  O5  UNL     1       0.891  21.572  22.890  1.00  0.00    -0.334 OA
HETATM   13  C22 UNL     1       2.089  21.092  22.728  1.00  0.00     0.153 A
HETATM   14  C23 UNL     1       3.366  18.882  19.876  1.00  0.00     0.004 C
HETATM   15  C26 UNL     1       4.647  18.075  20.113  1.00  0.00     0.006 C
ENDROOT
BRANCH   1  16
HETATM   16  O2  UNL     1       5.576  16.234  18.773  1.00  0.00    -0.312 OA
BRANCH  16  17
HETATM   17  C4  UNL     1       6.340  15.891  17.665  1.00  0.00     0.290 C
HETATM   18  O1  UNL     1       7.525  15.519  17.888  1.00  0.00    -0.263 OA
BRANCH  17  19
HETATM   19  C3  UNL     1       5.830  15.945  16.276  1.00  0.00     0.282 C
BRANCH  19  20
HETATM   20  C2  UNL     1       7.042  16.231  15.380  1.00  0.00     0.039 C
HETATM   21  C1  UNL     1       7.150  15.033  14.443  1.00  0.00     0.007 C
ENDBRANCH  19  20
BRANCH  19  22
HETATM   22  N1  UNL     1       5.326  14.664  15.898  1.00  0.00    -0.066 N
ATOM     23  H13 UNL     1       5.465  13.951  16.614  1.00  0.00     0.275 HD
ATOM     24  H12 UNL     1       4.307  14.626  15.872  1.00  0.00     0.275 HD
ATOM     25  H11 UNL     1       5.759  14.425  15.005  1.00  0.00     0.275 HD
ENDBRANCH  19  22
ENDBRANCH  17  19
ENDBRANCH  16  17
ENDBRANCH   1  16
BRANCH   2  26
HETATM   26  C8  UNL     1       2.990  15.278  18.709  1.00  0.00     0.070 C
HETATM   27 CL1  UNL     1       2.108  14.450  17.458  1.00  0.00    -0.100 Cl
ENDBRANCH   2  26
BRANCH  15  28
HETATM   28  C27 UNL     1       5.939  18.637  20.039  1.00  0.00     0.017 C
BRANCH  28  29
HETATM   29  C28 UNL     1       7.087  18.486  20.918  1.00  0.00     0.029 C
BRANCH  29  30
HETATM   30  C29 UNL     1       8.243  18.037  20.015  1.00  0.00    -0.008 C
HETATM   31  C30 UNL     1       9.441  18.568  20.100  1.00  0.00     0.004 C
HETATM   32  C31 UNL     1       9.705  19.632  21.092  1.00  0.00     0.061 C
HETATM   33 CL2  UNL     1      10.715  18.019  19.050  1.00  0.00    -0.090 Cl
ENDBRANCH  29  30
ENDBRANCH  28  29
ENDBRANCH  15  28
BRANCH  14  34
HETATM   34  C24 UNL     1       3.384  20.049  19.083  1.00  0.00     0.041 C
BRANCH  34  35
HETATM   35  C25 UNL     1       3.384  21.465  19.326  1.00  0.00     0.165 C
BRANCH  35  36
HETATM   36  O6  UNL     1       4.725  21.917  19.031  1.00  0.00    -0.401 OA
ATOM     37  H6  UNL     1       4.853  21.768  18.101  1.00  0.00     0.209 HD
ENDBRANCH  35  36
ENDBRANCH  34  35
ENDBRANCH  14  34
BRANCH   7  38
HETATM   38  O3  UNL     1       2.926  18.204  23.275  1.00  0.00    -0.310 OA
BRANCH  38  39
HETATM   39  C13 UNL     1       3.232  17.767  24.536  1.00  0.00     0.267 C
HETATM   40  O4  UNL     1       4.268  17.054  24.675  1.00  0.00    -0.264 OA
BRANCH  39  41
HETATM   41  C14 UNL     1       2.427  18.081  25.721  1.00  0.00     0.037 C
HETATM   42  C15 UNL     1       3.257  18.783  26.773  1.00  0.00     0.025 C
HETATM   43  C16 UNL     1       1.897  16.797  26.370  1.00  0.00     0.025 C
HETATM   44  C17 UNL     1       1.214  18.933  25.437  1.00  0.00     0.025 C
ENDBRANCH  39  41
ENDBRANCH  38  39
ENDBRANCH   7  38
TORSDOF 15
ENDMDL