MODEL 3
REMARK VINA RESULT: -9.940681888      4.858     10.952
REMARK  12 active torsions:
REMARK  status: ('A' for Active; 'I' for Inactive)
REMARK    1  A    between atoms: O1_2  and  C2_3
REMARK    2  A    between atoms: C4_5  and  C5_6
REMARK    3  A    between atoms: C5_6  and  C6_7
REMARK    4  A    between atoms: C5_6  and  C23_33
REMARK    5  A    between atoms: C7_8  and  O2_9
REMARK    6  A    between atoms: O2_9  and  C8_10
REMARK    7  A    between atoms: C16_22  and  C17_23
REMARK    8  A    between atoms: C17_23  and  O3_24
REMARK    9  A    between atoms: C23_33  and  C24_34
REMARK   10  A    between atoms: C24_34  and  C25_35
REMARK   11  A    between atoms: C30_40  and  O4_41
REMARK   12  A    between atoms: C32_43  and  O5_44
ROOT
HETATM    1  C8  UNL     1      10.863  18.444  17.468  1.00  0.00     0.104 A
HETATM    2  C9  UNL     1      10.474  17.571  16.431  1.00  0.00     0.071 A
HETATM    3 CL1  UNL     1      11.240  17.712  14.863  1.00  0.00    -0.081 Cl
HETATM    4  C10 UNL     1       9.513  16.608  16.602  1.00  0.00     0.070 A
HETATM    5  C11 UNL     1       8.919  16.517  17.858  1.00  0.00     0.131 A
HETATM    6  F1  UNL     1       8.007  15.528  17.993  1.00  0.00    -0.205 F
HETATM    7  C12 UNL     1       9.257  17.347  18.912  1.00  0.00     0.037 A
HETATM    8  C13 UNL     1      10.250  18.316  18.677  1.00  0.00    -0.006 A
HETATM    9  C14 UNL     1      10.538  19.201  19.807  1.00  0.00     0.062 C
HETATM   10  C15 UNL     1      10.420  18.608  21.158  1.00  0.00     0.124 C
HETATM   11  N1  UNL     1       9.617  17.448  21.310  1.00  0.00    -0.390 N
ATOM     12  H1  UNL     1       9.703  16.811  22.102  1.00  0.00     0.159 HD
HETATM   13  C16 UNL     1       8.661  17.251  20.236  1.00  0.00     0.054 C
ENDROOT
BRANCH   1  14
HETATM   14  O2  UNL     1      11.828  19.363  17.192  1.00  0.00    -0.320 OA
BRANCH  14  15
HETATM   15  C7  UNL     1      12.200  20.505  17.883  1.00  0.00     0.143 C
HETATM   16  C6  UNL     1      13.259  21.347  17.405  1.00  0.00     0.032 C
BRANCH  16  17
HETATM   17  C5  UNL     1      14.373  21.674  17.940  1.00  0.00    -0.046 C
BRANCH  17  18
HETATM   18  C4  UNL     1      15.541  22.357  17.409  1.00  0.00    -0.024 A
HETATM   19  C3  UNL     1      16.518  22.896  18.193  1.00  0.00     0.051 A
HETATM   20  C2  UNL     1      17.584  23.621  17.648  1.00  0.00     0.105 A
HETATM   21  C32 UNL     1      17.694  23.821  16.279  1.00  0.00     0.135 A
HETATM   22  C30 UNL     1      16.721  23.280  15.491  1.00  0.00     0.105 A
HETATM   23  C29 UNL     1      15.680  22.572  16.029  1.00  0.00     0.051 A
BRANCH  20  24
HETATM   24  O1  UNL     1      18.551  24.154  18.470  1.00  0.00    -0.353 OA
HETATM   25  C1  UNL     1      18.221  25.231  19.317  1.00  0.00     0.210 C
ENDBRANCH  20  24
BRANCH  21  26
HETATM   26  O5  UNL     1      18.769  24.546  15.785  1.00  0.00    -0.351 OA
HETATM   27  C33 UNL     1      18.573  25.964  15.703  1.00  0.00     0.210 C
ENDBRANCH  21  26
BRANCH  22  28
HETATM   28  O4  UNL     1      16.774  23.443  14.112  1.00  0.00    -0.353 OA
HETATM   29  C31 UNL     1      16.220  24.579  13.471  1.00  0.00     0.210 C
ENDBRANCH  22  28
ENDBRANCH  17  18
BRANCH  17  30
HETATM   30  C23 UNL     1      14.541  21.340  19.427  1.00  0.00     0.043 C
BRANCH  30  31
HETATM   31  C24 UNL     1      13.670  22.154  20.325  1.00  0.00     0.032 C
BRANCH  31  32
HETATM   32  C25 UNL     1      14.533  22.991  21.250  1.00  0.00    -0.024 C
HETATM   33  C26 UNL     1      14.846  24.239  21.013  1.00  0.00    -0.091 C
HETATM   34  C27 UNL     1      15.704  24.941  22.011  1.00  0.00     0.042 C
HETATM   35  C28 UNL     1      14.381  24.948  19.810  1.00  0.00     0.042 C
ENDBRANCH  31  32
ENDBRANCH  30  31
ENDBRANCH  17  30
ENDBRANCH  16  17
ENDBRANCH  14  15
ENDBRANCH   1  14
BRANCH  13  36
HETATM   36  C17 UNL     1       7.354  17.911  20.501  1.00  0.00     0.106 C
HETATM   37  C18 UNL     1       6.869  17.562  21.925  1.00  0.00     0.045 C
HETATM   38  C19 UNL     1       5.790  18.528  22.287  1.00  0.00     0.009 C
HETATM   39  C20 UNL     1       4.627  18.381  21.328  1.00  0.00     0.079 C
HETATM   40  C21 UNL     1       5.049  18.446  19.900  1.00  0.00     0.246 C
HETATM   41  F2  UNL     1       3.938  18.049  19.140  1.00  0.00    -0.206 F
HETATM   42  F3  UNL     1       5.321  19.734  19.514  1.00  0.00    -0.206 F
HETATM   43  C22 UNL     1       6.221  17.491  19.597  1.00  0.00     0.123 C
BRANCH  36  44
HETATM   44  O3  UNL     1       7.457  19.308  20.493  1.00  0.00    -0.383 OA
ATOM     45  H3  UNL     1       7.206  19.681  19.657  1.00  0.00     0.211 HD
ENDBRANCH  36  44
ENDBRANCH  13  36
TORSDOF 12
ENDMDL