MODEL 4
REMARK VINA RESULT: -9.948085300      1.499      2.994
REMARK  11 active torsions:
REMARK  status: ('A' for Active; 'I' for Inactive)
REMARK    1  A    between atoms: O1_2  and  C2_3
REMARK    2  A    between atoms: C5_6  and  C6_7
REMARK    3  A    between atoms: C7_8  and  C8_9
REMARK    4  A    between atoms: C13_16  and  N1_17
REMARK    5  A    between atoms: N1_17  and  C14_19
REMARK    6  A    between atoms: C17_22  and  O2_23
REMARK    7  A    between atoms: O2_23  and  C18_24
REMARK    8  A    between atoms: C25_31  and  C26_32
REMARK    9  A    between atoms: C30_38  and  O3_39
REMARK   10  A    between atoms: O3_39  and  C31_40
REMARK   11  A    between atoms: C31_40  and  C33_42
ROOT
HETATM    1  C8  UNL     1      11.393  19.162  18.327  1.00  0.00    -0.014 A
HETATM    2  C9  UNL     1      11.268  18.529  17.069  1.00  0.00     0.028 A
HETATM    3  C10 UNL     1      10.325  17.590  16.772  1.00  0.00     0.018 A
HETATM    4  C11 UNL     1      10.253  17.002  15.503  1.00  0.00     0.168 A
HETATM    5  F1  UNL     1      11.147  17.380  14.559  1.00  0.00    -0.202 F
HETATM    6  C12 UNL     1       9.297  16.060  15.214  1.00  0.00     0.181 A
HETATM    7  F2  UNL     1       9.190  15.467  14.005  1.00  0.00    -0.200 F
HETATM    8  C13 UNL     1       8.377  15.674  16.195  1.00  0.00     0.071 A
HETATM    9  C23 UNL     1       8.482  16.270  17.413  1.00  0.00     0.045 A
HETATM   10  C24 UNL     1       9.431  17.221  17.741  1.00  0.00    -0.012 A
HETATM   11  C25 UNL     1       9.515  17.813  18.977  1.00  0.00    -0.012 A
HETATM   12  C27 UNL     1      10.495  18.782  19.265  1.00  0.00     0.063 A
HETATM   13  C28 UNL     1      10.436  19.365  20.567  1.00  0.00     0.101 C
HETATM   14  N2  UNL     1      10.352  19.838  21.614  1.00  0.00    -0.191 NA
ENDROOT
BRANCH   1  15
HETATM   15  C7  UNL     1      12.420  20.161  18.476  1.00  0.00     0.014 C
HETATM   16  C6  UNL     1      12.952  20.999  17.669  1.00  0.00     0.012 C
BRANCH  16  17
HETATM   17  C5  UNL     1      14.022  21.918  18.142  1.00  0.00    -0.033 A
HETATM   18  C4  UNL     1      14.075  22.467  19.379  1.00  0.00     0.014 A
HETATM   19  C3  UNL     1      15.135  23.311  19.735  1.00  0.00     0.040 A
HETATM   20  C2  UNL     1      16.149  23.618  18.875  1.00  0.00     0.101 A
HETATM   21  C30 UNL     1      16.108  23.061  17.599  1.00  0.00     0.104 A
HETATM   22  C29 UNL     1      15.067  22.242  17.270  1.00  0.00     0.051 A
BRANCH  20  23
HETATM   23  O1  UNL     1      17.207  24.440  19.184  1.00  0.00    -0.353 OA
HETATM   24  C1  UNL     1      17.395  25.024  20.457  1.00  0.00     0.210 C
ENDBRANCH  20  23
BRANCH  21  25
HETATM   25  O3  UNL     1      17.125  23.370  16.738  1.00  0.00    -0.333 OA
BRANCH  25  26
HETATM   26  C31 UNL     1      17.488  22.733  15.560  1.00  0.00     0.225 C
HETATM   27  C32 UNL     1      16.797  23.475  14.405  1.00  0.00     0.052 C
BRANCH  26  28
HETATM   28  C33 UNL     1      18.978  22.794  15.340  1.00  0.00     0.203 C
HETATM   29  O4  UNL     1      19.722  23.365  16.172  1.00  0.00    -0.646 OA
HETATM   30  O5  UNL     1      19.554  22.225  14.220  1.00  0.00    -0.646 OA
ENDBRANCH  26  28
ENDBRANCH  25  26
ENDBRANCH  21  25
ENDBRANCH  16  17
ENDBRANCH   1  15
BRANCH  11  31
HETATM   31  C26 UNL     1       8.544  17.414  20.032  1.00  0.00     0.155 C
HETATM   32 CL1  UNL     1       7.085  18.440  19.973  1.00  0.00    -0.125 Cl
ENDBRANCH  11  31
BRANCH   8  33
HETATM   33  N1  UNL     1       7.372  14.724  15.916  1.00  0.00    -0.383 N
ATOM     34  H1  UNL     1       7.594  13.913  15.337  1.00  0.00     0.160 HD
BRANCH  33  35
HETATM   35  C14 UNL     1       6.047  14.879  16.430  1.00  0.00     0.082 C
HETATM   36  C15 UNL     1       5.394  16.124  15.806  1.00  0.00     0.027 C
HETATM   37  C16 UNL     1       4.046  16.275  16.474  1.00  0.00     0.034 C
HETATM   38  C17 UNL     1       3.096  15.144  16.138  1.00  0.00     0.122 C
HETATM   39  C21 UNL     1       3.916  14.177  15.266  1.00  0.00     0.034 C
HETATM   40  C22 UNL     1       5.147  13.719  16.024  1.00  0.00     0.027 C
BRANCH  38  41
HETATM   41  O2  UNL     1       2.716  14.430  17.239  1.00  0.00    -0.381 OA
BRANCH  41  42
HETATM   42  C18 UNL     1       1.991  15.027  18.204  1.00  0.00     0.113 C
HETATM   43  C19 UNL     1       0.630  15.414  17.614  1.00  0.00     0.039 C
HETATM   44  C20 UNL     1       1.704  14.208  19.427  1.00  0.00     0.039 C
ENDBRANCH  41  42
ENDBRANCH  38  41
ENDBRANCH  33  35
ENDBRANCH   8  33
TORSDOF 11
ENDMDL