MODEL 1
REMARK VINA RESULT: -8.650780441      0.000      0.000
REMARK  13 active torsions:
REMARK  status: ('A' for Active; 'I' for Inactive)
REMARK    1  A    between atoms: O1_2  and  C2_3
REMARK    2  A    between atoms: C2_3  and  C3_4
REMARK    3  A    between atoms: C3_4  and  N1_5
REMARK    4  A    between atoms: N1_5  and  C5_7
REMARK    5  A    between atoms: C5_7  and  C6_8
REMARK    6  A    between atoms: C6_8  and  C7_9
REMARK    7  A    between atoms: C7_9  and  C8_10
REMARK    8  A    between atoms: C8_10  and  C9_11
REMARK    9  A    between atoms: C9_11  and  N2_12
REMARK   10  A    between atoms: C17_22  and  N3_23
REMARK   11  A    between atoms: N3_23  and  C18_24
REMARK   12  A    between atoms: C23_30  and  O2_31
REMARK   13  A    between atoms: C25_34  and  C26_35
ROOT
HETATM    1  N2  UNL     1      10.592  18.903  18.786  1.00  0.00    -0.332 N
HETATM    2  C10 UNL     1      10.447  18.157  17.671  1.00  0.00     0.049 A
HETATM    3  C11 UNL     1      11.301  18.000  16.614  1.00  0.00     0.056 A
HETATM    4  C12 UNL     1      10.968  17.175  15.546  1.00  0.00     0.058 A
HETATM    5 CL1  UNL     1      12.074  16.993  14.210  1.00  0.00    -0.082 Cl
HETATM    6  C13 UNL     1       9.764  16.528  15.585  1.00  0.00     0.056 A
HETATM    7 CL2  UNL     1       9.299  15.471  14.249  1.00  0.00    -0.083 Cl
HETATM    8  C14 UNL     1       8.866  16.659  16.638  1.00  0.00     0.040 A
HETATM    9  C15 UNL     1       9.226  17.486  17.685  1.00  0.00     0.010 A
HETATM   10  C16 UNL     1       8.610  17.854  18.879  1.00  0.00     0.062 A
HETATM   11  C17 UNL     1       7.357  17.487  19.439  1.00  0.00     0.137 A
HETATM   12  C25 UNL     1       7.069  18.058  20.669  1.00  0.00     0.066 A
HETATM   13  C28 UNL     1       7.964  18.935  21.304  1.00  0.00     0.108 A
HETATM   14  N4  UNL     1       9.112  19.212  20.696  1.00  0.00    -0.350 N
ATOM     15  H4  UNL     1       9.758  19.849  21.163  1.00  0.00     0.166 HD
HETATM   16  C29 UNL     1       9.474  18.710  19.509  1.00  0.00     0.122 A
ENDROOT
BRANCH   1  17
HETATM   17  C9  UNL     1      11.739  19.742  19.126  1.00  0.00     0.131 C
BRANCH  17  18
HETATM   18  C8  UNL     1      11.775  20.974  18.231  1.00  0.00     0.020 C
BRANCH  18  19
HETATM   19  C7  UNL     1      13.215  21.414  18.035  1.00  0.00     0.003 C
BRANCH  19  20
HETATM   20  C6  UNL     1      13.915  21.655  19.353  1.00  0.00     0.030 C
BRANCH  20  21
HETATM   21  C5  UNL     1      15.014  22.667  19.128  1.00  0.00     0.272 C
BRANCH  21  22
HETATM   22  N1  UNL     1      14.757  23.859  19.920  1.00  0.00     0.086 N
HETATM   23  C4  UNL     1      14.421  23.441  21.297  1.00  0.00     0.310 C
BRANCH  22  24
HETATM   24  C3  UNL     1      15.811  24.810  19.922  1.00  0.00     0.297 C
BRANCH  24  25
HETATM   25  C2  UNL     1      16.718  24.881  21.083  1.00  0.00     0.197 C
BRANCH  25  26
HETATM   26  O1  UNL     1      18.037  24.867  20.696  1.00  0.00    -0.394 OA
HETATM   27  C1  UNL     1      18.246  25.585  19.521  1.00  0.00     0.201 C
ENDBRANCH  25  26
ENDBRANCH  24  25
ENDBRANCH  22  24
ENDBRANCH  21  22
ENDBRANCH  20  21
ENDBRANCH  19  20
ENDBRANCH  18  19
ENDBRANCH  17  18
ENDBRANCH   1  17
BRANCH  11  28
HETATM   28  N3  UNL     1       6.625  16.736  18.891  1.00  0.00    -0.404 NA
BRANCH  28  29
HETATM   29  C18 UNL     1       5.769  16.056  18.157  1.00  0.00     0.111 A
HETATM   30  C19 UNL     1       6.054  15.361  16.963  1.00  0.00     0.053 A
HETATM   31  C20 UNL     1       5.095  14.695  16.246  1.00  0.00    -0.034 A
HETATM   32  C21 UNL     1       5.415  13.962  14.981  1.00  0.00     0.050 C
HETATM   33  C22 UNL     1       3.788  14.696  16.698  1.00  0.00     0.073 A
HETATM   34 CL3  UNL     1       2.585  13.842  15.766  1.00  0.00    -0.081 Cl
HETATM   35  C23 UNL     1       3.458  15.350  17.842  1.00  0.00     0.091 A
HETATM   36  C24 UNL     1       4.414  16.005  18.543  1.00  0.00     0.083 A
BRANCH  35  37
HETATM   37  O2  UNL     1       2.132  15.317  18.245  1.00  0.00    -0.359 OA
ATOM     38  H2  UNL     1       1.950  15.401  19.173  1.00  0.00     0.217 HD
ENDBRANCH  35  37
ENDBRANCH  28  29
ENDBRANCH  11  28
BRANCH  12  39
HETATM   39  C26 UNL     1       5.833  17.865  21.414  1.00  0.00     0.160 C
HETATM   40  C27 UNL     1       4.609  18.696  21.098  1.00  0.00     0.097 C
HETATM   41  O3  UNL     1       5.751  17.025  22.320  1.00  0.00    -0.293 OA
ENDBRANCH  12  39
TORSDOF 13
ENDMDL