MODEL 5
REMARK VINA RESULT: -12.038222621      3.587     10.042
REMARK  5 active torsions:
REMARK  status: ('A' for Active; 'I' for Inactive)
REMARK    1  A    between atoms: C1_4  and  C2_6
REMARK    2  A    between atoms: C6_12  and  C7_13
REMARK    3  A    between atoms: C11_17  and  C12_18
REMARK    4  A    between atoms: C15_21  and  C16_22
REMARK    5  A    between atoms: C16_22  and  C17_24
ROOT
HETATM    1  C7  UNL     1      62.111   3.672  -5.856  1.00  0.00     0.059 A
HETATM    2  C8  UNL     1      61.289   3.968  -6.914  1.00  0.00     0.032 A
HETATM    3  C9  UNL     1      60.237   4.865  -6.810  1.00  0.00     0.005 A
HETATM    4  C10 UNL     1      60.063   5.451  -5.553  1.00  0.00     0.030 A
HETATM    5  C11 UNL     1      60.876   5.164  -4.485  1.00  0.00     0.043 A
HETATM    6  N4  UNL     1      61.874   4.280  -4.679  1.00  0.00    -0.354 N
ATOM      7  H4  UNL     1      62.482   4.060  -3.890  1.00  0.00     0.166 HD
ENDROOT
BRANCH   1   8
HETATM    8  C6  UNL     1      63.212   2.727  -5.980  1.00  0.00     0.060 A
HETATM    9  N3  UNL     1      64.526   2.963  -6.068  1.00  0.00    -0.354 N
HETATM   10  C5  UNL     1      65.200   1.809  -6.183  1.00  0.00     0.043 A
ATOM     11  H3  UNL     1      64.954   3.889  -6.051  1.00  0.00     0.166 HD
HETATM   12  C4  UNL     1      66.539   1.534  -6.306  1.00  0.00     0.031 A
HETATM   13  C26 UNL     1      64.308   0.762  -6.172  1.00  0.00    -0.006 A
HETATM   14  C3  UNL     1      66.950   0.224  -6.413  1.00  0.00     0.017 A
HETATM   15  C2  UNL     1      66.046  -0.829  -6.401  1.00  0.00     0.005 A
HETATM   16  C27 UNL     1      64.702  -0.559  -6.279  1.00  0.00     0.028 A
HETATM   17  C25 UNL     1      63.054   1.363  -6.041  1.00  0.00     0.045 A
BRANCH  15  18
HETATM   18  C1  UNL     1      66.503  -2.218  -6.522  1.00  0.00     0.120 C
HETATM   19  N1  UNL     1      67.411  -2.650  -5.719  1.00  0.00    -0.387 N
ATOM     20  H12 UNL     1      67.729  -3.616  -5.802  1.00  0.00     0.157 HD
ATOM     21  H11 UNL     1      67.819  -2.049  -5.003  1.00  0.00     0.157 HD
HETATM   22  N2  UNL     1      65.942  -3.048  -7.510  1.00  0.00    -0.082 NA
ENDBRANCH  15  18
ENDBRANCH   1   8
BRANCH   5  23
HETATM   23  C12 UNL     1      60.731   5.767  -3.161  1.00  0.00    -0.009 A
HETATM   24  C13 UNL     1      60.480   7.121  -3.016  1.00  0.00     0.014 A
HETATM   25  C14 UNL     1      60.329   7.728  -1.794  1.00  0.00     0.016 A
HETATM   26  C15 UNL     1      60.425   6.991  -0.601  1.00  0.00     0.015 A
HETATM   27  C23 UNL     1      60.675   5.646  -0.748  1.00  0.00     0.016 A
HETATM   28  C24 UNL     1      60.826   5.043  -2.000  1.00  0.00     0.014 A
BRANCH  26  29
HETATM   29  C16 UNL     1      60.230   7.656   0.671  1.00  0.00     0.192 C
HETATM   30  O1  UNL     1      59.353   8.582   0.788  1.00  0.00    -0.287 OA
BRANCH  29  31
HETATM   31  C17 UNL     1      61.001   7.309   1.833  1.00  0.00     0.015 A
HETATM   32  C18 UNL     1      61.866   6.231   1.907  1.00  0.00     0.015 A
HETATM   33  C19 UNL     1      62.573   5.917   3.040  1.00  0.00     0.001 A
HETATM   34  C20 UNL     1      62.413   6.720   4.168  1.00  0.00     0.000 A
HETATM   35  C21 UNL     1      61.544   7.801   4.087  1.00  0.00     0.001 A
HETATM   36  C22 UNL     1      60.852   8.099   2.961  1.00  0.00     0.015 A
ENDBRANCH  29  31
ENDBRANCH  26  29
ENDBRANCH   5  23
TORSDOF 5
ENDMDL