MODEL 1
REMARK VINA RESULT: -9.435482414      0.000      0.000
REMARK  5 active torsions:
REMARK  status: ('A' for Active; 'I' for Inactive)
REMARK       I    between atoms: C1_2  and  N1_3
REMARK       I    between atoms: C1_2  and  N4_22
REMARK    1  A    between atoms: N1_3  and  C2_5
REMARK    2  A    between atoms: C5_8  and  N2_9
REMARK       I    between atoms: N2_9  and  C6_11
REMARK    3  A    between atoms: C6_11  and  C7_13
REMARK    4  A    between atoms: N4_22  and  C14_24
REMARK    5  A    between atoms: C19_29  and  C20_30
ROOT
HETATM    1  O1  UNL     1      61.727   3.184  -2.952  1.00  0.00    -0.247 OA
HETATM    2  C1  UNL     1      60.560   3.492  -3.242  1.00  0.00     0.325 C
HETATM    3  N1  UNL     1      59.869   4.367  -2.333  1.00  0.00    -0.309 N
ATOM      4  H1  UNL     1      58.914   4.614  -2.590  1.00  0.00     0.170 HD
HETATM    5  N4  UNL     1      59.911   3.023  -4.400  1.00  0.00    -0.308 N
ATOM      6  H4  UNL     1      58.953   3.333  -4.560  1.00  0.00     0.170 HD
ENDROOT
BRANCH   3   7
HETATM    7  C2  UNL     1      60.346   4.921  -1.144  1.00  0.00     0.036 A
HETATM    8  C3  UNL     1      61.092   6.059  -1.016  1.00  0.00     0.032 A
HETATM    9  C4  UNL     1      61.484   6.513   0.246  1.00  0.00     0.032 A
HETATM   10  C5  UNL     1      61.163   5.872   1.401  1.00  0.00     0.035 A
HETATM   11  C12 UNL     1      60.398   4.707   1.249  1.00  0.00     0.032 A
HETATM   12  C13 UNL     1      59.998   4.236   0.035  1.00  0.00     0.032 A
BRANCH  10  13
HETATM   13  N2  UNL     1      61.552   6.277   2.707  1.00  0.00    -0.323 N
HETATM   14  C6  UNL     1      61.190   7.445   3.385  1.00  0.00     0.257 C
HETATM   15  O2  UNL     1      60.438   8.290   2.825  1.00  0.00    -0.267 OA
ATOM     16  H2  UNL     1      62.169   5.638   3.209  1.00  0.00     0.169 HD
BRANCH  14  17
HETATM   17  C7  UNL     1      61.662   7.731   4.743  1.00  0.00     0.047 A
HETATM   18  C8  UNL     1      61.394   6.830   5.753  1.00  0.00     0.020 A
HETATM   19  C9  UNL     1      61.821   7.049   7.043  1.00  0.00     0.018 A
HETATM   20  C10 UNL     1      62.527   8.204   7.282  1.00  0.00     0.087 A
HETATM   21  N3  UNL     1      62.773   9.060   6.284  1.00  0.00    -0.374 N
HETATM   22  C11 UNL     1      62.364   8.869   5.007  1.00  0.00     0.104 A
ATOM     23  H3  UNL     1      63.300   9.907   6.498  1.00  0.00     0.164 HD
ENDBRANCH  14  17
ENDBRANCH  10  13
ENDBRANCH   3   7
BRANCH   5  24
HETATM   24  C14 UNL     1      60.477   2.164  -5.350  1.00  0.00     0.047 A
HETATM   25  C15 UNL     1      60.283   0.785  -5.399  1.00  0.00     0.030 A
HETATM   26  C16 UNL     1      60.830   0.027  -6.425  1.00  0.00     0.002 A
HETATM   27  C17 UNL     1      61.574   0.612  -7.417  1.00  0.00     0.001 A
HETATM   28  C18 UNL     1      61.753   1.973  -7.347  1.00  0.00     0.014 A
HETATM   29  C19 UNL     1      61.238   2.777  -6.356  1.00  0.00     0.001 A
BRANCH  29  30
HETATM   30  C20 UNL     1      61.523   4.195  -6.335  1.00  0.00    -0.024 A
HETATM   31  C21 UNL     1      62.827   4.543  -5.979  1.00  0.00     0.012 A
HETATM   32  C22 UNL     1      63.230   5.855  -5.877  1.00  0.00     0.001 A
HETATM   33  C23 UNL     1      62.274   6.833  -6.147  1.00  0.00     0.000 A
HETATM   34  C24 UNL     1      60.993   6.521  -6.496  1.00  0.00     0.001 A
HETATM   35  C25 UNL     1      60.628   5.200  -6.588  1.00  0.00     0.012 A
ENDBRANCH  29  30
ENDBRANCH   5  24
TORSDOF 5
ENDMDL