MODEL 1
REMARK VINA RESULT: -9.544993648      0.000      0.000
REMARK  6 active torsions:
REMARK  status: ('A' for Active; 'I' for Inactive)
REMARK    1  A    between atoms: N1_1  and  C1_4
REMARK    2  A    between atoms: C3_6  and  C4_7
REMARK    3  A    between atoms: C5_9  and  C6_10
REMARK    4  A    between atoms: C6_10  and  C7_11
REMARK    5  A    between atoms: C11_19  and  C12_20
REMARK    6  A    between atoms: C19_27  and  C20_28
ROOT
HETATM    1  C4  UNL     1      63.592   2.924  -6.167  1.00  0.00     0.044 A
HETATM    2  S1  UNL     1      65.159   2.581  -6.822  1.00  0.00    -0.073 SA
HETATM    3  C5  UNL     1      65.064   0.871  -6.818  1.00  0.00     0.057 A
HETATM    4  N3  UNL     1      63.871   0.664  -6.328  1.00  0.00    -0.352 N
ATOM      5  H3  UNL     1      63.536  -0.292  -6.208  1.00  0.00     0.166 HD
HETATM    6  C11 UNL     1      63.103   1.658  -5.991  1.00  0.00     0.061 A
ENDROOT
BRANCH   1   7
HETATM    7  C3  UNL     1      63.035   4.243  -5.916  1.00  0.00    -0.011 A
HETATM    8  C2  UNL     1      62.987   5.230  -6.866  1.00  0.00     0.061 A
HETATM    9  C1  UNL     1      62.461   6.470  -6.603  1.00  0.00     0.100 A
HETATM   10  N4  UNL     1      61.969   6.731  -5.357  1.00  0.00    -0.342 N
HETATM   11  C19 UNL     1      61.980   5.814  -4.370  1.00  0.00     0.044 A
ATOM     12  H4  UNL     1      61.579   7.654  -5.166  1.00  0.00     0.167 HD
HETATM   13  C18 UNL     1      62.514   4.575  -4.655  1.00  0.00     0.043 A
BRANCH   9  14
HETATM   14  N1  UNL     1      62.453   7.343  -7.547  1.00  0.00    -0.385 N
ATOM     15  H12 UNL     1      62.853   7.160  -8.467  1.00  0.00     0.157 HD
ATOM     16  H11 UNL     1      62.027   8.252  -7.362  1.00  0.00     0.157 HD
ENDBRANCH   9  14
BRANCH  11  17
HETATM   17  C20 UNL     1      61.429   6.140  -3.057  1.00  0.00    -0.009 A
HETATM   18  C21 UNL     1      61.346   5.221  -2.038  1.00  0.00     0.013 A
HETATM   19  C22 UNL     1      60.823   5.550  -0.783  1.00  0.00     0.001 A
HETATM   20  C23 UNL     1      60.365   6.802  -0.506  1.00  0.00     0.000 A
HETATM   21  C24 UNL     1      60.438   7.735  -1.512  1.00  0.00     0.001 A
HETATM   22  C25 UNL     1      60.963   7.406  -2.770  1.00  0.00     0.013 A
ENDBRANCH  11  17
ENDBRANCH   1   7
BRANCH   6  23
HETATM   23  C12 UNL     1      61.740   1.433  -5.442  1.00  0.00    -0.008 A
HETATM   24  C13 UNL     1      61.510   1.072  -4.134  1.00  0.00     0.014 A
HETATM   25  C14 UNL     1      60.236   0.883  -3.644  1.00  0.00     0.001 A
HETATM   26  C15 UNL     1      59.168   1.061  -4.486  1.00  0.00     0.000 A
HETATM   27  C16 UNL     1      59.370   1.424  -5.802  1.00  0.00     0.001 A
HETATM   28  C17 UNL     1      60.674   1.610  -6.276  1.00  0.00     0.014 A
ENDBRANCH   6  23
BRANCH   3  29
HETATM   29  C6  UNL     1      66.105  -0.127  -7.278  1.00  0.00     0.121 C
BRANCH  29  30
HETATM   30  C7  UNL     1      66.606  -0.907  -6.116  1.00  0.00     0.015 A
HETATM   31  C8  UNL     1      66.145  -2.132  -5.722  1.00  0.00     0.026 A
HETATM   32  C9  UNL     1      66.847  -2.518  -4.620  1.00  0.00     0.019 A
HETATM   33  C10 UNL     1      67.732  -1.495  -4.372  1.00  0.00     0.088 A
HETATM   34  N2  UNL     1      67.576  -0.527  -5.286  1.00  0.00    -0.369 N
ATOM     35  H2  UNL     1      68.105   0.344  -5.336  1.00  0.00     0.165 HD
ENDBRANCH  29  30
ENDBRANCH   3  29
TORSDOF 6
ENDMDL