MODEL 2
REMARK VINA RESULT: -9.861226611      1.181      1.514
REMARK  5 active torsions:
REMARK  status: ('A' for Active; 'I' for Inactive)
REMARK       I    between atoms: C1_2  and  N1_3
REMARK       I    between atoms: C1_2  and  N2_11
REMARK    1  A    between atoms: N1_3  and  C2_5
REMARK    2  A    between atoms: N2_11  and  C8_13
REMARK    3  A    between atoms: C13_18  and  C14_19
REMARK       I    between atoms: C14_19  and  N3_21
REMARK    4  A    between atoms: N3_21  and  C15_23
REMARK    5  A    between atoms: C18_26  and  C19_27
ROOT
HETATM    1  C8  UNL     1      61.556   0.764  -7.147  1.00  0.00     0.052 A
HETATM    2  C9  UNL     1      61.489   0.278  -8.444  1.00  0.00     0.030 A
HETATM    3  C10 UNL     1      60.847   1.050  -9.402  1.00  0.00     0.002 A
HETATM    4  C11 UNL     1      60.295   2.261  -9.072  1.00  0.00     0.001 A
HETATM    5  C12 UNL     1      60.373   2.724  -7.777  1.00  0.00     0.019 A
HETATM    6  C13 UNL     1      60.994   1.999  -6.792  1.00  0.00     0.059 A
ENDROOT
BRANCH   6   7
HETATM    7  C14 UNL     1      60.957   2.487  -5.396  1.00  0.00     0.258 C
HETATM    8  O2  UNL     1      60.612   1.715  -4.491  1.00  0.00    -0.267 OA
HETATM    9  N3  UNL     1      61.300   3.793  -5.055  1.00  0.00    -0.322 N
ATOM     10  H3  UNL     1      61.577   4.419  -5.812  1.00  0.00     0.169 HD
BRANCH   9  11
HETATM   11  C15 UNL     1      61.295   4.323  -3.736  1.00  0.00     0.050 A
HETATM   12  C16 UNL     1      62.018   3.873  -2.672  1.00  0.00     0.033 A
HETATM   13  C17 UNL     1      61.892   4.480  -1.405  1.00  0.00     0.033 A
HETATM   14  C18 UNL     1      61.047   5.540  -1.191  1.00  0.00     0.042 A
HETATM   15  N4  UNL     1      60.347   5.965  -2.257  1.00  0.00    -0.363 N
HETATM   16  C25 UNL     1      60.439   5.416  -3.467  1.00  0.00     0.117 A
ATOM     17  H4  UNL     1      59.709   6.752  -2.132  1.00  0.00     0.165 HD
BRANCH  14  18
HETATM   18  C19 UNL     1      60.893   6.192   0.102  1.00  0.00    -0.009 A
HETATM   19  C20 UNL     1      60.520   5.517   1.244  1.00  0.00     0.013 A
HETATM   20  C21 UNL     1      60.400   6.226   2.425  1.00  0.00     0.001 A
HETATM   21  C22 UNL     1      60.635   7.578   2.520  1.00  0.00     0.000 A
HETATM   22  C23 UNL     1      61.010   8.250   1.364  1.00  0.00     0.001 A
HETATM   23  C24 UNL     1      61.131   7.557   0.189  1.00  0.00     0.013 A
ENDBRANCH  14  18
ENDBRANCH   9  11
ENDBRANCH   6   7
BRANCH   1  24
HETATM   24  N2  UNL     1      62.326   0.045  -6.220  1.00  0.00    -0.308 N
HETATM   25  C1  UNL     1      63.704  -0.311  -6.357  1.00  0.00     0.325 C
HETATM   26  O1  UNL     1      64.354  -0.014  -7.354  1.00  0.00    -0.247 OA
HETATM   27  N1  UNL     1      64.335  -1.026  -5.315  1.00  0.00    -0.309 N
ATOM     28  H1  UNL     1      63.769  -1.267  -4.502  1.00  0.00     0.170 HD
ATOM     29  H2  UNL     1      61.857  -0.253  -5.364  1.00  0.00     0.170 HD
BRANCH  27  30
HETATM   30  C2  UNL     1      65.659  -1.425  -5.310  1.00  0.00     0.036 A
HETATM   31  C3  UNL     1      66.086  -2.698  -5.066  1.00  0.00     0.029 A
HETATM   32  C4  UNL     1      67.451  -3.010  -5.053  1.00  0.00     0.002 A
HETATM   33  C5  UNL     1      68.364  -2.019  -5.291  1.00  0.00     0.000 A
HETATM   34  C6  UNL     1      67.953  -0.739  -5.537  1.00  0.00     0.002 A
HETATM   35  C7  UNL     1      66.623  -0.435  -5.549  1.00  0.00     0.029 A
ENDBRANCH  27  30
ENDBRANCH   1  24
TORSDOF 5
ENDMDL