MODEL 5
REMARK VINA RESULT: -9.440180291      1.819      2.972
REMARK  6 active torsions:
REMARK  status: ('A' for Active; 'I' for Inactive)
REMARK    1  A    between atoms: C4_8  and  C5_9
REMARK    2  A    between atoms: C8_12  and  O1_13
REMARK    3  A    between atoms: O1_13  and  C9_14
REMARK    4  A    between atoms: C12_17  and  C13_18
REMARK    5  A    between atoms: C19_26  and  N4_27
REMARK    6  A    between atoms: N4_27  and  C20_29
ROOT
HETATM    1  C5  UNL     1      64.711  -0.711  -6.274  1.00  0.00    -0.020 A
HETATM    2  C6  UNL     1      64.168  -1.013  -5.050  1.00  0.00     0.015 A
HETATM    3  C7  UNL     1      63.021  -0.390  -4.636  1.00  0.00     0.040 A
HETATM    4  C8  UNL     1      62.337   0.568  -5.400  1.00  0.00     0.102 A
HETATM    5  C19 UNL     1      62.889   0.864  -6.625  1.00  0.00     0.067 A
HETATM    6  C25 UNL     1      64.063   0.223  -7.045  1.00  0.00     0.044 A
ENDROOT
BRANCH   4   7
HETATM    7  O1  UNL     1      61.180   1.142  -4.889  1.00  0.00    -0.309 OA
BRANCH   7   8
HETATM    8  C9  UNL     1      61.050   2.254  -4.135  1.00  0.00     0.076 A
HETATM    9  C10 UNL     1      59.826   2.842  -3.935  1.00  0.00     0.038 A
HETATM   10  C11 UNL     1      59.695   3.995  -3.150  1.00  0.00     0.016 A
HETATM   11  C12 UNL     1      60.814   4.552  -2.569  1.00  0.00    -0.009 A
HETATM   12  C17 UNL     1      62.031   3.949  -2.783  1.00  0.00     0.016 A
HETATM   13  C18 UNL     1      62.191   2.818  -3.547  1.00  0.00     0.038 A
BRANCH  11  14
HETATM   14  C13 UNL     1      60.685   5.752  -1.751  1.00  0.00     0.042 A
HETATM   15  C14 UNL     1      60.484   7.036  -2.210  1.00  0.00     0.031 A
HETATM   16  C15 UNL     1      60.412   7.909  -1.137  1.00  0.00     0.019 A
HETATM   17  C16 UNL     1      60.577   7.120  -0.014  1.00  0.00     0.088 A
HETATM   18  N3  UNL     1      60.736   5.843  -0.411  1.00  0.00    -0.365 N
ATOM     19  H3  UNL     1      60.876   5.052   0.219  1.00  0.00     0.165 HD
ENDBRANCH  11  14
ENDBRANCH   7   8
ENDBRANCH   4   7
BRANCH   5  20
HETATM   20  N4  UNL     1      62.291   1.817  -7.485  1.00  0.00    -0.354 N
ATOM     21  H4  UNL     1      62.006   1.513  -8.417  1.00  0.00     0.166 HD
BRANCH  20  22
HETATM   22  C20 UNL     1      62.086   3.043  -7.158  1.00  0.00     0.035 A
HETATM   23  C21 UNL     1      60.813   3.565  -7.234  1.00  0.00     0.046 A
HETATM   24  C22 UNL     1      60.560   4.890  -6.884  1.00  0.00     0.090 A
HETATM   25  N5  UNL     1      61.554   5.685  -6.464  1.00  0.00    -0.375 N
HETATM   26  C23 UNL     1      62.806   5.214  -6.376  1.00  0.00     0.090 A
ATOM     27  H5  UNL     1      61.357   6.653  -6.209  1.00  0.00     0.164 HD
HETATM   28  C24 UNL     1      63.080   3.888  -6.723  1.00  0.00     0.046 A
ENDBRANCH  20  22
ENDBRANCH   5  20
BRANCH   1  29
HETATM   29  C4  UNL     1      65.924  -1.345  -6.757  1.00  0.00     0.015 A
HETATM   30  C2  UNL     1      67.166  -0.756  -6.760  1.00  0.00     0.034 A
HETATM   31  C1  UNL     1      67.485   0.597  -6.283  1.00  0.00     0.070 C
HETATM   32  N1  UNL     1      68.073  -1.634  -7.281  1.00  0.00    -0.305 N
HETATM   33  N2  UNL     1      67.432  -2.748  -7.602  1.00  0.00    -0.311 N
ATOM     34  H1  UNL     1      69.071  -1.462  -7.402  1.00  0.00     0.186 HD
HETATM   35  C3  UNL     1      66.109  -2.602  -7.292  1.00  0.00     0.121 A
ATOM     36  H2  UNL     1      67.856  -3.579  -8.014  1.00  0.00     0.186 HD
ENDBRANCH   1  29
TORSDOF 6
ENDMDL