MODEL 2
REMARK VINA RESULT: -11.363843489      1.815      2.609
REMARK  6 active torsions:
REMARK  status: ('A' for Active; 'I' for Inactive)
REMARK    1  A    between atoms: C5_6  and  N2_7
REMARK    2  A    between atoms: N2_7  and  C6_9
REMARK    3  A    between atoms: C6_9  and  C7_13
REMARK    4  A    between atoms: C10_16  and  C11_17
REMARK       I    between atoms: C11_17  and  N4_19
REMARK    5  A    between atoms: N4_19  and  C12_21
REMARK    6  A    between atoms: C16_25  and  C17_26
ROOT
HETATM    1  N1  UNL     1      62.324   6.735   7.992  1.00  0.00    -0.191 NA
HETATM    2  C1  UNL     1      62.132   6.981   6.883  1.00  0.00     0.099 C
HETATM    3  C2  UNL     1      61.888   7.278   5.495  1.00  0.00     0.044 A
HETATM    4  C3  UNL     1      61.185   8.434   5.202  1.00  0.00     0.025 A
HETATM    5  C4  UNL     1      60.964   8.696   3.865  1.00  0.00     0.031 A
HETATM    6  C5  UNL     1      61.393   7.895   2.841  1.00  0.00     0.033 A
HETATM    7  C26 UNL     1      62.102   6.732   3.163  1.00  0.00     0.031 A
HETATM    8  C27 UNL     1      62.333   6.450   4.488  1.00  0.00     0.025 A
ENDROOT
BRANCH   6   9
HETATM    9  N2  UNL     1      61.138   8.213   1.496  1.00  0.00    -0.342 N
ATOM     10  H2  UNL     1      61.688   8.942   1.042  1.00  0.00     0.167 HD
BRANCH   9  11
HETATM   11  C6  UNL     1      60.114   7.530   0.744  1.00  0.00     0.109 C
HETATM   12  N3  UNL     1      58.921   7.689   1.160  1.00  0.00    -0.385 N
ATOM     13  H32 UNL     1      58.667   8.255   1.970  1.00  0.00     0.157 HD
ATOM     14  H31 UNL     1      58.197   7.206   0.629  1.00  0.00     0.157 HD
BRANCH  11  15
HETATM   15  C7  UNL     1      60.476   6.724  -0.408  1.00  0.00     0.007 A
HETATM   16  C8  UNL     1      60.893   5.425  -0.258  1.00  0.00     0.016 A
HETATM   17  C9  UNL     1      61.226   4.700  -1.384  1.00  0.00     0.018 A
HETATM   18  C10 UNL     1      61.158   5.218  -2.655  1.00  0.00     0.032 A
HETATM   19  C24 UNL     1      60.743   6.514  -2.810  1.00  0.00     0.018 A
HETATM   20  C25 UNL     1      60.399   7.268  -1.673  1.00  0.00     0.016 A
BRANCH  18  21
HETATM   21  C11 UNL     1      61.533   4.403  -3.819  1.00  0.00     0.256 C
HETATM   22  O1  UNL     1      60.658   3.575  -4.188  1.00  0.00    -0.267 OA
HETATM   23  N4  UNL     1      62.791   4.583  -4.432  1.00  0.00    -0.323 N
ATOM     24  H4  UNL     1      63.394   5.296  -4.024  1.00  0.00     0.169 HD
BRANCH  23  25
HETATM   25  C12 UNL     1      63.310   3.887  -5.549  1.00  0.00     0.035 A
HETATM   26  C13 UNL     1      62.980   4.338  -6.835  1.00  0.00     0.029 A
HETATM   27  C14 UNL     1      63.437   3.736  -7.986  1.00  0.00     0.003 A
HETATM   28  C15 UNL     1      64.258   2.636  -7.855  1.00  0.00     0.012 A
HETATM   29  C16 UNL     1      64.621   2.141  -6.643  1.00  0.00    -0.024 A
HETATM   30  C23 UNL     1      64.129   2.791  -5.499  1.00  0.00     0.042 A
BRANCH  29  31
HETATM   31  C17 UNL     1      65.490   0.977  -6.502  1.00  0.00    -0.026 A
HETATM   32  C18 UNL     1      66.830   1.127  -6.209  1.00  0.00     0.012 A
HETATM   33  C19 UNL     1      67.677   0.041  -6.069  1.00  0.00     0.001 A
HETATM   34  C20 UNL     1      67.155  -1.238  -6.230  1.00  0.00     0.000 A
HETATM   35  C21 UNL     1      65.815  -1.429  -6.523  1.00  0.00     0.001 A
HETATM   36  C22 UNL     1      65.026  -0.319  -6.650  1.00  0.00     0.012 A
ENDBRANCH  29  31
ENDBRANCH  23  25
ENDBRANCH  18  21
ENDBRANCH  11  15
ENDBRANCH   9  11
ENDBRANCH   6   9
TORSDOF 6
ENDMDL