MODEL 3
REMARK VINA RESULT: -9.848403052      2.983      9.340
REMARK  5 active torsions:
REMARK  status: ('A' for Active; 'I' for Inactive)
REMARK    1  A    between atoms: C4_5  and  N2_6
REMARK       I    between atoms: N2_6  and  C5_8
REMARK       I    between atoms: C5_8  and  N3_10
REMARK       I    between atoms: N3_10  and  C6_12
REMARK    2  A    between atoms: C6_12  and  C7_14
REMARK    3  A    between atoms: C11_18  and  O3_19
REMARK    4  A    between atoms: O3_19  and  C12_20
REMARK    5  A    between atoms: C19_27  and  C20_28
ROOT
HETATM    1  N2  UNL     1      60.672   3.860  -2.018  1.00  0.00    -0.308 N
ATOM      2  H2  UNL     1      59.831   3.543  -2.500  1.00  0.00     0.170 HD
HETATM    3  C5  UNL     1      61.886   3.353  -2.461  1.00  0.00     0.327 C
HETATM    4  O1  UNL     1      62.963   3.715  -1.866  1.00  0.00    -0.247 OA
HETATM    5  N3  UNL     1      62.113   2.449  -3.531  1.00  0.00    -0.275 N
ATOM      6  H3  UNL     1      63.087   2.198  -3.698  1.00  0.00     0.173 HD
HETATM    7  C6  UNL     1      61.176   1.855  -4.389  1.00  0.00     0.259 C
HETATM    8  O2  UNL     1      59.956   2.086  -4.276  1.00  0.00    -0.267 OA
ENDROOT
BRANCH   1   9
HETATM    9  C4  UNL     1      60.500   4.787  -0.946  1.00  0.00     0.047 A
HETATM   10  C3  UNL     1      60.326   4.466   0.367  1.00  0.00     0.032 A
HETATM   11  C2  UNL     1      60.239   5.438   1.375  1.00  0.00     0.029 A
HETATM   12  C1  UNL     1      60.330   6.770   1.064  1.00  0.00     0.047 A
HETATM   13  N1  UNL     1      60.244   7.753   2.086  1.00  0.00    -0.102 NA
HETATM   14  C26 UNL     1      60.505   7.100  -0.259  1.00  0.00     0.041 A
HETATM   15  C19 UNL     1      60.589   6.157  -1.257  1.00  0.00     0.003 A
BRANCH  15  16
HETATM   16  C20 UNL     1      60.718   6.580  -2.654  1.00  0.00    -0.024 A
HETATM   17  C21 UNL     1      60.165   5.800  -3.672  1.00  0.00     0.012 A
HETATM   18  C22 UNL     1      60.312   6.150  -4.972  1.00  0.00     0.001 A
HETATM   19  C23 UNL     1      61.015   7.290  -5.330  1.00  0.00     0.000 A
HETATM   20  C24 UNL     1      61.557   8.053  -4.318  1.00  0.00     0.001 A
HETATM   21  C25 UNL     1      61.421   7.718  -2.987  1.00  0.00     0.012 A
ENDBRANCH  15  16
ENDBRANCH   1   9
BRANCH   7  22
HETATM   22  C7  UNL     1      61.561   0.924  -5.472  1.00  0.00     0.035 A
HETATM   23  C8  UNL     1      60.669   0.096  -6.106  1.00  0.00     0.017 A
HETATM   24  C9  UNL     1      61.056  -0.768  -7.128  1.00  0.00     0.004 A
HETATM   25  C10 UNL     1      62.379  -0.792  -7.514  1.00  0.00     0.037 A
HETATM   26  C11 UNL     1      63.301   0.023  -6.902  1.00  0.00     0.077 A
HETATM   27  C18 UNL     1      62.874   0.859  -5.897  1.00  0.00     0.054 A
BRANCH  26  28
HETATM   28  O3  UNL     1      64.662   0.028  -7.267  1.00  0.00    -0.311 OA
BRANCH  28  29
HETATM   29  C12 UNL     1      65.547  -0.544  -6.364  1.00  0.00     0.076 A
HETATM   30  C13 UNL     1      65.211  -1.724  -5.733  1.00  0.00     0.037 A
HETATM   31  C14 UNL     1      66.064  -2.303  -4.843  1.00  0.00     0.003 A
HETATM   32  C15 UNL     1      67.276  -1.691  -4.580  1.00  0.00     0.000 A
HETATM   33  C16 UNL     1      67.613  -0.523  -5.202  1.00  0.00     0.003 A
HETATM   34  C17 UNL     1      66.750   0.079  -6.114  1.00  0.00     0.037 A
ENDBRANCH  28  29
ENDBRANCH  26  28
ENDBRANCH   7  22
TORSDOF 5
ENDMDL