MODEL 3
REMARK VINA RESULT: -11.664255298      1.284      1.655
REMARK  4 active torsions:
REMARK  status: ('A' for Active; 'I' for Inactive)
REMARK    1  A    between atoms: C4_5  and  N2_6
REMARK       I    between atoms: N2_6  and  C5_8
REMARK    2  A    between atoms: C5_8  and  C6_10
REMARK    3  A    between atoms: C13_17  and  C14_18
REMARK       I    between atoms: C14_18  and  N3_20
REMARK    4  A    between atoms: N3_20  and  C15_22
ROOT
HETATM    1  N1  UNL     1      59.229   2.285  -5.603  1.00  0.00    -0.101 NA
HETATM    2  C1  UNL     1      60.470   1.627  -5.813  1.00  0.00     0.062 A
HETATM    3  C2  UNL     1      60.502   0.313  -6.209  1.00  0.00     0.030 A
HETATM    4  C3  UNL     1      61.701  -0.363  -6.424  1.00  0.00     0.031 A
HETATM    5  C4  UNL     1      62.871   0.309  -6.234  1.00  0.00     0.036 A
HETATM    6  C12 UNL     1      62.858   1.648  -5.830  1.00  0.00     0.048 A
HETATM    7  C13 UNL     1      61.678   2.310  -5.619  1.00  0.00     0.058 A
ENDROOT
BRANCH   7   8
HETATM    8  C14 UNL     1      61.608   3.727  -5.189  1.00  0.00     0.258 C
HETATM    9  O2  UNL     1      61.980   4.582  -6.011  1.00  0.00    -0.267 OA
HETATM   10  N3  UNL     1      61.147   4.095  -3.917  1.00  0.00    -0.323 N
ATOM     11  H3  UNL     1      60.852   3.343  -3.293  1.00  0.00     0.169 HD
BRANCH  10  12
HETATM   12  C15 UNL     1      61.053   5.414  -3.425  1.00  0.00     0.035 A
HETATM   13  C16 UNL     1      60.995   6.532  -4.190  1.00  0.00     0.029 A
HETATM   14  C17 UNL     1      60.876   7.793  -3.622  1.00  0.00     0.003 A
HETATM   15  C18 UNL     1      60.818   7.897  -2.267  1.00  0.00     0.012 A
HETATM   16  C19 UNL     1      60.873   6.804  -1.430  1.00  0.00    -0.024 A
HETATM   17  C20 UNL     1      60.807   6.955   0.003  1.00  0.00    -0.026 A
HETATM   18  C26 UNL     1      60.989   5.576  -2.024  1.00  0.00     0.042 A
HETATM   19  C21 UNL     1      60.081   7.973   0.580  1.00  0.00     0.012 A
HETATM   20  C25 UNL     1      61.466   6.089   0.857  1.00  0.00     0.012 A
HETATM   21  C22 UNL     1      60.008   8.132   1.953  1.00  0.00     0.001 A
HETATM   22  C23 UNL     1      60.669   7.262   2.770  1.00  0.00     0.000 A
HETATM   23  C24 UNL     1      61.405   6.232   2.233  1.00  0.00     0.001 A
ENDBRANCH  10  12
ENDBRANCH   7   8
BRANCH   5  24
HETATM   24  N2  UNL     1      64.134  -0.287  -6.450  1.00  0.00    -0.323 N
HETATM   25  C5  UNL     1      64.740  -1.312  -5.687  1.00  0.00     0.256 C
HETATM   26  O1  UNL     1      64.206  -1.825  -4.704  1.00  0.00    -0.267 OA
ATOM     27  H2  UNL     1      64.668   0.061  -7.246  1.00  0.00     0.169 HD
BRANCH  25  28
HETATM   28  C6  UNL     1      66.060  -1.790  -6.075  1.00  0.00     0.032 A
HETATM   29  C7  UNL     1      67.044  -1.807  -5.089  1.00  0.00     0.017 A
HETATM   30  C8  UNL     1      68.317  -2.250  -5.374  1.00  0.00     0.001 A
HETATM   31  C9  UNL     1      68.625  -2.686  -6.659  1.00  0.00     0.000 A
HETATM   32  C10 UNL     1      67.676  -2.680  -7.652  1.00  0.00     0.001 A
HETATM   33  C11 UNL     1      66.398  -2.227  -7.334  1.00  0.00     0.017 A
ENDBRANCH  25  28
ENDBRANCH   5  24
TORSDOF 4
ENDMDL