MODEL 3
REMARK VINA RESULT: -12.114555456      1.364      1.427
REMARK  5 active torsions:
REMARK  status: ('A' for Active; 'I' for Inactive)
REMARK       I    between atoms: C1_2  and  N1_3
REMARK    1  A    between atoms: C1_2  and  C8_11
REMARK    2  A    between atoms: N1_3  and  C2_5
REMARK    3  A    between atoms: C12_15  and  S1_16
REMARK    4  A    between atoms: S1_16  and  C13_17
REMARK    5  A    between atoms: C16_20  and  C17_21
ROOT
HETATM    1  C13 UNL     1      61.367   5.508  -4.329  1.00  0.00     0.005 A
HETATM    2  C14 UNL     1      61.391   4.704  -3.216  1.00  0.00     0.020 A
HETATM    3  C15 UNL     1      61.108   5.208  -1.964  1.00  0.00     0.015 A
HETATM    4  C16 UNL     1      60.785   6.554  -1.779  1.00  0.00    -0.007 A
HETATM    5  C22 UNL     1      60.764   7.351  -2.904  1.00  0.00     0.015 A
HETATM    6  C23 UNL     1      61.052   6.839  -4.173  1.00  0.00     0.020 A
ENDROOT
BRANCH   1   7
HETATM    7  S1  UNL     1      61.736   4.852  -5.962  1.00  0.00    -0.091 SA
BRANCH   7   8
HETATM    8  C12 UNL     1      61.331   3.104  -6.030  1.00  0.00     0.006 A
HETATM    9  C11 UNL     1      60.046   2.667  -5.809  1.00  0.00     0.019 A
HETATM   10  C10 UNL     1      59.755   1.329  -5.864  1.00  0.00     0.002 A
HETATM   11  C9  UNL     1      60.764   0.396  -6.146  1.00  0.00     0.017 A
HETATM   12  C8  UNL     1      62.046   0.810  -6.368  1.00  0.00     0.033 A
HETATM   13  C24 UNL     1      62.307   2.167  -6.305  1.00  0.00     0.035 A
BRANCH  12  14
HETATM   14  C1  UNL     1      63.142  -0.143  -6.678  1.00  0.00     0.256 C
HETATM   15  O1  UNL     1      62.925  -0.949  -7.610  1.00  0.00    -0.267 OA
HETATM   16  N1  UNL     1      64.311  -0.055  -5.902  1.00  0.00    -0.323 N
ATOM     17  H1  UNL     1      64.335   0.653  -5.168  1.00  0.00     0.169 HD
BRANCH  16  18
HETATM   18  C2  UNL     1      65.456  -0.871  -6.057  1.00  0.00     0.035 A
HETATM   19  C3  UNL     1      65.693  -1.928  -5.154  1.00  0.00     0.029 A
HETATM   20  C4  UNL     1      66.786  -2.745  -5.234  1.00  0.00     0.002 A
HETATM   21  C5  UNL     1      67.708  -2.546  -6.226  1.00  0.00     0.000 A
HETATM   22  C6  UNL     1      67.534  -1.536  -7.131  1.00  0.00     0.002 A
HETATM   23  C7  UNL     1      66.410  -0.718  -7.027  1.00  0.00     0.029 A
ENDBRANCH  16  18
ENDBRANCH  12  14
ENDBRANCH   7   8
ENDBRANCH   1   7
BRANCH   4  24
HETATM   24  C17 UNL     1      60.484   7.089  -0.448  1.00  0.00     0.071 A
HETATM   25  N2  UNL     1      59.669   8.126  -0.182  1.00  0.00    -0.362 N
HETATM   26  C18 UNL     1      59.577   8.398   1.111  1.00  0.00     0.103 A
ATOM     27  H2  UNL     1      59.173   8.650  -0.904  1.00  0.00     0.165 HD
HETATM   28  C19 UNL     1      60.369   7.503   1.787  1.00  0.00     0.026 A
HETATM   29  C20 UNL     1      60.853   7.053   2.995  1.00  0.00     0.122 A
HETATM   30  C21 UNL     1      60.958   6.651   0.764  1.00  0.00     0.088 A
HETATM   31  N3  UNL     1      61.665   6.018   2.727  1.00  0.00    -0.310 N
HETATM   32  N4  UNL     1      61.726   5.782   1.412  1.00  0.00    -0.298 N
ATOM     33  H3  UNL     1      62.170   5.482   3.434  1.00  0.00     0.186 HD
ATOM     34  H4  UNL     1      62.279   5.045   0.973  1.00  0.00     0.187 HD
ENDBRANCH   4  24
TORSDOF 5
ENDMDL