MODEL 5
REMARK VINA RESULT: -10.354794790      1.476      1.703
REMARK  5 active torsions:
REMARK  status: ('A' for Active; 'I' for Inactive)
REMARK       I    between atoms: C1_2  and  N1_3
REMARK       I    between atoms: C1_2  and  N2_11
REMARK    1  A    between atoms: N1_3  and  C2_5
REMARK    2  A    between atoms: N2_11  and  C8_13
REMARK    3  A    between atoms: C11_16  and  N3_17
REMARK    4  A    between atoms: N3_17  and  S1_19
REMARK    5  A    between atoms: S1_19  and  C12_22
ROOT
HETATM    1  C8  UNL     1      61.086   4.244  -2.882  1.00  0.00     0.036 A
HETATM    2  C9  UNL     1      59.964   3.461  -3.243  1.00  0.00     0.032 A
HETATM    3  C10 UNL     1      60.112   2.361  -4.034  1.00  0.00     0.032 A
HETATM    4  C11 UNL     1      61.329   1.947  -4.522  1.00  0.00     0.042 A
HETATM    5  C22 UNL     1      62.426   2.685  -4.187  1.00  0.00     0.032 A
HETATM    6  C23 UNL     1      62.289   3.815  -3.378  1.00  0.00     0.032 A
ENDROOT
BRANCH   4   7
HETATM    7  N3  UNL     1      61.501   0.807  -5.343  1.00  0.00    -0.281 N
ATOM      8  H3  UNL     1      61.146  -0.083  -4.995  1.00  0.00     0.179 HD
BRANCH   7   9
HETATM    9  S1  UNL     1      62.262   0.812  -6.880  1.00  0.00     0.264 S
HETATM   10  O2  UNL     1      61.847  -0.382  -7.702  1.00  0.00    -0.200 OA
HETATM   11  O3  UNL     1      61.753   2.013  -7.641  1.00  0.00    -0.200 OA
BRANCH   9  12
HETATM   12  C12 UNL     1      64.000   0.941  -6.783  1.00  0.00     0.090 A
HETATM   13  C13 UNL     1      64.665   2.043  -7.336  1.00  0.00     0.026 A
HETATM   14  C14 UNL     1      66.029   2.110  -7.223  1.00  0.00     0.002 A
HETATM   15  C15 UNL     1      66.756   1.129  -6.584  1.00  0.00     0.012 A
HETATM   16  C16 UNL     1      66.121   0.023  -6.026  1.00  0.00    -0.024 A
HETATM   17  C17 UNL     1      66.863  -0.948  -5.396  1.00  0.00     0.012 A
HETATM   18  C21 UNL     1      64.734  -0.031  -6.150  1.00  0.00    -0.003 A
HETATM   19  C18 UNL     1      66.207  -2.027  -4.860  1.00  0.00     0.001 A
HETATM   20  C19 UNL     1      64.824  -2.125  -4.959  1.00  0.00     0.001 A
HETATM   21  C20 UNL     1      64.108  -1.135  -5.597  1.00  0.00     0.014 A
ENDBRANCH   9  12
ENDBRANCH   7   9
ENDBRANCH   4   7
BRANCH   1  22
HETATM   22  N2  UNL     1      60.870   5.357  -2.044  1.00  0.00    -0.309 N
HETATM   23  C1  UNL     1      61.218   5.453  -0.685  1.00  0.00     0.325 C
HETATM   24  O1  UNL     1      61.780   4.505  -0.103  1.00  0.00    -0.247 OA
HETATM   25  N1  UNL     1      60.912   6.654  -0.001  1.00  0.00    -0.309 N
ATOM     26  H1  UNL     1      60.445   7.389  -0.533  1.00  0.00     0.170 HD
ATOM     27  H2  UNL     1      60.419   6.170  -2.464  1.00  0.00     0.170 HD
BRANCH  25  28
HETATM   28  C2  UNL     1      61.199   6.917   1.350  1.00  0.00     0.036 A
HETATM   29  C3  UNL     1      62.118   6.227   2.073  1.00  0.00     0.029 A
HETATM   30  C4  UNL     1      62.362   6.504   3.430  1.00  0.00     0.002 A
HETATM   31  C5  UNL     1      61.655   7.501   4.060  1.00  0.00     0.000 A
HETATM   32  C6  UNL     1      60.717   8.211   3.334  1.00  0.00     0.002 A
HETATM   33  C7  UNL     1      60.490   7.933   2.018  1.00  0.00     0.029 A
ENDBRANCH  25  28
ENDBRANCH   1  22
TORSDOF 5
ENDMDL