MODEL 1
REMARK VINA RESULT: -5.031232410      0.000      0.000
REMARK  1 active torsions:
REMARK  status: ('A' for Active; 'I' for Inactive)
REMARK    1  A    between atoms: N3_4  and  C2_6
ROOT
HETATM    1  C2  UNL     1      -4.873   2.573  14.798  1.00  0.00     0.177 C
HETATM    2  N4  UNL     1      -5.011   2.760  13.530  1.00  0.00    -0.361 N
ATOM      3  H4  UNL     1      -5.761   2.360  12.966  1.00  0.00     0.162 HD
HETATM    4  C3  UNL     1      -3.960   3.614  13.011  1.00  0.00     0.142 C
HETATM    5  C4  UNL     1      -3.487   4.318  14.249  1.00  0.00     0.142 C
HETATM    6  N5  UNL     1      -3.717   3.281  15.267  1.00  0.00    -0.361 N
ATOM      7  H5  UNL     1      -3.178   3.105  16.114  1.00  0.00     0.162 HD
ENDROOT
BRANCH   1   8
HETATM    8  N3  UNL     1      -5.693   1.800  15.687  1.00  0.00    -0.305 N
HETATM    9  C1  UNL     1      -5.191   0.861  16.388  1.00  0.00     0.203 C
HETATM   10  N1  UNL     1      -3.819   0.560  16.307  1.00  0.00    -0.066 NA
HETATM   11  N2  UNL     1      -6.025   0.123  17.249  1.00  0.00    -0.066 NA
ATOM     12  H3  UNL     1      -6.689   2.004  15.758  1.00  0.00     0.171 HD
ENDBRANCH   1   8
TORSDOF 1
ENDMDL