MODEL 1
REMARK VINA RESULT: -4.436592854      0.000      0.000
REMARK  1 active torsions:
REMARK  status: ('A' for Active; 'I' for Inactive)
REMARK    1  A    between atoms: C3_5  and  N2_6
ROOT
HETATM    1  C1  UNL     1      -4.698   0.731  11.463  1.00  0.00     0.091 C
HETATM    2  C2  UNL     1      -3.759  -0.426  11.343  1.00  0.00     0.110 A
HETATM    3  N1  UNL     1      -4.035  -1.741  11.461  1.00  0.00    -0.179 N
ATOM      4  H1  UNL     1      -4.954  -2.136  11.656  1.00  0.00     0.185 HD
HETATM    5  C3  UNL     1      -2.903  -2.450  11.281  1.00  0.00     0.692 A
HETATM    6  N3  UNL     1      -1.937  -1.544  11.053  1.00  0.00    -0.129 N
ATOM      7  H3  UNL     1      -0.957  -1.766  10.878  1.00  0.00     0.206 HD
HETATM    8  N4  UNL     1      -2.443  -0.323  11.087  1.00  0.00    -0.270 N
HETATM    9  C4  UNL     1      -1.732   0.931  10.889  1.00  0.00     0.179 C
ENDROOT
BRANCH   5  10
HETATM   10  N2  UNL     1      -2.760  -3.752  11.320  1.00  0.00    -0.233 N
ATOM     11  H22 UNL     1      -3.506  -4.447  11.302  1.00  0.00     0.174 HD
ATOM     12  H21 UNL     1      -1.890  -4.281  11.373  1.00  0.00     0.174 HD
ENDBRANCH   5  10
TORSDOF 1
ENDMDL