MODEL 4
REMARK VINA RESULT: -3.980524968      4.154      5.413
REMARK  0 active torsions:
REMARK  status: ('A' for Active; 'I' for Inactive)
ROOT
HETATM    1  C1  UNL     1      -0.593   2.871  10.081  1.00  0.00     0.165 C
HETATM    2  N1  UNL     1      -1.292   1.646   9.839  1.00  0.00    -0.228 N
ATOM      3  H1  UNL     1      -1.045   1.097   9.016  1.00  0.00     0.177 HD
HETATM    4  C2  UNL     1      -2.227   1.205  10.624  1.00  0.00     0.706 A
HETATM    5  N2  UNL     1      -2.884  -0.021  10.331  1.00  0.00    -0.130 N
ATOM      6  H2  UNL     1      -2.616  -0.549   9.501  1.00  0.00     0.205 HD
HETATM    7  N3  UNL     1      -3.896  -0.515  11.166  1.00  0.00    -0.281 N
ATOM      8  H3  UNL     1      -4.341  -1.398  10.918  1.00  0.00     0.188 HD
HETATM    9  C3  UNL     1      -4.293   0.093  12.233  1.00  0.00     0.214 A
HETATM   10  N4  UNL     1      -3.653   1.322  12.552  1.00  0.00    -0.281 N
ATOM     11  H4  UNL     1      -3.956   1.813  13.393  1.00  0.00     0.188 HD
HETATM   12  N5  UNL     1      -2.645   1.896  11.796  1.00  0.00    -0.130 N
ATOM     13  H5  UNL     1      -2.218   2.781  12.068  1.00  0.00     0.205 HD
ENDROOT
TORSDOF 0
ENDMDL