MODEL 5
REMARK VINA RESULT: -4.622011667      5.598      6.118
REMARK  1 active torsions:
REMARK  status: ('A' for Active; 'I' for Inactive)
REMARK    1  A    between atoms: N1_1  and  C1_4
ROOT
HETATM    1  C1  UNL     1      -3.171  -0.834  11.164  1.00  0.00     0.693 A
HETATM    2  N2  UNL     1      -2.092  -0.039  10.980  1.00  0.00    -0.130 N
ATOM      3  H2  UNL     1      -1.162  -0.457  10.939  1.00  0.00     0.205 HD
HETATM    4  N3  UNL     1      -2.223   1.278  10.851  1.00  0.00    -0.257 N
ATOM      5  H3  UNL     1      -1.384   1.841  10.713  1.00  0.00     0.190 HD
HETATM    6  C2  UNL     1      -3.415   1.900  10.894  1.00  0.00     0.272 A
HETATM    7  F1  UNL     1      -3.548   3.245  10.762  1.00  0.00    -0.179 F
HETATM    8  C3  UNL     1      -4.523   1.100  11.081  1.00  0.00     0.317 A
HETATM    9  O1  UNL     1      -5.647   1.669  11.123  1.00  0.00    -0.263 OA
HETATM   10  N4  UNL     1      -4.370  -0.230  11.210  1.00  0.00    -0.151 N
ATOM     11  H4  UNL     1      -5.200  -0.806  11.348  1.00  0.00     0.188 HD
ENDROOT
BRANCH   1  12
HETATM   12  N1  UNL     1      -2.986  -2.091  11.282  1.00  0.00    -0.233 N
ATOM     13  H12 UNL     1      -3.660  -2.741  11.687  1.00  0.00     0.174 HD
ATOM     14  H11 UNL     1      -2.106  -2.486  10.952  1.00  0.00     0.174 HD
ENDBRANCH   1  12
TORSDOF 1
ENDMDL