MODEL 4
REMARK VINA RESULT: -4.649521621      1.393      1.530
REMARK  1 active torsions:
REMARK  status: ('A' for Active; 'I' for Inactive)
REMARK    1  A    between atoms: C2_2  and  N1_3
ROOT
HETATM    1  N1  UNL     1      -4.642   3.116  13.887  1.00  0.00    -0.360 N
ATOM      2  H1  UNL     1      -4.913   2.985  12.912  1.00  0.00     0.162 HD
HETATM    3  C3  UNL     1      -4.445   2.065  14.608  1.00  0.00     0.214 C
HETATM    4  N2  UNL     1      -4.556   0.700  14.228  1.00  0.00    -0.246 N
ATOM      5  H2  UNL     1      -4.710   0.332  13.290  1.00  0.00     0.188 HD
HETATM    6  N3  UNL     1      -4.408  -0.029  15.408  1.00  0.00     0.050 NA
HETATM    7  O1  UNL     1      -3.916   0.761  16.342  1.00  0.00    -0.140 OA
HETATM    8  N4  UNL     1      -4.065   2.041  15.973  1.00  0.00    -0.212 N
ATOM      9  H4  UNL     1      -3.929   2.856  16.571  1.00  0.00     0.199 HD
ENDROOT
BRANCH   1  10
HETATM   10  C2  UNL     1      -4.502   4.454  14.374  1.00  0.00     0.118 C
HETATM   11  C1  UNL     1      -5.827   5.175  14.526  1.00  0.00     0.026 C
ENDBRANCH   1  10
TORSDOF 1
ENDMDL