MODEL 4
REMARK VINA RESULT: -4.142592682      6.038      7.083
REMARK  3 active torsions:
REMARK  status: ('A' for Active; 'I' for Inactive)
REMARK    1  A    between atoms: O1_1  and  C1_3
REMARK    2  A    between atoms: C1_3  and  N1_4
REMARK    3  A    between atoms: N2_8  and  O2_9
ROOT
HETATM    1  N1  UNL     1      -3.540   0.894  10.591  1.00  0.00     0.048 N
HETATM    2  C2  UNL     1      -3.142  -0.433  10.234  1.00  0.00     0.301 A
HETATM    3  C3  UNL     1      -2.231   0.372  11.040  1.00  0.00     0.259 A
HETATM    4  C4  UNL     1      -1.512   1.465  10.239  1.00  0.00     0.191 C
HETATM    5  N2  UNL     1      -2.864   2.012  10.186  1.00  0.00    -0.014 NA
ENDROOT
BRANCH   1   6
HETATM    6  C1  UNL     1      -4.584   1.001  11.592  1.00  0.00     0.426 C
BRANCH   6   7
HETATM    7  O1  UNL     1      -5.629   1.806  11.214  1.00  0.00    -0.373 OA
ATOM      8  H1  UNL     1      -5.709   1.910  10.273  1.00  0.00     0.211 HD
ENDBRANCH   6   7
ENDBRANCH   1   6
BRANCH   5   9
HETATM    9  O2  UNL     1      -2.929   3.022  11.116  1.00  0.00    -0.288 OA
ATOM     10  H2  UNL     1      -2.871   3.881  10.716  1.00  0.00     0.239 HD
ENDBRANCH   5   9
TORSDOF 3
ENDMDL