MODEL 2
REMARK VINA RESULT: -3.956496312      0.141      1.112
REMARK  1 active torsions:
REMARK  status: ('A' for Active; 'I' for Inactive)
REMARK    1  A    between atoms: N1_1  and  C1_4
ROOT
HETATM    1  C1  UNL     1      -3.197  -1.730  11.183  1.00  0.00     0.694 A
HETATM    2  N2  UNL     1      -3.172  -0.627  10.452  1.00  0.00    -0.120 N
ATOM      3  H2  UNL     1      -2.558  -0.345   9.687  1.00  0.00     0.196 HD
HETATM    4  S1  UNL     1      -4.441   0.149  11.161  1.00  0.00     0.250 S
HETATM    5  O1  UNL     1      -5.442   1.559  11.094  1.00  0.00    -0.211 OA
HETATM    6  N3  UNL     1      -4.232  -1.300  11.893  1.00  0.00    -0.120 N
ATOM      7  H3  UNL     1      -4.742  -1.739  12.659  1.00  0.00     0.196 HD
ENDROOT
BRANCH   1   8
HETATM    8  N1  UNL     1      -2.443  -2.806  11.154  1.00  0.00    -0.233 N
ATOM      9  H12 UNL     1      -1.570  -3.085  10.708  1.00  0.00     0.174 HD
ATOM     10  H11 UNL     1      -2.547  -3.712  11.610  1.00  0.00     0.174 HD
ENDBRANCH   1   8
TORSDOF 1
ENDMDL