MODEL 3
REMARK VINA RESULT: -3.835782344      1.603      3.298
REMARK  1 active torsions:
REMARK  status: ('A' for Active; 'I' for Inactive)
REMARK    1  A    between atoms: N1_2  and  C2_4
ROOT
HETATM    1  C2  UNL     1      -5.073   1.514  15.900  1.00  0.00     0.709 A
HETATM    2  N2  UNL     1      -6.221   1.960  16.424  1.00  0.00    -0.115 N
ATOM      3  H2  UNL     1      -6.697   2.823  16.161  1.00  0.00     0.207 HD
HETATM    4  N3  UNL     1      -6.637   1.103  17.335  1.00  0.00    -0.213 N
ATOM      5  H3  UNL     1      -7.486   1.189  17.895  1.00  0.00     0.210 HD
HETATM    6  N4  UNL     1      -5.765   0.113  17.399  1.00  0.00    -0.213 N
ATOM      7  H4  UNL     1      -5.822  -0.698  18.015  1.00  0.00     0.210 HD
HETATM    8  N5  UNL     1      -4.812   0.358  16.529  1.00  0.00    -0.115 N
ATOM      9  H5  UNL     1      -4.001  -0.237  16.359  1.00  0.00     0.207 HD
ENDROOT
BRANCH   1  10
HETATM   10  N1  UNL     1      -4.387   2.114  14.975  1.00  0.00    -0.228 N
HETATM   11  C1  UNL     1      -4.951   3.048  14.054  1.00  0.00     0.165 C
ATOM     12  H1  UNL     1      -3.391   1.906  14.901  1.00  0.00     0.177 HD
ENDBRANCH   1  10
TORSDOF 1
ENDMDL