MODEL 5
REMARK VINA RESULT: -4.252818302      1.260      1.502
REMARK  2 active torsions:
REMARK  status: ('A' for Active; 'I' for Inactive)
REMARK    1  A    between atoms: N1_1  and  C1_5
REMARK    2  A    between atoms: N3_7  and  C2_8
ROOT
HETATM    1  C1  UNL     1      -4.784   1.958  14.455  1.00  0.00     0.383 A
HETATM    2  N2  UNL     1      -3.817   2.698  15.261  1.00  0.00    -0.111 NA
HETATM    3  N3  UNL     1      -4.452   1.473  15.694  1.00  0.00    -0.172 NA
ENDROOT
BRANCH   3   4
HETATM    4  C2  UNL     1      -5.221   1.628  16.907  1.00  0.00     0.156 A
HETATM    5  C3  UNL     1      -5.972   0.460  17.382  1.00  0.00     0.086 A
HETATM    6  N4  UNL     1      -7.083   0.979  17.110  1.00  0.00    -0.379 N
HETATM    7  C4  UNL     1      -6.573   2.164  16.618  1.00  0.00     0.086 A
ATOM      8  H4  UNL     1      -8.040   0.640  17.217  1.00  0.00     0.164 HD
ENDBRANCH   3   4
BRANCH   1   9
HETATM    9  N1  UNL     1      -4.167   1.324  13.288  1.00  0.00    -0.046 N
ATOM     10  H13 UNL     1      -4.348   1.860  12.439  1.00  0.00     0.277 HD
ATOM     11  H12 UNL     1      -3.151   1.406  13.318  1.00  0.00     0.277 HD
ATOM     12  H11 UNL     1      -4.454   0.351  13.178  1.00  0.00     0.277 HD
ENDBRANCH   1   9
TORSDOF 2
ENDMDL