MODEL 3
REMARK VINA RESULT: -3.458304411      4.437      5.558
REMARK  1 active torsions:
REMARK  status: ('A' for Active; 'I' for Inactive)
REMARK    1  A    between atoms: N1_1  and  C1_5
ROOT
HETATM    1  C1  UNL     1      -4.753   2.661  14.517  1.00  0.00     0.405 C
HETATM    2  C2  UNL     1      -6.021   3.144  15.112  1.00  0.00     0.294 C
HETATM    3  N2  UNL     1      -6.361   2.604  16.380  1.00  0.00    -0.070 N
ATOM      4  H21 UNL     1      -7.345   2.781  16.588  1.00  0.00     0.277 HD
ATOM      5  H22 UNL     1      -5.925   3.146  17.125  1.00  0.00     0.277 HD
HETATM    6  C3  UNL     1      -6.058   1.200  16.537  1.00  0.00     0.260 C
HETATM    7  C4  UNL     1      -4.554   1.074  16.266  1.00  0.00     0.262 C
HETATM    8  N3  UNL     1      -4.396   1.313  14.844  1.00  0.00    -0.043 N
ATOM      9  H31 UNL     1      -3.456   1.083  14.522  1.00  0.00     0.279 HD
ATOM     10  H32 UNL     1      -4.918   0.638  14.285  1.00  0.00     0.279 HD
ENDROOT
BRANCH   1  11
HETATM   11  N1  UNL     1      -3.606   3.497  14.839  1.00  0.00    -0.049 N
ATOM     12  H13 UNL     1      -3.881   4.270  15.446  1.00  0.00     0.276 HD
ATOM     13  H12 UNL     1      -2.969   3.008  15.468  1.00  0.00     0.276 HD
ATOM     14  H11 UNL     1      -3.110   3.841  14.017  1.00  0.00     0.276 HD
ENDBRANCH   1  11
TORSDOF 1
ENDMDL