MODEL 5
REMARK VINA RESULT: -10.379775476      1.410      3.465
REMARK  0 active torsions:
REMARK  status: ('A' for Active; 'I' for Inactive)
ROOT
HETATM    1  C1  UNL     1      68.729   1.687 -17.261  1.00  0.00     0.001 A
HETATM    2  C2  UNL     1      69.746   0.896 -17.723  1.00  0.00     0.001 A
HETATM    3  C3  UNL     1      69.442  -0.311 -18.343  1.00  0.00     0.014 A
HETATM    4  C4  UNL     1      68.154  -0.700 -18.487  1.00  0.00     0.004 A
HETATM    5  C5  UNL     1      67.154   0.113 -18.012  1.00  0.00    -0.008 A
HETATM    6  C6  UNL     1      67.407   1.331 -17.385  1.00  0.00     0.014 A
HETATM    7  C7  UNL     1      65.958  -0.519 -18.287  1.00  0.00     0.110 A
HETATM    8  N1  UNL     1      66.188  -1.688 -18.912  1.00  0.00    -0.315 N
HETATM    9  C8  UNL     1      65.310  -2.621 -19.360  1.00  0.00     0.196 A
HETATM   10  N2  UNL     1      65.767  -3.730 -19.964  1.00  0.00    -0.305 N
HETATM   11  C9  UNL     1      65.225  -4.841 -20.521  1.00  0.00     0.051 A
HETATM   12  C10 UNL     1      63.918  -5.244 -20.670  1.00  0.00     0.031 A
HETATM   13  C11 UNL     1      63.684  -6.451 -21.294  1.00  0.00     0.002 A
HETATM   14  C12 UNL     1      64.702  -7.263 -21.768  1.00  0.00     0.001 A
HETATM   15  C13 UNL     1      66.004  -6.844 -21.610  1.00  0.00     0.014 A
HETATM   16  C14 UNL     1      66.257  -5.660 -21.001  1.00  0.00     0.005 A
HETATM   17  C15 UNL     1      67.444  -4.994 -20.707  1.00  0.00     0.020 A
HETATM   18  C16 UNL     1      68.800  -5.236 -20.898  1.00  0.00     0.102 A
HETATM   19  N3  UNL     1      69.691  -4.342 -20.471  1.00  0.00    -0.373 N
ATOM     20  H3  UNL     1      70.679  -4.544 -20.624  1.00  0.00     0.164 HD
HETATM   21  C17 UNL     1      69.368  -3.173 -19.842  1.00  0.00     0.103 A
HETATM   22  C18 UNL     1      68.025  -2.929 -19.650  1.00  0.00     0.035 A
HETATM   23  C19 UNL     1      67.089  -3.833 -20.081  1.00  0.00     0.067 A
HETATM   24  C20 UNL     1      67.540  -1.793 -19.031  1.00  0.00     0.064 A
ENDROOT
TORSDOF 0
ENDMDL