MODEL 5
REMARK VINA RESULT: -8.460761925      0.972      1.615
REMARK  1 active torsions:
REMARK  status: ('A' for Active; 'I' for Inactive)
REMARK    1  A    between atoms: C4_5  and  C5_6
ROOT
HETATM    1  C1  UNL     1      73.626  -2.601 -19.514  1.00  0.00     0.154 C
HETATM    2  N1  UNL     1      72.387  -2.459 -20.241  1.00  0.00    -0.368 N
HETATM    3  C2  UNL     1      71.473  -3.381 -20.042  1.00  0.00     0.119 C
HETATM    4  C3  UNL     1      70.123  -3.445 -20.678  1.00  0.00     0.056 C
HETATM    5  C4  UNL     1      69.199  -3.948 -19.964  1.00  0.00     0.050 C
HETATM    6  N2  UNL     1      69.936  -3.024 -22.022  1.00  0.00    -0.321 N
HETATM    7  C13 UNL     1      69.113  -3.640 -22.861  1.00  0.00     0.097 A
HETATM    8  C14 UNL     1      69.171  -2.976 -24.078  1.00  0.00     0.020 A
HETATM    9  C15 UNL     1      70.063  -1.932 -23.955  1.00  0.00     0.031 A
HETATM   10  C16 UNL     1      70.534  -1.976 -22.661  1.00  0.00     0.040 A
HETATM   11  C17 UNL     1      71.543  -1.063 -22.142  1.00  0.00     0.047 C
HETATM   12  C18 UNL     1      72.329  -1.308 -21.088  1.00  0.00     0.092 C
ENDROOT
BRANCH   5  13
HETATM   13  C5  UNL     1      67.788  -4.146 -20.249  1.00  0.00     0.008 A
HETATM   14  C6  UNL     1      66.818  -3.183 -20.403  1.00  0.00     0.031 A
HETATM   15  C7  UNL     1      65.584  -3.606 -20.728  1.00  0.00    -0.018 A
HETATM   16  C8  UNL     1      64.443  -2.805 -20.932  1.00  0.00     0.013 A
HETATM   17  C12 UNL     1      65.391  -4.945 -20.880  1.00  0.00     0.015 A
HETATM   18  C9  UNL     1      63.249  -3.351 -21.255  1.00  0.00     0.001 A
HETATM   19  C10 UNL     1      63.049  -4.696 -21.411  1.00  0.00     0.001 A
HETATM   20  C11 UNL     1      64.153  -5.504 -21.216  1.00  0.00     0.019 A
HETATM   21  S1  UNL     1      66.938  -5.588 -20.566  1.00  0.00    -0.090 SA
ENDBRANCH   5  13
TORSDOF 1
ENDMDL