MODEL 4
REMARK VINA RESULT: -8.556082173      2.400      8.600
REMARK  2 active torsions:
REMARK  status: ('A' for Active; 'I' for Inactive)
REMARK    1  A    between atoms: C6_8  and  C7_9
REMARK    2  A    between atoms: C8_10  and  C9_11
ROOT
HETATM    1  C1  UNL     1      75.456  -1.321 -19.449  1.00  0.00     0.068 C
HETATM    2  C2  UNL     1      74.035  -1.771 -19.552  1.00  0.00     0.015 A
HETATM    3  C3  UNL     1      73.740  -2.918 -20.263  1.00  0.00     0.055 A
HETATM    4  C4  UNL     1      72.451  -3.399 -20.404  1.00  0.00     0.046 A
HETATM    5  N1  UNL     1      72.180  -4.533 -21.109  1.00  0.00    -0.364 N
ATOM      6  H1  UNL     1      72.943  -5.048 -21.548  1.00  0.00     0.165 HD
HETATM    7  C5  UNL     1      70.917  -4.983 -21.234  1.00  0.00     0.109 A
HETATM    8  C6  UNL     1      69.860  -4.311 -20.653  1.00  0.00     0.034 A
HETATM    9  C15 UNL     1      70.152  -3.155 -19.938  1.00  0.00     0.038 A
HETATM   10  C16 UNL     1      71.437  -2.687 -19.803  1.00  0.00     0.019 A
HETATM   11  C17 UNL     1      71.769  -1.550 -19.105  1.00  0.00     0.051 A
HETATM   12  C18 UNL     1      70.961  -0.667 -18.421  1.00  0.00     0.032 A
HETATM   13  C19 UNL     1      71.741   0.331 -17.874  1.00  0.00     0.020 A
HETATM   14  C20 UNL     1      73.035   0.020 -18.250  1.00  0.00     0.097 A
HETATM   15  N2  UNL     1      73.021  -1.102 -18.981  1.00  0.00    -0.325 N
ENDROOT
BRANCH   8  16
HETATM   16  C7  UNL     1      68.497  -4.751 -20.758  1.00  0.00    -0.060 C
HETATM   17  C8  UNL     1      67.355  -5.123 -20.865  1.00  0.00    -0.061 C
BRANCH  17  18
HETATM   18  C9  UNL     1      66.005  -5.583 -21.012  1.00  0.00     0.018 A
HETATM   19  C10 UNL     1      64.902  -4.823 -20.693  1.00  0.00     0.020 A
HETATM   20  C11 UNL     1      63.609  -5.305 -20.850  1.00  0.00     0.001 A
HETATM   21  C12 UNL     1      63.427  -6.569 -21.334  1.00  0.00     0.000 A
HETATM   22  C13 UNL     1      64.510  -7.336 -21.654  1.00  0.00     0.001 A
HETATM   23  C14 UNL     1      65.773  -6.851 -21.496  1.00  0.00     0.020 A
ENDBRANCH  17  18
ENDBRANCH   8  16
TORSDOF 2
ENDMDL