MODEL 5
REMARK VINA RESULT: -8.516351655      2.264      9.183
REMARK  2 active torsions:
REMARK  status: ('A' for Active; 'I' for Inactive)
REMARK    1  A    between atoms: C1_1  and  C15_19
REMARK    2  A    between atoms: C2_2  and  C3_3
ROOT
HETATM    1  C3  UNL     1      69.833  -4.117 -20.750  1.00  0.00     0.020 A
HETATM    2  C4  UNL     1      70.832  -4.561 -21.596  1.00  0.00     0.023 A
HETATM    3  C5  UNL     1      72.129  -4.096 -21.542  1.00  0.00     0.033 A
HETATM    4  C6  UNL     1      72.413  -3.134 -20.579  1.00  0.00     0.059 A
HETATM    5  N1  UNL     1      73.687  -2.670 -20.518  1.00  0.00    -0.353 N
ATOM      6  H1  UNL     1      74.399  -3.021 -21.159  1.00  0.00     0.166 HD
HETATM    7  C7  UNL     1      73.996  -1.740 -19.599  1.00  0.00     0.059 A
HETATM    8  C8  UNL     1      75.295  -1.281 -19.553  1.00  0.00     0.032 A
HETATM    9  C9  UNL     1      75.620  -0.324 -18.609  1.00  0.00     0.002 A
HETATM   10  C10 UNL     1      74.685   0.174 -17.726  1.00  0.00     0.002 A
HETATM   11  C11 UNL     1      73.392  -0.297 -17.787  1.00  0.00     0.032 A
HETATM   12  C12 UNL     1      73.037  -1.260 -18.727  1.00  0.00     0.059 A
HETATM   13  N2  UNL     1      71.780  -1.733 -18.804  1.00  0.00    -0.353 N
ATOM     14  H2  UNL     1      71.072  -1.380 -18.160  1.00  0.00     0.166 HD
HETATM   15  C13 UNL     1      71.438  -2.672 -19.720  1.00  0.00     0.061 A
HETATM   16  C14 UNL     1      70.129  -3.162 -19.799  1.00  0.00     0.052 A
ENDROOT
BRANCH   1  17
HETATM   17  C2  UNL     1      68.490  -4.628 -20.838  1.00  0.00    -0.061 C
HETATM   18  C1  UNL     1      67.354  -5.066 -20.933  1.00  0.00    -0.061 C
BRANCH  18  19
HETATM   19  C15 UNL     1      66.025  -5.582 -21.066  1.00  0.00     0.018 A
HETATM   20  C16 UNL     1      64.905  -4.857 -20.724  1.00  0.00     0.020 A
HETATM   21  C17 UNL     1      63.627  -5.361 -20.855  1.00  0.00     0.001 A
HETATM   22  C18 UNL     1      63.453  -6.631 -21.345  1.00  0.00     0.000 A
HETATM   23  C19 UNL     1      64.551  -7.380 -21.696  1.00  0.00     0.001 A
HETATM   24  C20 UNL     1      65.809  -6.854 -21.554  1.00  0.00     0.020 A
ENDBRANCH  18  19
ENDBRANCH   1  17
TORSDOF 2
ENDMDL