MODEL 3
REMARK VINA RESULT: -7.228871781      0.587      1.048
REMARK  4 active torsions:
REMARK  status: ('A' for Active; 'I' for Inactive)
REMARK    1  A    between atoms: C1_1  and  C8_10
REMARK    2  A    between atoms: C2_2  and  C3_3
REMARK    3  A    between atoms: C11_13  and  C12_14
REMARK    4  A    between atoms: C13_15  and  C14_16
ROOT
HETATM    1  C8  UNL     1      69.394  -3.327 -19.865  1.00  0.00     0.018 A
HETATM    2  C9  UNL     1      70.587  -3.924 -20.134  1.00  0.00     0.022 A
HETATM    3  C10 UNL     1      71.773  -3.294 -19.824  1.00  0.00     0.022 A
HETATM    4  C11 UNL     1      71.808  -2.047 -19.236  1.00  0.00     0.018 A
HETATM    5  C18 UNL     1      70.594  -1.430 -18.960  1.00  0.00     0.022 A
HETATM    6  C19 UNL     1      69.413  -2.077 -19.278  1.00  0.00     0.022 A
ENDROOT
BRANCH   1   7
HETATM    7  C1  UNL     1      68.169  -4.009 -20.200  1.00  0.00    -0.061 C
HETATM    8  C2  UNL     1      67.133  -4.567 -20.469  1.00  0.00    -0.060 C
BRANCH   8   9
HETATM    9  C3  UNL     1      65.887  -5.211 -20.783  1.00  0.00     0.033 A
HETATM   10  C4  UNL     1      64.673  -4.669 -20.403  1.00  0.00     0.023 A
HETATM   11  C5  UNL     1      63.487  -5.286 -20.703  1.00  0.00     0.019 A
HETATM   12  C6  UNL     1      63.484  -6.470 -21.398  1.00  0.00     0.087 A
HETATM   13  N1  UNL     1      64.653  -7.003 -21.771  1.00  0.00    -0.374 N
HETATM   14  C7  UNL     1      65.812  -6.403 -21.478  1.00  0.00     0.108 A
ATOM     15  H1  UNL     1      64.661  -7.882 -22.289  1.00  0.00     0.164 HD
ENDBRANCH   8   9
ENDBRANCH   1   7
BRANCH   4  16
HETATM   16  C12 UNL     1      73.043  -1.392 -18.915  1.00  0.00    -0.061 C
HETATM   17  C13 UNL     1      74.086  -0.848 -18.625  1.00  0.00    -0.061 C
BRANCH  17  18
HETATM   18  C14 UNL     1      75.357  -0.202 -18.250  1.00  0.00     0.025 A
HETATM   19  C15 UNL     1      75.642   0.184 -16.987  1.00  0.00     0.028 A
HETATM   20  C16 UNL     1      76.859   0.773 -16.774  1.00  0.00     0.051 A
HETATM   21  S1  UNL     1      77.566   0.774 -18.322  1.00  0.00    -0.112 SA
HETATM   22  C17 UNL     1      76.310   0.031 -19.201  1.00  0.00     0.070 A
ENDBRANCH  17  18
ENDBRANCH   4  16
TORSDOF 4
ENDMDL