MODEL 5
REMARK VINA RESULT: -9.543112730      2.019      6.573
REMARK  1 active torsions:
REMARK  status: ('A' for Active; 'I' for Inactive)
REMARK    1  A    between atoms: O1_1  and  N1_3
ROOT
HETATM    1  N1  UNL     1      66.286  -6.148 -21.244  1.00  0.00    -0.235 N
HETATM    2  C1  UNL     1      65.397  -7.078 -21.684  1.00  0.00     0.123 A
HETATM    3  C2  UNL     1      64.051  -6.890 -21.533  1.00  0.00     0.021 A
HETATM    4  C3  UNL     1      63.615  -5.740 -20.924  1.00  0.00     0.015 A
HETATM    5  C4  UNL     1      64.529  -4.789 -20.476  1.00  0.00    -0.006 A
HETATM    6  C5  UNL     1      64.096  -3.625 -19.862  1.00  0.00     0.014 A
HETATM    7  C6  UNL     1      65.014  -2.687 -19.419  1.00  0.00     0.014 A
HETATM    8  C7  UNL     1      66.336  -2.968 -19.617  1.00  0.00    -0.009 A
HETATM    9  C8  UNL     1      66.821  -4.083 -20.209  1.00  0.00    -0.012 A
HETATM   10  C9  UNL     1      65.879  -5.007 -20.643  1.00  0.00     0.079 A
HETATM   11  C10 UNL     1      68.289  -4.076 -20.265  1.00  0.00     0.082 A
HETATM   12  C11 UNL     1      68.684  -2.756 -19.605  1.00  0.00    -0.024 A
HETATM   13  C12 UNL     1      67.523  -2.154 -19.249  1.00  0.00     0.024 A
HETATM   14  S1  UNL     1      68.044  -0.695 -18.524  1.00  0.00    -0.088 SA
HETATM   15  C13 UNL     1      69.733  -0.891 -18.692  1.00  0.00     0.016 A
HETATM   16  C14 UNL     1      70.848  -0.112 -18.339  1.00  0.00     0.019 A
HETATM   17  C15 UNL     1      72.125  -0.544 -18.613  1.00  0.00     0.001 A
HETATM   18  C16 UNL     1      72.253  -1.761 -19.243  1.00  0.00     0.001 A
HETATM   19  C17 UNL     1      71.164  -2.511 -19.582  1.00  0.00     0.013 A
HETATM   20  C18 UNL     1      69.846  -2.095 -19.315  1.00  0.00    -0.011 A
ENDROOT
BRANCH   1  21
HETATM   21  O1  UNL     1      67.639  -6.330 -21.393  1.00  0.00    -0.283 OA
ATOM     22  H1  UNL     1      68.260  -5.690 -21.069  1.00  0.00     0.245 HD
ENDBRANCH   1  21
TORSDOF 1
ENDMDL