MODEL 1
REMARK VINA RESULT: -9.595322825      0.000      0.000
REMARK  2 active torsions:
REMARK  status: ('A' for Active; 'I' for Inactive)
REMARK    1  A    between atoms: C9_13  and  C10_14
REMARK    2  A    between atoms: C11_15  and  C12_16
ROOT
HETATM    1  C1  UNL     1      71.985  -4.795 -21.255  1.00  0.00     0.071 C
HETATM    2  C2  UNL     1      72.434  -3.667 -20.382  1.00  0.00     0.041 A
HETATM    3  N1  UNL     1      73.733  -3.350 -20.237  1.00  0.00    -0.356 N
ATOM      4  H1  UNL     1      74.429  -3.900 -20.741  1.00  0.00     0.166 HD
HETATM    5  C3  UNL     1      74.155  -2.331 -19.451  1.00  0.00     0.059 A
HETATM    6  C4  UNL     1      75.488  -2.018 -19.311  1.00  0.00     0.032 A
HETATM    7  C5  UNL     1      75.943  -0.981 -18.512  1.00  0.00     0.002 A
HETATM    8  C6  UNL     1      74.979  -0.249 -17.837  1.00  0.00     0.002 A
HETATM    9  C7  UNL     1      73.632  -0.549 -17.963  1.00  0.00     0.032 A
HETATM   10  C8  UNL     1      73.213  -1.591 -18.771  1.00  0.00     0.060 A
HETATM   11  N2  UNL     1      71.897  -1.894 -18.902  1.00  0.00    -0.346 N
ATOM     12  H2  UNL     1      71.199  -1.346 -18.398  1.00  0.00     0.167 HD
HETATM   13  C9  UNL     1      71.504  -2.911 -19.690  1.00  0.00     0.110 A
ENDROOT
BRANCH  13  14
HETATM   14  C10 UNL     1      70.101  -3.249 -19.843  1.00  0.00    -0.041 C
HETATM   15  C11 UNL     1      68.938  -3.549 -19.977  1.00  0.00    -0.060 C
BRANCH  15  16
HETATM   16  C12 UNL     1      67.560  -3.928 -20.152  1.00  0.00     0.018 A
HETATM   17  C13 UNL     1      66.522  -3.088 -19.782  1.00  0.00     0.021 A
HETATM   18  C14 UNL     1      65.201  -3.500 -19.972  1.00  0.00     0.013 A
HETATM   19  C15 UNL     1      64.908  -4.727 -20.522  1.00  0.00    -0.026 A
HETATM   20  C16 UNL     1      63.591  -5.115 -20.701  1.00  0.00     0.012 A
HETATM   21  C20 UNL     1      65.973  -5.553 -20.886  1.00  0.00    -0.025 A
HETATM   22  C17 UNL     1      63.316  -6.351 -21.255  1.00  0.00     0.001 A
HETATM   23  C18 UNL     1      64.350  -7.200 -21.630  1.00  0.00     0.001 A
HETATM   24  C19 UNL     1      65.624  -6.771 -21.432  1.00  0.00     0.012 A
HETATM   25  C21 UNL     1      67.287  -5.162 -20.705  1.00  0.00     0.032 A
ENDBRANCH  15  16
ENDBRANCH  13  14
TORSDOF 2
ENDMDL