MODEL 3
REMARK VINA RESULT: -8.664174242      1.402      7.792
REMARK  3 active torsions:
REMARK  status: ('A' for Active; 'I' for Inactive)
REMARK    1  A    between atoms: C2_3  and  C3_4
REMARK    2  A    between atoms: C3_4  and  C4_5
REMARK    3  A    between atoms: C4_5  and  C5_6
ROOT
HETATM    1  C1  UNL     1      67.911  -1.607 -18.954  1.00  0.00     0.158 C
HETATM    2  N1  UNL     1      69.194  -2.199 -19.306  1.00  0.00    -0.329 N
HETATM    3  C2  UNL     1      69.288  -3.402 -19.901  1.00  0.00     0.164 A
HETATM    4  N2  UNL     1      70.496  -3.920 -20.212  1.00  0.00    -0.334 N
ATOM      5  H2  UNL     1      70.537  -4.834 -20.662  1.00  0.00     0.168 HD
HETATM    6  C11 UNL     1      71.650  -3.276 -19.950  1.00  0.00     0.047 A
HETATM    7  C12 UNL     1      72.878  -3.816 -20.272  1.00  0.00     0.030 A
HETATM    8  C13 UNL     1      74.026  -3.122 -19.984  1.00  0.00     0.003 A
HETATM    9  C14 UNL     1      73.974  -1.904 -19.384  1.00  0.00     0.012 A
HETATM   10  C15 UNL     1      72.743  -1.345 -19.052  1.00  0.00    -0.021 A
HETATM   11  C16 UNL     1      72.699  -0.100 -18.438  1.00  0.00     0.012 A
HETATM   12  C17 UNL     1      71.457   0.404 -18.133  1.00  0.00     0.003 A
HETATM   13  C18 UNL     1      70.302  -0.285 -18.418  1.00  0.00     0.031 A
HETATM   14  C19 UNL     1      70.326  -1.521 -19.026  1.00  0.00     0.049 A
HETATM   15  C20 UNL     1      71.589  -2.039 -19.339  1.00  0.00     0.028 A
ENDROOT
BRANCH   3  16
HETATM   16  C3  UNL     1      68.089  -4.146 -20.210  1.00  0.00    -0.024 C
BRANCH  16  17
HETATM   17  C4  UNL     1      67.079  -4.752 -20.479  1.00  0.00    -0.059 C
BRANCH  17  18
HETATM   18  C5  UNL     1      65.876  -5.449 -20.812  1.00  0.00     0.018 A
HETATM   19  C6  UNL     1      65.981  -6.712 -21.370  1.00  0.00     0.020 A
HETATM   20  C7  UNL     1      64.841  -7.412 -21.703  1.00  0.00     0.001 A
HETATM   21  C8  UNL     1      63.584  -6.901 -21.501  1.00  0.00     0.000 A
HETATM   22  C9  UNL     1      63.463  -5.648 -20.946  1.00  0.00     0.001 A
HETATM   23  C10 UNL     1      64.606  -4.953 -20.616  1.00  0.00     0.020 A
ENDBRANCH  17  18
ENDBRANCH  16  17
ENDBRANCH   3  16
TORSDOF 3
ENDMDL