MODEL 5
REMARK VINA RESULT: -8.397346995      1.566      8.741
REMARK  2 active torsions:
REMARK  status: ('A' for Active; 'I' for Inactive)
REMARK    1  A    between atoms: C11_12  and  C12_13
REMARK    2  A    between atoms: C13_14  and  C14_15
ROOT
HETATM    1  C1  UNL     1      71.185  -0.464 -18.258  1.00  0.00     0.156 C
HETATM    2  N1  UNL     1      71.933  -1.394 -19.067  1.00  0.00    -0.350 N
HETATM    3  C2  UNL     1      73.260  -1.325 -19.272  1.00  0.00     0.045 A
HETATM    4  C3  UNL     1      74.249  -0.453 -18.841  1.00  0.00     0.030 A
HETATM    5  C4  UNL     1      75.554  -0.654 -19.236  1.00  0.00     0.002 A
HETATM    6  C5  UNL     1      75.938  -1.696 -20.055  1.00  0.00     0.001 A
HETATM    7  C6  UNL     1      74.954  -2.562 -20.484  1.00  0.00     0.014 A
HETATM    8  C7  UNL     1      73.646  -2.364 -20.090  1.00  0.00     0.003 A
HETATM    9  C8  UNL     1      72.472  -3.056 -20.358  1.00  0.00     0.003 A
HETATM   10  C9  UNL     1      72.214  -4.184 -21.114  1.00  0.00     0.016 A
HETATM   11  C10 UNL     1      70.927  -4.670 -21.213  1.00  0.00     0.022 A
HETATM   12  C11 UNL     1      69.870  -4.057 -20.572  1.00  0.00     0.020 A
HETATM   13  C19 UNL     1      70.113  -2.932 -19.814  1.00  0.00     0.051 A
HETATM   14  C20 UNL     1      71.405  -2.456 -19.723  1.00  0.00     0.047 A
ENDROOT
BRANCH  12  15
HETATM   15  C12 UNL     1      68.541  -4.588 -20.695  1.00  0.00    -0.060 C
HETATM   16  C13 UNL     1      67.425  -5.029 -20.819  1.00  0.00    -0.043 C
BRANCH  16  17
HETATM   17  C14 UNL     1      66.080  -5.553 -20.991  1.00  0.00     0.086 A
HETATM   18  C15 UNL     1      65.862  -6.811 -21.502  1.00  0.00     0.039 A
HETATM   19  C16 UNL     1      64.580  -7.283 -21.655  1.00  0.00     0.004 A
HETATM   20  C17 UNL     1      63.538  -6.481 -21.289  1.00  0.00     0.017 A
HETATM   21  C18 UNL     1      63.792  -5.226 -20.780  1.00  0.00     0.089 A
HETATM   22  N2  UNL     1      65.051  -4.786 -20.640  1.00  0.00    -0.359 N
ATOM     23  H2  UNL     1      65.222  -3.854 -20.262  1.00  0.00     0.166 HD
ENDBRANCH  16  17
ENDBRANCH  12  15
TORSDOF 2
ENDMDL