MODEL 1
REMARK VINA RESULT: -11.302737236      0.000      0.000
REMARK  0 active torsions:
REMARK  status: ('A' for Active; 'I' for Inactive)
ROOT
HETATM    1  C1  UNL     1      73.315  -2.822 -20.353  1.00  0.00     0.156 C
HETATM    2  N1  UNL     1      72.035  -3.432 -20.552  1.00  0.00    -0.358 N
HETATM    3  C2  UNL     1      71.934  -4.603 -21.211  1.00  0.00     0.107 A
HETATM    4  C3  UNL     1      70.736  -5.223 -21.425  1.00  0.00     0.105 A
HETATM    5  N2  UNL     1      69.597  -4.698 -20.988  1.00  0.00    -0.362 N
ATOM      6  H2  UNL     1      68.705  -5.165 -21.150  1.00  0.00     0.165 HD
HETATM    7  C4  UNL     1      69.661  -3.515 -20.317  1.00  0.00     0.072 A
HETATM    8  C5  UNL     1      68.467  -2.954 -19.853  1.00  0.00     0.031 A
HETATM    9  C6  UNL     1      68.555  -1.759 -19.177  1.00  0.00    -0.021 A
HETATM   10  C7  UNL     1      67.371  -1.199 -18.714  1.00  0.00     0.013 A
HETATM   11  C8  UNL     1      66.155  -1.818 -18.926  1.00  0.00     0.014 A
HETATM   12  C9  UNL     1      66.108  -3.022 -19.611  1.00  0.00    -0.008 A
HETATM   13  C10 UNL     1      64.927  -3.694 -19.857  1.00  0.00     0.027 A
HETATM   14  C11 UNL     1      64.941  -4.896 -20.549  1.00  0.00    -0.009 A
HETATM   15  C12 UNL     1      63.766  -5.592 -20.809  1.00  0.00     0.014 A
HETATM   16  C13 UNL     1      63.794  -6.787 -21.498  1.00  0.00     0.001 A
HETATM   17  C14 UNL     1      64.975  -7.313 -21.942  1.00  0.00     0.002 A
HETATM   18  C15 UNL     1      66.152  -6.654 -21.702  1.00  0.00     0.030 A
HETATM   19  C16 UNL     1      66.115  -5.446 -21.004  1.00  0.00     0.043 A
HETATM   20  N3  UNL     1      67.260  -4.775 -20.755  1.00  0.00    -0.354 N
ATOM     21  H3  UNL     1      68.144  -5.164 -21.083  1.00  0.00     0.166 HD
HETATM   22  C17 UNL     1      67.268  -3.607 -20.085  1.00  0.00     0.056 A
HETATM   23  C18 UNL     1      69.778  -1.162 -18.979  1.00  0.00     0.014 A
HETATM   24  C19 UNL     1      70.959  -1.711 -19.435  1.00  0.00     0.033 A
HETATM   25  C20 UNL     1      70.877  -2.901 -20.108  1.00  0.00     0.061 A
ENDROOT
TORSDOF 0
ENDMDL