MODEL 2
REMARK VINA RESULT: -9.190766637      1.183      1.347
REMARK  6 active torsions:
REMARK  status: ('A' for Active; 'I' for Inactive)
REMARK    1  A    between atoms: C2_2  and  C3_3
REMARK    2  A    between atoms: C3_3  and  N1_4
REMARK       I    between atoms: N1_4  and  C4_6
REMARK    3  A    between atoms: C4_6  and  C5_8
REMARK    4  A    between atoms: C7_12  and  N3_13
REMARK       I    between atoms: N3_13  and  C8_15
REMARK    5  A    between atoms: C8_15  and  C9_17
REMARK    6  A    between atoms: C9_17  and  C10_18
ROOT
HETATM    1  C5  UNL     1       9.296  20.177  49.483  1.00  0.00     0.199 C
HETATM    2  N2  UNL     1      10.495  19.691  50.078  1.00  0.00    -0.313 N
HETATM    3  C6  UNL     1      11.491  19.322  51.059  1.00  0.00     0.271 C
HETATM    4  O2  UNL     1      11.586  19.669  52.278  1.00  0.00    -0.266 OA
HETATM    5  C7  UNL     1      12.212  18.496  50.117  1.00  0.00     0.114 C
HETATM    6  C18 UNL     1      11.454  19.187  49.092  1.00  0.00     0.207 C
HETATM    7  S2  UNL     1      10.255  18.153  48.147  1.00  0.00    -0.125 SA
HETATM    8  C19 UNL     1       8.827  19.293  48.388  1.00  0.00     0.032 C
HETATM    9  C20 UNL     1       8.662  20.007  47.065  1.00  0.00     0.029 C
HETATM   10  C21 UNL     1       7.579  18.525  48.709  1.00  0.00     0.029 C
ENDROOT
BRANCH   5  11
HETATM   11  N3  UNL     1      13.096  17.593  50.199  1.00  0.00    -0.323 N
HETATM   12  C8  UNL     1      14.162  17.581  49.262  1.00  0.00     0.223 C
HETATM   13  O3  UNL     1      14.810  18.614  49.065  1.00  0.00    -0.273 OA
ATOM     14  H3  UNL     1      13.042  16.883  50.928  1.00  0.00     0.169 HD
BRANCH  12  15
HETATM   15  C9  UNL     1      14.446  16.317  48.564  1.00  0.00     0.131 C
BRANCH  15  16
HETATM   16  C10 UNL     1      14.663  16.415  47.104  1.00  0.00     0.193 C
HETATM   17  C11 UNL     1      15.406  15.259  46.560  1.00  0.00     0.281 C
HETATM   18  O4  UNL     1      15.933  14.430  47.319  1.00  0.00    -0.263 OA
HETATM   19  O5  UNL     1      15.540  15.058  45.189  1.00  0.00    -0.276 OA
HETATM   20  C12 UNL     1      14.646  15.438  44.229  1.00  0.00     0.098 A
HETATM   21  C13 UNL     1      14.891  15.175  42.867  1.00  0.00     0.039 A
HETATM   22  C17 UNL     1      13.485  16.085  44.572  1.00  0.00     0.066 A
HETATM   23  C14 UNL     1      13.992  15.556  41.908  1.00  0.00     0.003 A
HETATM   24  C15 UNL     1      12.833  16.202  42.271  1.00  0.00     0.002 A
HETATM   25  C16 UNL     1      12.586  16.463  43.601  1.00  0.00     0.024 A
HETATM   26  S1  UNL     1      13.082  16.479  46.228  1.00  0.00     0.067 S
HETATM   27  O6  UNL     1      12.020  15.342  46.851  1.00  0.00    -0.252 OA
ENDBRANCH  15  16
ENDBRANCH  12  15
ENDBRANCH   5  11
BRANCH   1  28
HETATM   28  C4  UNL     1       9.364  21.622  49.141  1.00  0.00     0.242 C
HETATM   29  N1  UNL     1       8.249  22.492  49.190  1.00  0.00    -0.359 N
ATOM     30  H1  UNL     1       7.347  22.112  49.476  1.00  0.00     0.162 HD
HETATM   31  O1  UNL     1      10.467  22.134  48.783  1.00  0.00    -0.271 OA
BRANCH  29  32
HETATM   32  C3  UNL     1       8.334  23.892  48.851  1.00  0.00     0.122 C
BRANCH  32  33
HETATM   33  C2  UNL     1       8.215  24.766  50.095  1.00  0.00     0.015 C
HETATM   34  C1  UNL     1       8.211  26.240  49.709  1.00  0.00     0.006 C
ENDBRANCH  32  33
ENDBRANCH  29  32
ENDBRANCH   1  28
TORSDOF 6
ENDMDL