MODEL 4
REMARK VINA RESULT: -7.812802136      3.163      6.014
REMARK  9 active torsions:
REMARK  status: ('A' for Active; 'I' for Inactive)
REMARK    1  A    between atoms: C3_3  and  C4_4
REMARK    2  A    between atoms: C5_5  and  C6_6
REMARK    3  A    between atoms: C7_7  and  C9_9
REMARK    4  A    between atoms: C11_13  and  C12_14
REMARK    5  A    between atoms: C12_14  and  C14_16
REMARK    6  A    between atoms: C14_16  and  N1_17
REMARK    7  A    between atoms: C17_25  and  N2_27
REMARK    8  A    between atoms: N2_27  and  S1_29
REMARK    9  A    between atoms: C21_33  and  O7_34
ROOT
HETATM    1  C1  UNL     1      14.503  14.567  42.174  1.00  0.00     0.113 C
HETATM    2  C2  UNL     1      14.007  15.581  43.107  1.00  0.00    -0.097 C
HETATM    3  C3  UNL     1      13.586  16.423  43.861  1.00  0.00    -0.015 C
ENDROOT
BRANCH   3   4
HETATM    4  C4  UNL     1      13.111  17.398  44.757  1.00  0.00    -0.011 C
HETATM    5  C5  UNL     1      12.698  18.232  45.508  1.00  0.00    -0.064 C
BRANCH   5   6
HETATM    6  C6  UNL     1      12.200  19.237  46.386  1.00  0.00     0.070 C
HETATM    7  C7  UNL     1      11.293  20.085  45.979  1.00  0.00    -0.043 C
HETATM    8  C8  UNL     1      10.791  19.988  44.599  1.00  0.00     0.046 C
BRANCH   7   9
HETATM    9  C9  UNL     1      10.784  21.125  46.942  1.00  0.00     0.215 C
HETATM   10  C10 UNL     1       9.926  20.459  47.946  1.00  0.00     0.288 C
HETATM   11  O1  UNL     1       8.909  19.902  47.443  1.00  0.00    -0.262 OA
HETATM   12  O2  UNL     1      10.103  20.389  49.268  1.00  0.00    -0.287 OA
HETATM   13  C11 UNL     1      10.777  21.254  50.152  1.00  0.00     0.284 C
HETATM   14  O3  UNL     1       9.776  22.174  50.545  1.00  0.00    -0.289 OA
HETATM   15  C15 UNL     1       9.691  23.492  50.181  1.00  0.00     0.264 C
HETATM   16  O4  UNL     1       9.313  24.284  51.083  1.00  0.00    -0.265 OA
HETATM   17  C16 UNL     1      10.020  23.933  48.847  1.00  0.00     0.151 C
HETATM   18  C17 UNL     1       8.914  23.962  47.810  1.00  0.00     0.112 C
HETATM   19  C18 UNL     1       7.596  23.413  48.441  1.00  0.00     0.049 C
HETATM   20  C21 UNL     1       9.138  23.082  46.654  1.00  0.00     0.144 C
HETATM   21  N3  UNL     1      10.221  22.255  46.274  1.00  0.00    -0.350 N
HETATM   22  C22 UNL     1      10.836  22.578  44.988  1.00  0.00     0.152 C
BRANCH  13  23
HETATM   23  C12 UNL     1      11.155  20.439  51.374  1.00  0.00     0.063 C
HETATM   24  C13 UNL     1      11.998  19.239  51.035  1.00  0.00     0.016 C
BRANCH  23  25
HETATM   25  C14 UNL     1      10.018  20.112  52.278  1.00  0.00     0.238 C
BRANCH  25  26
HETATM   26  N1  UNL     1       8.841  19.591  51.624  1.00  0.00    -0.079 N
ATOM     27  H13 UNL     1       8.732  18.600  51.839  1.00  0.00     0.274 HD
ATOM     28  H12 UNL     1       8.001  19.964  52.066  1.00  0.00     0.274 HD
ATOM     29  H11 UNL     1       8.803  19.738  50.616  1.00  0.00     0.274 HD
ENDBRANCH  25  26
ENDBRANCH  23  25
ENDBRANCH  13  23
BRANCH  18  30
HETATM   30  N2  UNL     1       8.605  25.318  47.615  1.00  0.00    -0.297 N
HETATM   31  C19 UNL     1       9.703  26.113  47.095  1.00  0.00     0.164 C
BRANCH  30  32
HETATM   32  S1  UNL     1       7.140  26.021  47.489  1.00  0.00     0.225 S
HETATM   33  C20 UNL     1       7.128  27.720  47.047  1.00  0.00     0.186 C
HETATM   34  O5  UNL     1       6.352  25.312  46.366  1.00  0.00    -0.206 OA
HETATM   35  O6  UNL     1       6.230  25.893  48.688  1.00  0.00    -0.206 OA
ENDBRANCH  30  32
ENDBRANCH  18  30
BRANCH  20  36
HETATM   36  O7  UNL     1       8.100  23.101  45.859  1.00  0.00    -0.347 OA
ATOM     37  H7  UNL     1       7.774  22.219  45.720  1.00  0.00     0.219 HD
ENDBRANCH  20  36
ENDBRANCH   7   9
ENDBRANCH   5   6
ENDBRANCH   3   4
TORSDOF 9
ENDMDL