MODEL 1
REMARK VINA RESULT: -8.691215761      0.000      0.000
REMARK  5 active torsions:
REMARK  status: ('A' for Active; 'I' for Inactive)
REMARK    1  A    between atoms: C12_14  and  O3_15
REMARK    2  A    between atoms: C17_22  and  C18_23
REMARK    3  A    between atoms: N2_29  and  C21_30
REMARK    4  A    between atoms: C21_30  and  C22_31
REMARK    5  A    between atoms: C22_31  and  N3_32
ROOT
HETATM    1  C1  UNL     1       9.113  23.674  46.479  1.00  0.00     0.037 C
HETATM    2  C2  UNL     1       9.875  22.540  45.982  1.00  0.00    -0.017 C
HETATM    3  C3  UNL     1      10.630  21.629  46.598  1.00  0.00     0.001 A
HETATM    4  C4  UNL     1      10.852  21.622  48.035  1.00  0.00     0.038 A
HETATM    5  C5  UNL     1      11.633  20.555  48.328  1.00  0.00     0.079 A
HETATM    6  O1  UNL     1      11.944  20.346  49.699  1.00  0.00    -0.353 OA
HETATM    7  C6  UNL     1      11.164  19.853  50.725  1.00  0.00     0.178 C
HETATM    8  C7  UNL     1       9.855  19.255  50.376  1.00  0.00     0.065 C
HETATM    9  C8  UNL     1       8.683  20.188  50.699  1.00  0.00     0.063 A
HETATM   10  C9  UNL     1       7.473  19.620  51.342  1.00  0.00     0.041 A
HETATM   11  C10 UNL     1       8.394  20.591  52.074  1.00  0.00     0.041 A
HETATM   12  O2  UNL     1       8.595  21.066  49.652  1.00  0.00    -0.374 OA
HETATM   13  C11 UNL     1       9.264  22.244  49.914  1.00  0.00     0.234 C
HETATM   14  C12 UNL     1      10.507  22.499  49.191  1.00  0.00     0.080 C
HETATM   15  C13 UNL     1      11.994  19.887  47.108  1.00  0.00     0.159 A
HETATM   16  S1  UNL     1      12.003  18.104  47.009  1.00  0.00    -0.119 SA
HETATM   17  C14 UNL     1      12.823  18.054  45.389  1.00  0.00     0.204 C
HETATM   18  C15 UNL     1      13.135  16.745  44.877  1.00  0.00    -0.030 C
HETATM   19  C16 UNL     1      13.609  15.604  45.704  1.00  0.00     0.048 C
HETATM   20  C17 UNL     1      12.908  16.781  43.568  1.00  0.00     0.084 C
HETATM   21  C20 UNL     1      12.265  18.097  43.267  1.00  0.00     0.277 C
HETATM   22  O5  UNL     1      11.973  18.357  42.080  1.00  0.00    -0.265 OA
HETATM   23  N1  UNL     1      12.101  18.839  44.452  1.00  0.00    -0.235 N
HETATM   24  N2  UNL     1      11.353  20.005  44.765  1.00  0.00    -0.286 N
HETATM   25  C25 UNL     1      11.300  20.484  45.980  1.00  0.00     0.060 A
ENDROOT
BRANCH  24  26
HETATM   26  C21 UNL     1      10.679  20.616  43.651  1.00  0.00     0.168 C
BRANCH  26  27
HETATM   27  C22 UNL     1      11.481  21.660  42.909  1.00  0.00     0.137 C
BRANCH  27  28
HETATM   28  N3  UNL     1      10.677  22.292  41.912  1.00  0.00    -0.419 N
HETATM   29  C23 UNL     1       9.539  22.995  42.264  1.00  0.00     0.142 C
HETATM   30  C24 UNL     1      11.151  22.244  40.597  1.00  0.00     0.142 C
ENDBRANCH  27  28
ENDBRANCH  26  27
ENDBRANCH  24  26
BRANCH  20  31
HETATM   31  C18 UNL     1      13.103  15.682  42.623  1.00  0.00     0.161 C
HETATM   32  C19 UNL     1      14.396  15.119  42.241  1.00  0.00     0.097 C
HETATM   33  O4  UNL     1      12.050  15.186  42.104  1.00  0.00    -0.293 OA
ENDBRANCH  20  31
BRANCH  14  34
HETATM   34  O3  UNL     1      10.715  23.826  48.930  1.00  0.00    -0.362 OA
ATOM     35  H3  UNL     1      10.593  24.375  49.695  1.00  0.00     0.217 HD
ENDBRANCH  14  34
TORSDOF 5
ENDMDL