MODEL 2
REMARK VINA RESULT: -9.294957090      1.606      2.116
REMARK  6 active torsions:
REMARK  status: ('A' for Active; 'I' for Inactive)
REMARK    1  A    between atoms: C2_2  and  O1_3
REMARK    2  A    between atoms: O1_3  and  C3_4
REMARK    3  A    between atoms: C3_4  and  C4_6
REMARK    4  A    between atoms: C4_6  and  C5_8
REMARK    5  A    between atoms: C8_11  and  N1_12
REMARK       I    between atoms: N1_12  and  C9_14
REMARK    6  A    between atoms: C9_14  and  C10_16
REMARK       I    between atoms: N2_18  and  C12_19
REMARK       I    between atoms: C12_19  and  N3_21
ROOT
HETATM    1  C10 UNL     1       9.914  20.710  49.049  1.00  0.00     0.143 C
HETATM    2  C11 UNL     1       9.409  22.024  48.473  1.00  0.00     0.157 C
HETATM    3  N2  UNL     1       8.241  21.711  47.671  1.00  0.00    -0.332 N
HETATM    4  C12 UNL     1       7.612  22.706  46.859  1.00  0.00     0.320 C
HETATM    5  O5  UNL     1       6.568  22.284  46.217  1.00  0.00    -0.247 OA
HETATM    6  N3  UNL     1       7.943  24.030  46.656  1.00  0.00    -0.330 N
HETATM    7  C13 UNL     1       7.090  24.834  45.760  1.00  0.00     0.153 C
HETATM    8  C14 UNL     1       7.906  25.647  44.786  1.00  0.00     0.187 C
HETATM    9  O6  UNL     1       8.958  26.306  45.429  1.00  0.00    -0.388 OA
HETATM   10  C15 UNL     1       8.884  26.202  46.796  1.00  0.00     0.187 C
HETATM   11  C16 UNL     1       9.055  24.724  47.224  1.00  0.00     0.153 C
HETATM   12  C17 UNL     1       7.663  20.375  47.646  1.00  0.00     0.128 C
HETATM   13  C18 UNL     1       7.649  19.652  48.959  1.00  0.00     0.028 C
HETATM   14  C19 UNL     1       8.775  20.136  49.788  1.00  0.00     0.034 C
HETATM   15  C20 UNL     1       9.352  19.252  50.808  1.00  0.00     0.131 C
HETATM   16  N4  UNL     1      10.674  19.805  51.031  1.00  0.00    -0.355 N
HETATM   17  C21 UNL     1      11.635  19.241  51.957  1.00  0.00     0.152 C
HETATM   18  C22 UNL     1      10.853  20.970  50.205  1.00  0.00     0.239 C
HETATM   19  O7  UNL     1      11.603  21.928  50.424  1.00  0.00    -0.272 OA
ENDROOT
BRANCH   1  20
HETATM   20  C9  UNL     1      10.660  19.939  48.096  1.00  0.00     0.238 C
HETATM   21  N1  UNL     1      10.773  18.558  47.933  1.00  0.00    -0.355 N
ATOM     22  H1  UNL     1      10.252  17.967  48.581  1.00  0.00     0.162 HD
HETATM   23  O4  UNL     1      11.348  20.617  47.238  1.00  0.00    -0.272 OA
BRANCH  21  24
HETATM   24  C8  UNL     1      11.573  17.892  46.917  1.00  0.00     0.084 C
HETATM   25  C7  UNL     1      13.005  18.341  46.977  1.00  0.00     0.026 C
HETATM   26  C6  UNL     1      13.844  17.513  46.054  1.00  0.00     0.015 C
HETATM   27  C5  UNL     1      13.582  16.044  46.105  1.00  0.00     0.066 C
HETATM   28  C24 UNL     1      12.790  15.761  47.370  1.00  0.00     0.015 C
HETATM   29  C23 UNL     1      11.425  16.405  47.165  1.00  0.00     0.026 C
BRANCH  27  30
HETATM   30  C4  UNL     1      14.881  15.326  46.112  1.00  0.00     0.228 C
HETATM   31  O3  UNL     1      15.275  14.837  47.205  1.00  0.00    -0.286 OA
BRANCH  30  32
HETATM   32  C3  UNL     1      15.687  15.175  44.930  1.00  0.00     0.329 C
HETATM   33  O2  UNL     1      16.782  15.797  44.824  1.00  0.00    -0.256 OA
BRANCH  32  34
HETATM   34  O1  UNL     1      15.292  14.362  43.899  1.00  0.00    -0.316 OA
BRANCH  34  35
HETATM   35  C2  UNL     1      14.979  14.869  42.601  1.00  0.00     0.175 C
HETATM   36  C1  UNL     1      13.642  15.577  42.610  1.00  0.00     0.034 C
ENDBRANCH  34  35
ENDBRANCH  32  34
ENDBRANCH  30  32
ENDBRANCH  27  30
ENDBRANCH  21  24
ENDBRANCH   1  20
TORSDOF 6
ENDMDL