MODEL 4
REMARK VINA RESULT: -7.723204909      2.944      6.481
REMARK  5 active torsions:
REMARK  status: ('A' for Active; 'I' for Inactive)
REMARK    1  A    between atoms: C2_2  and  C3_3
REMARK    2  A    between atoms: C3_3  and  N1_5
REMARK    3  A    between atoms: C10_12  and  C11_13
REMARK       I    between atoms: C11_13  and  N2_15
REMARK    4  A    between atoms: C15_19  and  C16_20
REMARK    5  A    between atoms: C18_27  and  C19_28
ROOT
HETATM    1  N1  UNL     1      10.758  23.252  45.878  1.00  0.00     0.095 N
HETATM    2  C5  UNL     1      10.316  23.519  47.268  1.00  0.00     0.280 C
HETATM    3  C6  UNL     1       9.633  22.249  47.524  1.00  0.00     0.052 C
HETATM    4  C7  UNL     1       9.092  21.753  48.722  1.00  0.00     0.015 C
HETATM    5  C8  UNL     1       8.484  22.707  49.746  1.00  0.00     0.179 C
HETATM    6  O1  UNL     1       8.027  21.848  50.760  1.00  0.00    -0.389 OA
HETATM    7  C9  UNL     1       8.885  20.779  50.853  1.00  0.00     0.182 C
HETATM    8  C10 UNL     1       9.880  20.883  49.666  1.00  0.00     0.114 C
HETATM    9  C17 UNL     1       7.926  20.799  48.344  1.00  0.00     0.154 C
HETATM   10  S1  UNL     1       8.311  20.470  46.604  1.00  0.00     0.156 S
HETATM   11  O5  UNL     1       9.526  19.635  46.526  1.00  0.00    -0.227 OA
HETATM   12  O6  UNL     1       7.144  19.991  45.879  1.00  0.00    -0.227 OA
HETATM   13  C18 UNL     1       8.701  22.218  46.328  1.00  0.00     0.102 C
HETATM   14  C23 UNL     1       9.714  22.445  45.279  1.00  0.00     0.299 C
ENDROOT
BRANCH   8  15
HETATM   15  C11 UNL     1      11.122  21.309  50.221  1.00  0.00     0.227 C
HETATM   16  O2  UNL     1      11.393  22.325  50.908  1.00  0.00    -0.273 OA
HETATM   17  N2  UNL     1      12.266  20.499  49.993  1.00  0.00    -0.337 N
HETATM   18  C12 UNL     1      13.631  20.730  50.444  1.00  0.00     0.127 C
HETATM   19  C15 UNL     1      12.341  19.264  49.249  1.00  0.00     0.188 C
HETATM   20  C13 UNL     1      14.497  20.259  49.305  1.00  0.00     0.022 C
HETATM   21  C14 UNL     1      13.572  19.497  48.356  1.00  0.00     0.038 C
BRANCH  19  22
HETATM   22  C16 UNL     1      12.515  18.054  50.060  1.00  0.00     0.196 C
HETATM   23  O3  UNL     1      12.849  16.963  49.531  1.00  0.00    -0.646 OA
HETATM   24  O4  UNL     1      12.326  18.046  51.428  1.00  0.00    -0.646 OA
ENDBRANCH  19  22
ENDBRANCH   8  15
BRANCH  13  25
HETATM   25  C19 UNL     1       7.465  22.904  46.286  1.00  0.00     0.037 C
HETATM   26  C20 UNL     1       7.246  24.308  46.717  1.00  0.00     0.035 C
HETATM   27  C21 UNL     1       5.898  24.591  46.025  1.00  0.00     0.168 C
HETATM   28  O7  UNL     1       5.800  23.650  44.990  1.00  0.00    -0.391 OA
HETATM   29  C22 UNL     1       7.117  23.166  44.799  1.00  0.00     0.174 C
ENDBRANCH  13  25
BRANCH   1  30
HETATM   30  C3  UNL     1      11.065  24.415  45.143  1.00  0.00     0.218 C
HETATM   31  C4  UNL     1      11.973  24.064  44.005  1.00  0.00     0.043 C
BRANCH  30  32
HETATM   32  C2  UNL     1      11.764  25.456  45.978  1.00  0.00     0.031 C
HETATM   33  C1  UNL     1      11.167  26.806  45.663  1.00  0.00     0.007 C
ENDBRANCH  30  32
ENDBRANCH   1  30
TORSDOF 5
ENDMDL