MODEL 4
REMARK VINA RESULT: -7.920905540      4.273      5.961
REMARK  7 active torsions:
REMARK  status: ('A' for Active; 'I' for Inactive)
REMARK       I    between atoms: N1_2  and  C2_4
REMARK    1  A    between atoms: C2_4  and  C3_6
REMARK    2  A    between atoms: N3_21  and  C13_22
REMARK    3  A    between atoms: C13_22  and  C14_23
REMARK    4  A    between atoms: C14_23  and  O6_24
REMARK    5  A    between atoms: O6_24  and  C15_25
REMARK    6  A    between atoms: C15_25  and  N4_27
REMARK    7  A    between atoms: N4_27  and  C16_29
ROOT
HETATM    1  C3  UNL     1       8.940  24.874  47.531  1.00  0.00     0.121 C
HETATM    2  C4  UNL     1       7.646  25.693  47.616  1.00  0.00     0.052 C
HETATM    3  C5  UNL     1       6.629  24.982  46.792  1.00  0.00     0.158 C
HETATM    4  O2  UNL     1       6.100  25.750  45.764  1.00  0.00    -0.348 OA
HETATM    5  C6  UNL     1       6.385  25.127  44.574  1.00  0.00     0.158 C
HETATM    6  C7  UNL     1       5.388  24.069  44.194  1.00  0.00     0.078 C
HETATM    7  C8  UNL     1       6.600  26.051  43.415  1.00  0.00     0.078 C
HETATM    8  O3  UNL     1       7.601  24.466  44.834  1.00  0.00    -0.345 OA
HETATM    9  C9  UNL     1       7.342  23.872  46.023  1.00  0.00     0.192 C
HETATM   10  C10 UNL     1       8.515  23.609  46.936  1.00  0.00     0.133 C
HETATM   11  O4  UNL     1       7.868  22.876  47.978  1.00  0.00    -0.260 OA
HETATM   12  N2  UNL     1       8.664  22.555  48.986  1.00  0.00    -0.217 N
HETATM   13  C11 UNL     1       8.363  22.862  50.360  1.00  0.00     0.272 C
HETATM   14  O5  UNL     1       7.448  23.671  50.629  1.00  0.00    -0.269 OA
HETATM   15  C12 UNL     1       9.121  22.228  51.443  1.00  0.00     0.377 C
HETATM   16  N3  UNL     1      10.452  21.840  51.138  1.00  0.00     0.101 N
HETATM   17  C19 UNL     1      10.922  22.160  49.827  1.00  0.00     0.300 C
HETATM   18  C20 UNL     1       9.889  21.853  48.752  1.00  0.00     0.147 C
HETATM   19  C21 UNL     1      10.495  22.191  47.451  1.00  0.00     0.037 C
HETATM   20  C22 UNL     1       9.508  22.661  46.402  1.00  0.00     0.024 C
HETATM   21  C23 UNL     1      10.278  22.992  45.192  1.00  0.00     0.013 C
ENDROOT
BRANCH   1  22
HETATM   22  C2  UNL     1      10.024  25.638  46.944  1.00  0.00     0.228 C
HETATM   23  N1  UNL     1       9.763  26.551  45.892  1.00  0.00    -0.347 N
HETATM   24  C1  UNL     1      10.266  27.739  45.853  1.00  0.00     0.121 C
ATOM     25  H1  UNL     1       9.149  26.256  45.132  1.00  0.00     0.167 HD
HETATM   26  O1  UNL     1      11.224  25.552  47.308  1.00  0.00    -0.273 OA
ENDBRANCH   1  22
BRANCH  16  27
HETATM   27  C13 UNL     1      10.772  20.467  51.524  1.00  0.00     0.299 C
BRANCH  27  28
HETATM   28  C14 UNL     1       9.458  19.791  51.819  1.00  0.00     0.208 C
BRANCH  28  29
HETATM   29  O6  UNL     1       8.999  18.849  50.981  1.00  0.00    -0.325 OA
BRANCH  29  30
HETATM   30  C15 UNL     1       8.586  18.740  49.726  1.00  0.00     0.210 C
HETATM   31  S1  UNL     1       9.714  18.380  48.535  1.00  0.00    -0.033 SA
BRANCH  30  32
HETATM   32  N4  UNL     1       7.266  18.896  49.263  1.00  0.00    -0.357 N
ATOM     33  H4  UNL     1       6.958  19.772  48.841  1.00  0.00     0.162 HD
BRANCH  32  34
HETATM   34  C16 UNL     1       6.344  17.761  49.405  1.00  0.00     0.084 A
HETATM   35  C17 UNL     1       5.482  17.434  48.209  1.00  0.00     0.027 A
HETATM   36  C18 UNL     1       6.614  16.537  48.621  1.00  0.00     0.027 A
ENDBRANCH  32  34
ENDBRANCH  30  32
ENDBRANCH  29  30
ENDBRANCH  28  29
ENDBRANCH  27  28
ENDBRANCH  16  27
TORSDOF 7
ENDMDL