MODEL 2
REMARK VINA RESULT: -9.156811539      0.812      1.211
REMARK  5 active torsions:
REMARK  status: ('A' for Active; 'I' for Inactive)
REMARK    1  A    between atoms: N1_9  and  C8_10
REMARK    2  A    between atoms: C8_10  and  C9_11
REMARK    3  A    between atoms: C15_19  and  S1_20
REMARK    4  A    between atoms: S1_20  and  C16_21
REMARK    5  A    between atoms: C22_27  and  C23_28
ROOT
HETATM    1  C1  UNL     1       7.263  25.756  49.644  1.00  0.00     0.099 C
HETATM    2  C2  UNL     1       7.984  24.794  49.396  1.00  0.00    -0.143 C
HETATM    3  C3  UNL     1       8.838  23.602  49.107  1.00  0.00     0.247 C
HETATM    4  C4  UNL     1       7.957  22.448  49.415  1.00  0.00     0.066 C
HETATM    5  C5  UNL     1      10.070  23.778  49.931  1.00  0.00     0.268 C
HETATM    6  O1  UNL     1      10.882  24.553  49.055  1.00  0.00    -0.337 OA
HETATM    7  C6  UNL     1      10.073  24.997  48.011  1.00  0.00     0.382 C
HETATM    8  C7  UNL     1      10.807  25.173  46.687  1.00  0.00     0.186 C
HETATM    9  N1  UNL     1      10.239  24.428  45.603  1.00  0.00    -0.385 N
HETATM   10  C12 UNL     1      10.235  22.979  45.790  1.00  0.00     0.181 C
HETATM   11  C13 UNL     1      10.323  22.863  47.274  1.00  0.00     0.370 C
HETATM   12  N2  UNL     1      10.465  21.557  47.820  1.00  0.00    -0.218 N
HETATM   13  C14 UNL     1      10.454  20.293  47.196  1.00  0.00     0.257 C
HETATM   14  O2  UNL     1      10.610  20.145  45.958  1.00  0.00    -0.270 OA
HETATM   15  C15 UNL     1      10.233  19.323  48.278  1.00  0.00     0.176 C
HETATM   16  C22 UNL     1      10.916  19.968  49.465  1.00  0.00     0.235 C
HETATM   17  N3  UNL     1      10.685  21.363  49.222  1.00  0.00    -0.235 N
HETATM   18  C24 UNL     1      10.700  22.449  50.186  1.00  0.00     0.272 C
HETATM   19  O5  UNL     1      11.286  22.210  51.269  1.00  0.00    -0.269 OA
HETATM   20  N4  UNL     1       9.328  23.727  47.808  1.00  0.00     0.168 N
ENDROOT
BRANCH  16  21
HETATM   21  C23 UNL     1      10.371  19.495  50.727  1.00  0.00     0.200 C
HETATM   22  O3  UNL     1       9.215  19.521  51.124  1.00  0.00    -0.646 OA
HETATM   23  O4  UNL     1      11.317  18.920  51.624  1.00  0.00    -0.646 OA
ENDBRANCH  16  21
BRANCH   9  24
HETATM   24  C8  UNL     1      10.525  24.869  44.314  1.00  0.00     0.063 C
BRANCH  24  25
HETATM   25  C9  UNL     1      11.953  24.750  43.872  1.00  0.00     0.024 A
HETATM   26  C10 UNL     1      12.217  23.605  42.873  1.00  0.00     0.010 A
HETATM   27  C11 UNL     1      12.410  25.058  42.518  1.00  0.00     0.010 A
ENDBRANCH  24  25
ENDBRANCH   9  24
BRANCH  15  28
HETATM   28  S1  UNL     1      10.523  17.660  47.974  1.00  0.00    -0.147 SA
BRANCH  28  29
HETATM   29  C16 UNL     1      12.065  17.019  47.498  1.00  0.00     0.048 C
HETATM   30  C17 UNL     1      12.437  17.288  46.027  1.00  0.00     0.015 C
HETATM   31  C18 UNL     1      13.467  16.286  45.641  1.00  0.00     0.001 C
HETATM   32  C19 UNL     1      14.033  15.489  46.768  1.00  0.00     0.000 C
HETATM   33  C20 UNL     1      14.331  16.272  48.000  1.00  0.00     0.001 C
HETATM   34  C21 UNL     1      13.279  17.352  48.291  1.00  0.00     0.015 C
ENDBRANCH  28  29
ENDBRANCH  15  28
TORSDOF 5
ENDMDL