MODEL 5
REMARK VINA RESULT: -6.603851344      3.894      8.635
REMARK  11 active torsions:
REMARK  status: ('A' for Active; 'I' for Inactive)
REMARK    1  A    between atoms: C2_2  and  C3_3
REMARK       I    between atoms: C3_3  and  N1_5
REMARK    2  A    between atoms: C9_11  and  C10_12
REMARK    3  A    between atoms: C9_11  and  C11_15
REMARK    4  A    between atoms: C10_12  and  O2_13
REMARK    5  A    between atoms: C11_15  and  O4_17
REMARK    6  A    between atoms: O4_17  and  C12_18
REMARK    7  A    between atoms: N2_20  and  C14_21
REMARK    8  A    between atoms: C14_21  and  C15_23
REMARK    9  A    between atoms: C15_23  and  S2_24
REMARK   10  A    between atoms: S2_24  and  C16_25
REMARK   11  A    between atoms: C16_25  and  N3_27
ROOT
HETATM    1  C3  UNL     1      11.230  18.196  47.324  1.00  0.00     0.243 C
HETATM    2  O1  UNL     1      11.733  18.535  46.196  1.00  0.00    -0.268 OA
HETATM    3  N1  UNL     1      11.144  19.190  48.307  1.00  0.00    -0.339 N
HETATM    4  C4  UNL     1      11.608  20.534  48.039  1.00  0.00     0.152 C
HETATM    5  C5  UNL     1      11.311  21.339  49.287  1.00  0.00     0.104 C
HETATM    6  C6  UNL     1      12.019  20.732  50.467  1.00  0.00     0.029 C
HETATM    7  C7  UNL     1      11.681  19.269  50.619  1.00  0.00     0.030 C
HETATM    8  C8  UNL     1      10.600  18.948  49.614  1.00  0.00     0.128 C
HETATM    9  C9  UNL     1       9.385  19.926  49.840  1.00  0.00     0.164 C
HETATM   10  N2  UNL     1       9.842  21.228  49.511  1.00  0.00    -0.346 N
ENDROOT
BRANCH  10  11
HETATM   11  C14 UNL     1       9.115  22.421  49.306  1.00  0.00     0.087 C
HETATM   12  S1  UNL     1       8.207  22.947  50.604  1.00  0.00    -0.065 SA
BRANCH  11  13
HETATM   13  C15 UNL     1       9.080  23.275  48.134  1.00  0.00     0.151 C
BRANCH  13  14
HETATM   14  S2  UNL     1       9.956  24.840  48.475  1.00  0.00    -0.094 SA
BRANCH  14  15
HETATM   15  C16 UNL     1       9.015  26.264  47.970  1.00  0.00     0.137 C
HETATM   16  S3  UNL     1       9.291  26.879  46.463  1.00  0.00    -0.053 SA
BRANCH  15  17
HETATM   17  N3  UNL     1       8.084  26.895  48.824  1.00  0.00    -0.362 N
HETATM   18  C17 UNL     1       7.118  27.806  48.284  1.00  0.00     0.150 C
HETATM   19  C18 UNL     1       6.867  28.980  49.212  1.00  0.00     0.187 C
HETATM   20  O5  UNL     1       6.893  28.637  50.542  1.00  0.00    -0.388 OA
HETATM   21  C19 UNL     1       8.035  27.979  50.944  1.00  0.00     0.187 C
HETATM   22  C20 UNL     1       8.109  26.622  50.232  1.00  0.00     0.150 C
ENDBRANCH  15  17
ENDBRANCH  14  15
ENDBRANCH  13  14
ENDBRANCH  11  13
ENDBRANCH  10  11
BRANCH   9  23
HETATM   23  C10 UNL     1       8.963  19.725  51.236  1.00  0.00     0.208 C
BRANCH  23  24
HETATM   24  O2  UNL     1       7.624  19.512  51.410  1.00  0.00    -0.398 OA
ATOM     25  H2  UNL     1       7.399  18.697  51.843  1.00  0.00     0.209 HD
ENDBRANCH  23  24
ENDBRANCH   9  23
BRANCH   9  26
HETATM   26  C11 UNL     1       8.379  19.408  48.852  1.00  0.00     0.291 C
HETATM   27  O3  UNL     1       8.060  20.150  47.903  1.00  0.00    -0.262 OA
BRANCH  26  28
HETATM   28  O4  UNL     1       7.809  18.159  48.958  1.00  0.00    -0.320 OA
BRANCH  28  29
HETATM   29  C12 UNL     1       6.463  17.900  48.546  1.00  0.00     0.174 C
HETATM   30  C13 UNL     1       6.238  16.419  48.442  1.00  0.00     0.034 C
ENDBRANCH  28  29
ENDBRANCH  26  28
ENDBRANCH   9  26
BRANCH   1  31
HETATM   31  C2  UNL     1      10.804  16.823  47.466  1.00  0.00     0.064 C
HETATM   32  C1  UNL     1      11.649  15.847  47.182  1.00  0.00     0.017 C
ENDBRANCH   1  31
TORSDOF 11
ENDMDL