MODEL 3
REMARK VINA RESULT: -7.430398395      2.601      6.892
REMARK  8 active torsions:
REMARK  status: ('A' for Active; 'I' for Inactive)
REMARK    1  A    between atoms: O1_2  and  C2_3
REMARK    2  A    between atoms: C2_3  and  C3_4
REMARK    3  A    between atoms: C3_4  and  N1_5
REMARK       I    between atoms: N1_5  and  C5_8
REMARK    4  A    between atoms: C5_8  and  C6_10
REMARK    5  A    between atoms: C7_11  and  C8_12
REMARK       I    between atoms: C8_12  and  N3_14
REMARK    6  A    between atoms: N3_14  and  C9_16
REMARK       I    between atoms: N5_23  and  C14_24
REMARK    7  A    between atoms: C14_24  and  O5_26
REMARK    8  A    between atoms: O5_26  and  C15_27
REMARK       I    between atoms: N6_34  and  C22_35
ROOT
HETATM    1  N1  UNL     1      11.214  24.551  45.375  1.00  0.00    -0.247 N
HETATM    2  C4  UNL     1      11.318  24.789  43.975  1.00  0.00     0.187 C
HETATM    3  N2  UNL     1      11.407  24.960  42.835  1.00  0.00    -0.172 NA
HETATM    4  C5  UNL     1      10.742  23.267  45.830  1.00  0.00     0.282 C
HETATM    5  O2  UNL     1      10.478  22.463  44.864  1.00  0.00    -0.265 OA
ENDROOT
BRANCH   1   6
HETATM    6  C3  UNL     1      11.602  25.617  46.250  1.00  0.00     0.170 C
BRANCH   6   7
HETATM    7  C2  UNL     1      10.918  26.914  45.941  1.00  0.00     0.188 C
BRANCH   7   8
HETATM    8  O1  UNL     1       9.748  27.106  46.628  1.00  0.00    -0.394 OA
HETATM    9  C1  UNL     1       8.651  27.451  45.879  1.00  0.00     0.201 C
ENDBRANCH   7   8
ENDBRANCH   6   7
ENDBRANCH   1   6
BRANCH   4  10
HETATM   10  C6  UNL     1      10.568  22.853  47.177  1.00  0.00     0.116 C
HETATM   11  C7  UNL     1      10.594  21.364  47.476  1.00  0.00     0.238 C
HETATM   12  N5  UNL     1      11.026  21.330  48.898  1.00  0.00    -0.307 N
HETATM   13  C14 UNL     1      12.123  20.517  49.212  1.00  0.00     0.364 C
HETATM   14  C19 UNL     1      10.342  22.096  49.865  1.00  0.00     0.154 C
HETATM   15  O4  UNL     1      12.518  20.463  50.403  1.00  0.00    -0.238 OA
HETATM   16  C20 UNL     1       9.875  23.470  49.398  1.00  0.00     0.107 C
HETATM   17  C21 UNL     1       8.929  24.017  50.376  1.00  0.00     0.034 C
HETATM   18  N6  UNL     1       9.511  23.486  47.995  1.00  0.00    -0.309 N
HETATM   19  C22 UNL     1       8.356  23.994  47.412  1.00  0.00     0.220 C
HETATM   20  C23 UNL     1       7.192  24.643  48.044  1.00  0.00     0.117 C
HETATM   21  O6  UNL     1       8.250  23.903  46.135  1.00  0.00    -0.273 OA
BRANCH  11  22
HETATM   22  C8  UNL     1       9.327  20.662  47.327  1.00  0.00     0.252 C
HETATM   23  O3  UNL     1       9.032  20.186  46.193  1.00  0.00    -0.270 OA
HETATM   24  N3  UNL     1       8.412  20.487  48.359  1.00  0.00    -0.311 N
ATOM     25  H3  UNL     1       8.351  21.276  49.003  1.00  0.00     0.170 HD
BRANCH  24  26
HETATM   26  C9  UNL     1       7.645  19.526  48.643  1.00  0.00     0.107 A
HETATM   27  C10 UNL     1       7.566  18.843  49.826  1.00  0.00     0.048 A
HETATM   28  C11 UNL     1       6.678  17.809  49.990  1.00  0.00     0.005 A
HETATM   29  C12 UNL     1       5.824  17.419  48.954  1.00  0.00     0.017 A
HETATM   30  C13 UNL     1       5.930  18.124  47.785  1.00  0.00     0.089 A
HETATM   31  N4  UNL     1       6.797  19.124  47.645  1.00  0.00    -0.352 N
ATOM     32  H4  UNL     1       6.832  19.614  46.751  1.00  0.00     0.166 HD
ENDBRANCH  24  26
ENDBRANCH  11  22
BRANCH  13  33
HETATM   33  O5  UNL     1      12.818  19.753  48.287  1.00  0.00    -0.294 OA
BRANCH  33  34
HETATM   34  C15 UNL     1      12.728  18.363  48.180  1.00  0.00     0.061 C
HETATM   35  C16 UNL     1      13.066  17.994  46.732  1.00  0.00     0.046 C
HETATM   36  C17 UNL     1      13.682  17.616  49.058  1.00  0.00     0.046 C
HETATM   37  C18 UNL     1      11.326  17.844  48.439  1.00  0.00     0.046 C
ENDBRANCH  33  34
ENDBRANCH  13  33
ENDBRANCH   4  10
TORSDOF 8
ENDMDL