MODEL 4
REMARK VINA RESULT: -7.435978131      2.562      8.596
REMARK  7 active torsions:
REMARK  status: ('A' for Active; 'I' for Inactive)
REMARK    1  A    between atoms: C2_2  and  O1_3
REMARK    2  A    between atoms: O1_3  and  C3_4
REMARK    3  A    between atoms: C3_4  and  C4_6
REMARK    4  A    between atoms: C4_6  and  N1_7
REMARK       I    between atoms: N1_7  and  C5_9
REMARK       I    between atoms: C5_9  and  N2_11
REMARK    5  A    between atoms: C9_15  and  C10_16
REMARK       I    between atoms: C10_16  and  N3_18
REMARK    6  A    between atoms: C11_19  and  O5_20
REMARK    7  A    between atoms: O5_20  and  C12_21
ROOT
HETATM    1  C10 UNL     1       9.328  22.260  48.793  1.00  0.00     0.245 C
HETATM    2  O4  UNL     1      10.254  22.883  49.404  1.00  0.00    -0.271 OA
HETATM    3  N3  UNL     1       9.410  20.864  48.722  1.00  0.00    -0.317 N
HETATM    4  C11 UNL     1       8.446  19.960  48.090  1.00  0.00     0.237 C
HETATM    5  C14 UNL     1       9.240  18.744  47.667  1.00  0.00     0.075 C
HETATM    6  C15 UNL     1      10.633  19.088  48.021  1.00  0.00     0.062 C
HETATM    7  C16 UNL     1      11.348  19.785  46.899  1.00  0.00     0.028 C
HETATM    8  C17 UNL     1      11.460  17.960  48.479  1.00  0.00     0.230 C
HETATM    9  O7  UNL     1      11.219  16.752  48.304  1.00  0.00    -0.272 OA
HETATM   10  N4  UNL     1      12.654  18.345  49.195  1.00  0.00    -0.347 N
HETATM   11  C18 UNL     1      13.825  17.464  49.195  1.00  0.00     0.153 C
HETATM   12  C19 UNL     1      12.752  19.569  49.919  1.00  0.00     0.029 C
HETATM   13  C20 UNL     1      12.735  19.310  51.428  1.00  0.00     0.038 C
HETATM   14  C21 UNL     1      14.132  20.162  49.620  1.00  0.00     0.038 C
HETATM   15  C22 UNL     1      11.737  20.619  49.563  1.00  0.00     0.057 C
HETATM   16  C23 UNL     1      10.445  19.998  49.233  1.00  0.00     0.109 C
ENDROOT
BRANCH   1  17
HETATM   17  C9  UNL     1       8.244  23.096  48.217  1.00  0.00     0.181 C
HETATM   18  N2  UNL     1       8.779  24.386  47.755  1.00  0.00    -0.321 N
HETATM   19  C5  UNL     1       8.658  25.657  48.381  1.00  0.00     0.319 C
HETATM   20  C6  UNL     1       9.468  24.111  46.511  1.00  0.00     0.129 C
HETATM   21  N1  UNL     1       7.972  25.850  49.599  1.00  0.00    -0.334 N
HETATM   22  O3  UNL     1       9.203  26.648  47.795  1.00  0.00    -0.247 OA
ATOM     23  H1  UNL     1       7.549  25.029  50.034  1.00  0.00     0.164 HD
HETATM   24  C7  UNL     1       8.948  22.806  46.002  1.00  0.00     0.022 C
HETATM   25  C8  UNL     1       7.729  22.556  46.893  1.00  0.00     0.037 C
BRANCH  21  26
HETATM   26  C4  UNL     1       7.822  27.094  50.272  1.00  0.00     0.235 C
BRANCH  26  27
HETATM   27  C3  UNL     1       6.585  27.814  49.891  1.00  0.00     0.276 C
HETATM   28  O2  UNL     1       5.573  27.162  49.540  1.00  0.00    -0.263 OA
BRANCH  27  29
HETATM   29  O1  UNL     1       6.498  29.189  49.905  1.00  0.00    -0.321 OA
BRANCH  29  30
HETATM   30  C2  UNL     1       5.566  29.925  50.659  1.00  0.00     0.174 C
HETATM   31  C1  UNL     1       5.761  29.681  52.119  1.00  0.00     0.034 C
ENDBRANCH  29  30
ENDBRANCH  27  29
ENDBRANCH  26  27
ENDBRANCH  21  26
ENDBRANCH   1  17
BRANCH   4  32
HETATM   32  O5  UNL     1       7.489  19.494  49.024  1.00  0.00    -0.295 OA
BRANCH  32  33
HETATM   33  C12 UNL     1       6.568  18.558  48.576  1.00  0.00     0.256 C
HETATM   34  C13 UNL     1       6.294  17.296  49.323  1.00  0.00     0.126 C
HETATM   35  O6  UNL     1       5.915  18.726  47.515  1.00  0.00    -0.266 OA
ENDBRANCH  32  33
ENDBRANCH   4  32
TORSDOF 7
ENDMDL