MODEL 5
REMARK VINA RESULT: -7.013343432      1.998      2.434
REMARK  5 active torsions:
REMARK  status: ('A' for Active; 'I' for Inactive)
REMARK    1  A    between atoms: O1_2  and  C2_3
REMARK    2  A    between atoms: C2_3  and  C3_4
REMARK    3  A    between atoms: C3_4  and  C4_5
REMARK    4  A    between atoms: C4_5  and  C5_6
REMARK       I    between atoms: N3_12  and  C7_14
REMARK       I    between atoms: C7_14  and  N4_16
REMARK       I    between atoms: N5_20  and  C11_21
REMARK    5  A    between atoms: C11_21  and  C12_23
ROOT
HETATM    1  C5  UNL     1      30.924   6.570  61.893  1.00  0.00     0.070 A
HETATM    2  N1  UNL     1      31.171   7.625  62.653  1.00  0.00    -0.296 N
ATOM      3  H1  UNL     1      30.399   8.200  62.989  1.00  0.00     0.187 HD
HETATM    4  N2  UNL     1      32.363   7.925  62.967  1.00  0.00    -0.279 N
ATOM      5  H2  UNL     1      32.560   8.738  63.551  1.00  0.00     0.189 HD
HETATM    6  C6  UNL     1      33.359   7.151  62.515  1.00  0.00     0.169 A
HETATM    7  N3  UNL     1      34.644   7.310  62.739  1.00  0.00    -0.288 N
ATOM      8  H3  UNL     1      35.002   8.078  63.308  1.00  0.00     0.172 HD
HETATM    9  C7  UNL     1      35.515   6.340  62.137  1.00  0.00     0.324 C
HETATM   10  O2  UNL     1      35.999   6.647  61.010  1.00  0.00    -0.247 OA
HETATM   11  N4  UNL     1      35.802   5.123  62.775  1.00  0.00    -0.332 N
HETATM   12  C8  UNL     1      35.176   4.908  64.063  1.00  0.00     0.129 C
HETATM   13  C9  UNL     1      36.090   4.019  64.912  1.00  0.00     0.040 C
HETATM   14  C10 UNL     1      37.422   4.688  65.044  1.00  0.00     0.127 C
HETATM   15  N5  UNL     1      38.334   4.450  63.955  1.00  0.00    -0.347 N
HETATM   16  C11 UNL     1      39.657   4.145  64.349  1.00  0.00     0.274 C
HETATM   17  O3  UNL     1      39.848   4.134  65.628  1.00  0.00    -0.268 OA
HETATM   18  C13 UNL     1      38.102   4.502  62.535  1.00  0.00     0.145 C
HETATM   19  C14 UNL     1      36.678   4.202  62.118  1.00  0.00     0.147 C
HETATM   20  S1  UNL     1      32.501   5.976  61.617  1.00  0.00    -0.038 SA
ENDROOT
BRANCH   1  21
HETATM   21  C4  UNL     1      29.598   6.039  61.405  1.00  0.00     0.068 C
BRANCH  21  22
HETATM   22  C3  UNL     1      28.652   6.125  62.593  1.00  0.00     0.033 C
BRANCH  22  23
HETATM   23  C2  UNL     1      27.656   7.232  62.430  1.00  0.00     0.167 C
BRANCH  23  24
HETATM   24  O1  UNL     1      28.229   8.467  62.592  1.00  0.00    -0.396 OA
HETATM   25  C1  UNL     1      28.079   9.037  63.830  1.00  0.00     0.201 C
ENDBRANCH  23  24
ENDBRANCH  22  23
ENDBRANCH  21  22
ENDBRANCH   1  21
BRANCH  16  26
HETATM   26  C12 UNL     1      40.809   3.846  63.495  1.00  0.00     0.269 C
HETATM   27 CL1  UNL     1      40.455   2.815  62.104  1.00  0.00    -0.073 Cl
HETATM   28 CL2  UNL     1      41.506   5.412  62.948  1.00  0.00    -0.073 Cl
HETATM   29 CL3  UNL     1      42.039   2.971  64.467  1.00  0.00    -0.073 Cl
ENDBRANCH  16  26
TORSDOF 5
ENDMDL