MODEL 4
REMARK VINA RESULT: -7.559600134      5.301      9.487
REMARK  5 active torsions:
REMARK  status: ('A' for Active; 'I' for Inactive)
REMARK    1  A    between atoms: C1_2  and  C2_4
REMARK    2  A    between atoms: C7_9  and  C8_10
REMARK    3  A    between atoms: C8_10  and  N2_11
REMARK       I    between atoms: N3_14  and  C11_15
REMARK    4  A    between atoms: C11_15  and  C12_17
REMARK    5  A    between atoms: C15_20  and  C16_21
ROOT
HETATM    1  N2  UNL     1      41.185   4.354  62.915  1.00  0.00     0.092 N
HETATM    2  C9  UNL     1      40.815   3.493  64.047  1.00  0.00     0.292 C
HETATM    3  C10 UNL     1      39.724   4.122  64.856  1.00  0.00     0.156 C
HETATM    4  N3  UNL     1      38.599   4.413  63.973  1.00  0.00    -0.348 N
HETATM    5  C11 UNL     1      37.309   4.038  64.399  1.00  0.00     0.226 C
HETATM    6  O2  UNL     1      37.246   3.470  65.558  1.00  0.00    -0.273 OA
HETATM    7  C21 UNL     1      38.852   5.068  62.734  1.00  0.00     0.156 C
HETATM    8  C22 UNL     1      40.093   4.547  62.040  1.00  0.00     0.292 C
ENDROOT
BRANCH   5   9
HETATM    9  C12 UNL     1      36.046   4.243  63.630  1.00  0.00     0.102 C
HETATM   10  C13 UNL     1      34.943   4.861  64.465  1.00  0.00     0.017 C
HETATM   11  C14 UNL     1      34.411   6.150  63.850  1.00  0.00     0.016 C
HETATM   12  C15 UNL     1      33.384   5.904  62.782  1.00  0.00     0.117 C
HETATM   13  C17 UNL     1      33.903   6.088  61.388  1.00  0.00     0.181 C
HETATM   14  O3  UNL     1      34.280   4.901  60.772  1.00  0.00    -0.388 OA
HETATM   15  C18 UNL     1      35.567   4.887  60.295  1.00  0.00     0.193 C
HETATM   16  C19 UNL     1      36.308   3.701  60.926  1.00  0.00     0.193 C
HETATM   17  O4  UNL     1      35.439   2.947  61.663  1.00  0.00    -0.388 OA
HETATM   18  C20 UNL     1      35.588   2.957  63.019  1.00  0.00     0.181 C
BRANCH  12  19
HETATM   19  C16 UNL     1      32.219   6.852  62.971  1.00  0.00     0.393 C
HETATM   20  F1  UNL     1      31.559   6.568  64.154  1.00  0.00    -0.171 F
HETATM   21  F2  UNL     1      31.326   6.687  61.935  1.00  0.00    -0.171 F
HETATM   22  F3  UNL     1      32.634   8.168  62.967  1.00  0.00    -0.171 F
ENDBRANCH  12  19
ENDBRANCH   5   9
BRANCH   1  23
HETATM   23  C8  UNL     1      41.937   5.481  63.339  1.00  0.00     0.278 C
BRANCH  23  24
HETATM   24  C7  UNL     1      42.937   5.101  64.388  1.00  0.00     0.026 C
HETATM   25  C2  UNL     1      44.333   4.856  63.845  1.00  0.00     0.081 C
HETATM   26  C3  UNL     1      44.796   6.072  63.076  1.00  0.00     0.014 C
HETATM   27  C4  UNL     1      44.719   7.279  63.957  1.00  0.00     0.001 C
HETATM   28  C5  UNL     1      44.351   6.949  65.365  1.00  0.00     0.000 C
HETATM   29  C6  UNL     1      43.077   6.153  65.457  1.00  0.00     0.007 C
BRANCH  25  30
HETATM   30  C1  UNL     1      44.482   3.630  63.071  1.00  0.00     0.235 C
HETATM   31  N1  UNL     1      44.309   2.380  63.717  1.00  0.00    -0.062 NA
HETATM   32  O1  UNL     1      44.758   3.666  61.855  1.00  0.00    -0.276 OA
ENDBRANCH  25  30
ENDBRANCH  23  24
ENDBRANCH   1  23
TORSDOF 5
ENDMDL