MODEL 2
REMARK VINA RESULT: -6.986533290      7.833     11.154
REMARK  7 active torsions:
REMARK  status: ('A' for Active; 'I' for Inactive)
REMARK    1  A    between atoms: O1_2  and  C2_3
REMARK    2  A    between atoms: C2_3  and  C3_5
REMARK       I    between atoms: N1_7  and  C5_8
REMARK    3  A    between atoms: C5_8  and  C6_10
REMARK       I    between atoms: N2_14  and  C10_15
REMARK    4  A    between atoms: C10_15  and  C11_17
REMARK    5  A    between atoms: N3_19  and  C13_21
REMARK    6  A    between atoms: C13_21  and  N4_23
REMARK    7  A    between atoms: N4_23  and  C15_25
ROOT
HETATM    1  C6  UNL     1      44.139   3.056  62.475  1.00  0.00     0.179 C
HETATM    2  C7  UNL     1      45.381   2.705  61.671  1.00  0.00     0.037 C
HETATM    3  C8  UNL     1      45.892   1.464  62.345  1.00  0.00     0.022 C
HETATM    4  C9  UNL     1      44.725   0.828  63.020  1.00  0.00     0.127 C
HETATM    5  N2  UNL     1      43.628   1.817  62.963  1.00  0.00    -0.334 N
HETATM    6  C10 UNL     1      42.321   1.502  63.350  1.00  0.00     0.266 C
HETATM    7  O4  UNL     1      42.090   0.311  63.746  1.00  0.00    -0.266 OA
ENDROOT
BRANCH   1   8
HETATM    8  C5  UNL     1      44.456   3.955  63.599  1.00  0.00     0.244 C
HETATM    9  N1  UNL     1      44.670   5.371  63.399  1.00  0.00    -0.321 N
HETATM   10  C3  UNL     1      44.983   6.429  64.308  1.00  0.00     0.187 C
HETATM   11  C19 UNL     1      44.680   6.299  62.314  1.00  0.00     0.209 C
HETATM   12  C4  UNL     1      44.083   6.435  65.529  1.00  0.00     0.057 C
HETATM   13  C20 UNL     1      44.685   7.443  63.279  1.00  0.00     0.293 C
HETATM   14  F1  UNL     1      43.460   8.072  63.408  1.00  0.00    -0.201 F
HETATM   15  F2  UNL     1      45.722   8.321  62.990  1.00  0.00    -0.201 F
HETATM   16  O3  UNL     1      44.536   3.443  64.741  1.00  0.00    -0.271 OA
BRANCH  10  17
HETATM   17  C2  UNL     1      46.443   6.495  64.670  1.00  0.00     0.293 C
HETATM   18  O2  UNL     1      46.868   7.277  65.542  1.00  0.00    -0.262 OA
BRANCH  17  19
HETATM   19  O1  UNL     1      47.370   5.672  64.029  1.00  0.00    -0.324 OA
HETATM   20  C1  UNL     1      48.478   6.172  63.319  1.00  0.00     0.213 C
ENDBRANCH  17  19
ENDBRANCH  10  17
ENDBRANCH   1   8
BRANCH   6  21
HETATM   21  C11 UNL     1      41.173   2.400  63.352  1.00  0.00     0.071 C
HETATM   22  C12 UNL     1      40.620   2.807  62.015  1.00  0.00     0.074 C
HETATM   23  N3  UNL     1      40.689   2.808  64.397  1.00  0.00    -0.369 N
ATOM     24  H3  UNL     1      41.235   2.401  65.155  1.00  0.00     0.161 HD
BRANCH  23  25
HETATM   25  C13 UNL     1      39.715   3.587  64.980  1.00  0.00     0.173 C
HETATM   26  C14 UNL     1      39.942   3.872  66.426  1.00  0.00     0.055 C
BRANCH  25  27
HETATM   27  N4  UNL     1      38.352   3.248  64.660  1.00  0.00    -0.394 N
ATOM     28  H4  UNL     1      38.019   2.290  64.766  1.00  0.00     0.156 HD
BRANCH  27  29
HETATM   29  C15 UNL     1      37.487   4.253  64.201  1.00  0.00     0.016 C
HETATM   30  C16 UNL     1      36.416   3.516  63.355  1.00  0.00     0.037 C
HETATM   31  C17 UNL     1      36.694   4.992  65.246  1.00  0.00     0.037 C
HETATM   32  C18 UNL     1      38.098   5.249  63.219  1.00  0.00     0.037 C
ENDBRANCH  27  29
ENDBRANCH  25  27
ENDBRANCH  23  25
ENDBRANCH   6  21
TORSDOF 7
ENDMDL