MODEL 3
REMARK VINA RESULT: -7.244628348      8.123     11.098
REMARK  8 active torsions:
REMARK  status: ('A' for Active; 'I' for Inactive)
REMARK    1  A    between atoms: C2_2  and  O1_3
REMARK    2  A    between atoms: O1_3  and  C3_4
REMARK       I    between atoms: C3_4  and  N1_6
REMARK    3  A    between atoms: C4_7  and  C5_8
REMARK    4  A    between atoms: C5_8  and  C6_10
REMARK    5  A    between atoms: N3_15  and  C7_16
REMARK    6  A    between atoms: C7_16  and  C8_17
REMARK    7  A    between atoms: C8_17  and  C9_18
REMARK    8  A    between atoms: C9_18  and  C10_20
REMARK       I    between atoms: N4_24  and  C14_26
ROOT
HETATM    1  C3  UNL     1      35.967   3.735  61.202  1.00  0.00     0.365 C
HETATM    2  O2  UNL     1      36.808   3.881  60.274  1.00  0.00    -0.238 OA
HETATM    3  N1  UNL     1      34.908   4.637  61.464  1.00  0.00    -0.290 N
HETATM    4  C4  UNL     1      34.012   4.388  62.548  1.00  0.00     0.284 C
HETATM    5  N2  UNL     1      32.624   4.643  62.155  1.00  0.00    -0.103 NA
HETATM    6  N3  UNL     1      32.478   5.771  61.398  1.00  0.00    -0.279 N
HETATM    7  C16 UNL     1      33.537   6.620  60.987  1.00  0.00     0.176 C
HETATM    8  C17 UNL     1      34.736   5.784  60.617  1.00  0.00     0.050 C
HETATM    9  C18 UNL     1      35.924   6.733  60.625  1.00  0.00     0.040 C
HETATM   10  C19 UNL     1      34.586   5.351  59.152  1.00  0.00     0.040 C
ENDROOT
BRANCH   6  11
HETATM   11  C7  UNL     1      31.114   6.136  60.979  1.00  0.00     0.104 C
HETATM   12  N4  UNL     1      30.314   6.243  61.931  1.00  0.00    -0.316 N
HETATM   13  C14 UNL     1      29.041   6.520  62.245  1.00  0.00     0.218 C
ATOM     14  H4  UNL     1      30.820   6.045  62.795  1.00  0.00     0.170 HD
HETATM   15  C15 UNL     1      28.697   7.760  63.026  1.00  0.00     0.117 C
HETATM   16  O5  UNL     1      28.058   5.804  61.935  1.00  0.00    -0.274 OA
BRANCH  11  17
HETATM   17  C8  UNL     1      30.911   6.300  59.536  1.00  0.00     0.157 C
BRANCH  17  18
HETATM   18  C9  UNL     1      30.344   5.198  58.780  1.00  0.00     0.141 C
HETATM   19  O4  UNL     1      29.892   4.229  59.365  1.00  0.00    -0.297 OA
BRANCH  18  20
HETATM   20  C10 UNL     1      30.275   5.179  57.290  1.00  0.00     0.010 C
HETATM   21  C11 UNL     1      31.485   4.445  56.703  1.00  0.00     0.022 C
HETATM   22  C12 UNL     1      29.067   4.480  56.745  1.00  0.00     0.022 C
HETATM   23  C13 UNL     1      30.319   6.600  56.787  1.00  0.00     0.022 C
ENDBRANCH  18  20
ENDBRANCH  17  18
ENDBRANCH  11  17
ENDBRANCH   6  11
BRANCH   4  24
HETATM   24  C5  UNL     1      34.277   5.137  63.785  1.00  0.00     0.272 C
HETATM   25  O3  UNL     1      33.301   5.646  64.366  1.00  0.00    -0.284 OA
BRANCH  24  26
HETATM   26  C6  UNL     1      35.576   5.358  64.432  1.00  0.00     0.454 C
HETATM   27  F1  UNL     1      36.060   4.098  64.828  1.00  0.00    -0.163 F
HETATM   28  F2  UNL     1      36.540   5.924  63.658  1.00  0.00    -0.163 F
HETATM   29  F3  UNL     1      35.460   6.079  65.613  1.00  0.00    -0.163 F
ENDBRANCH  24  26
ENDBRANCH   4  24
BRANCH   1  30
HETATM   30  O1  UNL     1      36.158   2.581  61.981  1.00  0.00    -0.304 OA
BRANCH  30  31
HETATM   31  C2  UNL     1      35.614   1.338  61.592  1.00  0.00     0.176 C
HETATM   32  C1  UNL     1      34.845   0.787  62.773  1.00  0.00     0.034 C
ENDBRANCH  30  31
ENDBRANCH   1  30
TORSDOF 8
ENDMDL