MODEL 4
REMARK VINA RESULT: -7.408929588      2.786      5.023
REMARK  4 active torsions:
REMARK  status: ('A' for Active; 'I' for Inactive)
REMARK    1  A    between atoms: C2_2  and  N1_4
REMARK       I    between atoms: N2_9  and  C8_10
REMARK    2  A    between atoms: C8_10  and  C9_12
REMARK    3  A    between atoms: C9_12  and  N3_13
REMARK    4  A    between atoms: C9_12  and  C14_22
REMARK       I    between atoms: N3_13  and  C10_15
REMARK       I    between atoms: C10_15  and  N4_17
ROOT
HETATM    1  C9  UNL     1      32.431   6.180  60.495  1.00  0.00     0.190 C
ENDROOT
BRANCH   1   2
HETATM    2  C8  UNL     1      33.282   5.221  61.206  1.00  0.00     0.244 C
HETATM    3  N2  UNL     1      34.692   5.217  61.287  1.00  0.00    -0.325 N
HETATM    4  C7  UNL     1      35.495   6.232  60.674  1.00  0.00     0.128 C
HETATM    5  C19 UNL     1      35.212   4.066  62.060  1.00  0.00     0.400 C
HETATM    6  C6  UNL     1      36.791   6.478  61.423  1.00  0.00     0.022 C
HETATM    7  C5  UNL     1      37.585   5.255  61.701  1.00  0.00     0.032 C
HETATM    8  C4  UNL     1      37.273   4.070  60.840  1.00  0.00     0.275 C
HETATM    9  N1  UNL     1      36.089   3.355  61.185  1.00  0.00     0.109 N
HETATM   10  O1  UNL     1      32.648   4.281  61.825  1.00  0.00    -0.271 OA
BRANCH   9  11
HETATM   11  C2  UNL     1      36.321   1.989  61.572  1.00  0.00     0.217 C
HETATM   12  C1  UNL     1      36.682   1.208  60.323  1.00  0.00     0.042 C
HETATM   13  C3  UNL     1      35.138   1.363  62.277  1.00  0.00     0.042 C
ENDBRANCH   9  11
ENDBRANCH   1   2
BRANCH   1  14
HETATM   14  N3  UNL     1      31.144   6.359  61.180  1.00  0.00    -0.329 N
HETATM   15  C10 UNL     1      31.019   7.207  62.310  1.00  0.00     0.319 C
HETATM   16  O2  UNL     1      32.036   7.810  62.721  1.00  0.00    -0.247 OA
HETATM   17  N4  UNL     1      29.784   7.378  62.966  1.00  0.00    -0.325 N
HETATM   18  C11 UNL     1      29.559   8.205  64.107  1.00  0.00     0.138 C
HETATM   19  C13 UNL     1      28.559   6.711  62.544  1.00  0.00     0.201 C
HETATM   20  C12 UNL     1      28.444   9.194  63.737  1.00  0.00     0.095 C
HETATM   21  S1  UNL     1      27.309   8.011  62.902  1.00  0.00    -0.147 SA
ATOM     22  H3  UNL     1      30.322   5.863  60.836  1.00  0.00     0.165 HD
ENDBRANCH   1  14
BRANCH   1  23
HETATM   23  C14 UNL     1      32.192   5.762  59.065  1.00  0.00     0.114 C
HETATM   24  C15 UNL     1      32.902   6.731  58.102  1.00  0.00     0.180 C
HETATM   25  O3  UNL     1      32.348   6.657  56.825  1.00  0.00    -0.390 OA
HETATM   26  C16 UNL     1      32.011   5.340  56.552  1.00  0.00     0.173 C
HETATM   27  C17 UNL     1      30.733   5.001  57.298  1.00  0.00     0.105 C
HETATM   28  C18 UNL     1      30.756   5.756  58.645  1.00  0.00     0.253 C
HETATM   29  F1  UNL     1      29.903   5.104  59.478  1.00  0.00    -0.206 F
HETATM   30  F2  UNL     1      30.259   7.014  58.371  1.00  0.00    -0.206 F
ENDBRANCH   1  23
TORSDOF 4
ENDMDL