MODEL 3
REMARK VINA RESULT: -7.199135998      3.757      7.506
REMARK  6 active torsions:
REMARK  status: ('A' for Active; 'I' for Inactive)
REMARK       I    between atoms: C2_2  and  N1_4
REMARK    1  A    between atoms: N2_7  and  C5_8
REMARK    2  A    between atoms: C5_8  and  C6_9
REMARK    3  A    between atoms: C6_9  and  N3_10
REMARK    4  A    between atoms: C10_14  and  N4_15
REMARK       I    between atoms: N4_15  and  C11_17
REMARK    5  A    between atoms: C11_17  and  O3_19
REMARK    6  A    between atoms: O3_19  and  C12_20
ROOT
HETATM    1  N3  UNL     1      36.332   4.979  62.049  1.00  0.00    -0.349 N
HETATM    2  C7  UNL     1      35.784   3.942  62.884  1.00  0.00     0.126 C
HETATM    3  C8  UNL     1      35.719   4.408  64.302  1.00  0.00     0.022 C
HETATM    4  C9  UNL     1      35.116   5.739  64.537  1.00  0.00     0.037 C
HETATM    5  C10 UNL     1      34.829   6.578  63.341  1.00  0.00     0.179 C
HETATM    6  C16 UNL     1      35.762   6.267  62.197  1.00  0.00     0.242 C
HETATM    7  O4  UNL     1      35.998   7.210  61.397  1.00  0.00    -0.271 OA
ENDROOT
BRANCH   1   8
HETATM    8  C6  UNL     1      37.393   4.772  61.105  1.00  0.00     0.145 C
BRANCH   8   9
HETATM    9  C5  UNL     1      38.255   3.577  61.428  1.00  0.00     0.142 C
BRANCH   9  10
HETATM   10  N2  UNL     1      39.566   3.988  61.856  1.00  0.00    -0.347 N
HETATM   11  C4  UNL     1      40.651   3.358  61.193  1.00  0.00     0.142 C
HETATM   12  C3  UNL     1      41.170   2.236  62.107  1.00  0.00     0.146 C
HETATM   13  N1  UNL     1      41.841   2.930  63.185  1.00  0.00    -0.334 N
HETATM   14  C2  UNL     1      43.120   2.519  63.568  1.00  0.00     0.216 C
HETATM   15  C18 UNL     1      41.098   4.017  63.783  1.00  0.00     0.114 C
HETATM   16  C1  UNL     1      43.778   1.395  62.888  1.00  0.00     0.117 C
HETATM   17  O1  UNL     1      43.726   3.095  64.491  1.00  0.00    -0.274 OA
HETATM   18  C17 UNL     1      39.710   4.139  63.259  1.00  0.00     0.344 C
HETATM   19  C19 UNL     1      41.824   5.330  63.715  1.00  0.00     0.047 C
HETATM   20  C20 UNL     1      40.978   3.672  65.275  1.00  0.00     0.047 C
HETATM   21  F1  UNL     1      39.242   5.416  63.591  1.00  0.00    -0.180 F
HETATM   22  F2  UNL     1      38.863   3.263  63.949  1.00  0.00    -0.180 F
ENDBRANCH   9  10
ENDBRANCH   8   9
ENDBRANCH   1   8
BRANCH   5  23
HETATM   23  N4  UNL     1      33.466   6.403  62.866  1.00  0.00    -0.324 N
HETATM   24  C11 UNL     1      32.643   7.519  62.553  1.00  0.00     0.362 C
HETATM   25  O2  UNL     1      33.092   8.703  62.686  1.00  0.00    -0.238 OA
ATOM     26  H4  UNL     1      33.093   5.460  62.755  1.00  0.00     0.165 HD
BRANCH  24  27
HETATM   27  O3  UNL     1      31.351   7.390  62.102  1.00  0.00    -0.294 OA
BRANCH  27  28
HETATM   28  C12 UNL     1      30.266   7.414  63.009  1.00  0.00     0.061 C
HETATM   29  C13 UNL     1      30.651   6.875  64.372  1.00  0.00     0.046 C
HETATM   30  C14 UNL     1      29.185   6.507  62.414  1.00  0.00     0.046 C
HETATM   31  C15 UNL     1      29.709   8.797  63.187  1.00  0.00     0.046 C
ENDBRANCH  27  28
ENDBRANCH  24  27
ENDBRANCH   5  23
TORSDOF 6
ENDMDL