MODEL 2
REMARK VINA RESULT: -6.701865716      2.154      2.734
REMARK  3 active torsions:
REMARK  status: ('A' for Active; 'I' for Inactive)
REMARK    1  A    between atoms: O1_2  and  C2_3
REMARK    2  A    between atoms: C3_4  and  N1_5
REMARK       I    between atoms: N1_5  and  C4_7
REMARK    3  A    between atoms: C4_7  and  C5_9
ROOT
HETATM    1  N1  UNL     1      31.119   5.627  61.560  1.00  0.00    -0.308 N
ATOM      2  H1  UNL     1      31.360   5.630  60.569  1.00  0.00     0.170 HD
HETATM    3  C4  UNL     1      32.110   5.397  62.548  1.00  0.00     0.235 C
HETATM    4  O2  UNL     1      31.782   5.396  63.790  1.00  0.00    -0.272 OA
ENDROOT
BRANCH   1   5
HETATM    5  C3  UNL     1      29.765   5.856  61.991  1.00  0.00     0.174 A
HETATM    6  C2  UNL     1      29.215   7.108  62.148  1.00  0.00     0.203 A
HETATM    7  N4  UNL     1      27.953   6.921  62.560  1.00  0.00    -0.256 N
HETATM    8  N3  UNL     1      27.746   5.607  62.650  1.00  0.00    -0.017 NA
HETATM    9  C9  UNL     1      26.981   7.950  62.857  1.00  0.00     0.177 C
HETATM   10  N2  UNL     1      28.838   4.940  62.308  1.00  0.00    -0.265 N
ATOM     11  H2  UNL     1      28.951   3.926  62.289  1.00  0.00     0.186 HD
BRANCH   6  12
HETATM   12  O1  UNL     1      29.835   8.340  61.924  1.00  0.00    -0.337 OA
HETATM   13  C1  UNL     1      30.188   9.188  63.027  1.00  0.00     0.212 C
ENDBRANCH   6  12
ENDBRANCH   1   5
BRANCH   3  14
HETATM   14  C5  UNL     1      33.506   5.159  62.180  1.00  0.00     0.081 A
HETATM   15  C6  UNL     1      34.059   3.809  62.619  1.00  0.00     0.029 C
HETATM   16  C7  UNL     1      33.973   5.721  60.868  1.00  0.00     0.109 A
HETATM   17 BR1  UNL     1      35.063   4.496  59.836  1.00  0.00    -0.087 Br
HETATM   18  C8  UNL     1      34.497   6.273  62.139  1.00  0.00     0.107 A
HETATM   19 BR2  UNL     1      36.332   5.807  62.533  1.00  0.00    -0.070 Br
HETATM   20 BR3  UNL     1      33.874   8.016  62.679  1.00  0.00    -0.070 Br
ENDBRANCH   3  14
TORSDOF 3
ENDMDL