MODEL 3
REMARK VINA RESULT: -7.513391312      1.950      2.645
REMARK  8 active torsions:
REMARK  status: ('A' for Active; 'I' for Inactive)
REMARK    1  A    between atoms: C2_2  and  O1_3
REMARK    2  A    between atoms: O1_3  and  C3_4
REMARK       I    between atoms: C3_4  and  N1_6
REMARK    3  A    between atoms: N2_9  and  C6_10
REMARK    4  A    between atoms: C6_10  and  N3_12
REMARK    5  A    between atoms: N3_12  and  C7_14
REMARK    6  A    between atoms: C7_14  and  C9_16
REMARK       I    between atoms: C9_16  and  N4_18
REMARK    7  A    between atoms: C14_23  and  C15_24
REMARK    8  A    between atoms: C15_24  and  C16_26
ROOT
HETATM    1  C7  UNL     1      37.301   6.071  60.875  1.00  0.00     0.172 C
HETATM    2  C8  UNL     1      37.809   7.337  60.208  1.00  0.00     0.042 C
ENDROOT
BRANCH   1   3
HETATM    3  N3  UNL     1      36.035   5.665  60.284  1.00  0.00    -0.354 N
ATOM      4  H3  UNL     1      35.877   5.865  59.296  1.00  0.00     0.162 HD
BRANCH   3   5
HETATM    5  C6  UNL     1      35.004   5.003  61.009  1.00  0.00     0.170 C
HETATM    6  S1  UNL     1      34.858   3.376  60.746  1.00  0.00    -0.041 SA
BRANCH   5   7
HETATM    7  N2  UNL     1      34.138   5.678  61.899  1.00  0.00    -0.355 N
HETATM    8  C5  UNL     1      33.250   4.893  62.734  1.00  0.00     0.145 C
HETATM    9  C4  UNL     1      31.848   5.367  62.324  1.00  0.00     0.148 C
HETATM   10  N1  UNL     1      31.730   6.721  62.806  1.00  0.00    -0.325 N
HETATM   11  C3  UNL     1      30.458   7.178  63.226  1.00  0.00     0.362 C
HETATM   12  C18 UNL     1      32.878   7.570  62.849  1.00  0.00     0.148 C
HETATM   13  O2  UNL     1      29.462   6.415  63.172  1.00  0.00    -0.238 OA
HETATM   14  C17 UNL     1      34.053   7.108  62.056  1.00  0.00     0.145 C
BRANCH  11  15
HETATM   15  O1  UNL     1      30.258   8.463  63.707  1.00  0.00    -0.304 OA
BRANCH  15  16
HETATM   16  C2  UNL     1      29.071   9.136  63.372  1.00  0.00     0.176 C
HETATM   17  C1  UNL     1      28.169   9.328  64.574  1.00  0.00     0.034 C
ENDBRANCH  15  16
ENDBRANCH  11  15
ENDBRANCH   5   7
ENDBRANCH   3   5
ENDBRANCH   1   3
BRANCH   1  18
HETATM   18  C9  UNL     1      38.260   4.964  60.908  1.00  0.00     0.242 C
HETATM   19  O3  UNL     1      38.589   4.457  59.770  1.00  0.00    -0.271 OA
HETATM   20  N4  UNL     1      38.872   4.376  62.024  1.00  0.00    -0.338 N
HETATM   21  C10 UNL     1      39.818   3.287  61.804  1.00  0.00     0.127 C
HETATM   22  C14 UNL     1      38.633   4.743  63.393  1.00  0.00     0.166 C
HETATM   23  C11 UNL     1      41.211   3.732  62.216  1.00  0.00     0.020 C
HETATM   24  C12 UNL     1      41.079   4.637  63.425  1.00  0.00     0.004 C
HETATM   25  C13 UNL     1      39.828   4.303  64.219  1.00  0.00     0.033 C
BRANCH  22  26
HETATM   26  C15 UNL     1      37.369   4.168  63.916  1.00  0.00     0.255 C
HETATM   27  O4  UNL     1      37.005   3.077  63.543  1.00  0.00    -0.286 OA
BRANCH  26  28
HETATM   28  C16 UNL     1      36.549   4.917  64.890  1.00  0.00     0.453 C
HETATM   29  F1  UNL     1      37.247   5.221  66.043  1.00  0.00    -0.163 F
HETATM   30  F2  UNL     1      36.109   6.105  64.292  1.00  0.00    -0.163 F
HETATM   31  F3  UNL     1      35.393   4.248  65.270  1.00  0.00    -0.163 F
ENDBRANCH  26  28
ENDBRANCH  22  26
ENDBRANCH   1  18
TORSDOF 8
ENDMDL