MODEL 1
REMARK VINA RESULT: -7.640492857      0.000      0.000
REMARK  6 active torsions:
REMARK  status: ('A' for Active; 'I' for Inactive)
REMARK    1  A    between atoms: C2_2  and  C4_4
REMARK    2  A    between atoms: C2_2  and  C20_28
REMARK    3  A    between atoms: C9_9  and  N1_10
REMARK       I    between atoms: N1_10  and  C10_12
REMARK    4  A    between atoms: C10_12  and  C11_14
REMARK    5  A    between atoms: C11_14  and  N2_15
REMARK    6  A    between atoms: N3_18  and  C14_19
ROOT
HETATM    1  N1  UNL     1      41.291   4.715  64.551  1.00  0.00    -0.351 N
ATOM      2  H1  UNL     1      41.212   5.299  65.383  1.00  0.00     0.163 HD
HETATM    3  C10 UNL     1      40.254   3.769  64.254  1.00  0.00     0.257 C
HETATM    4  O1  UNL     1      40.399   3.075  63.218  1.00  0.00    -0.267 OA
ENDROOT
BRANCH   3   5
HETATM    5  C11 UNL     1      39.077   3.598  65.094  1.00  0.00     0.164 C
BRANCH   5   6
HETATM    6  N2  UNL     1      37.914   4.294  64.782  1.00  0.00    -0.362 N
HETATM    7  C12 UNL     1      37.850   4.964  63.544  1.00  0.00     0.093 C
HETATM    8  C13 UNL     1      36.503   4.807  62.847  1.00  0.00     0.317 C
HETATM    9  N3  UNL     1      35.430   4.812  63.818  1.00  0.00     0.100 N
HETATM   10  C18 UNL     1      35.859   5.473  65.046  1.00  0.00     0.293 C
HETATM   11  C19 UNL     1      36.881   4.514  65.684  1.00  0.00     0.158 C
BRANCH   9  12
HETATM   12  C14 UNL     1      34.206   5.346  63.334  1.00  0.00     0.238 C
HETATM   13  C15 UNL     1      34.164   6.828  63.219  1.00  0.00     0.052 C
HETATM   14  C16 UNL     1      32.824   7.194  62.670  1.00  0.00     0.142 C
HETATM   15  S1  UNL     1      31.742   5.944  63.381  1.00  0.00     0.146 S
HETATM   16  O2  UNL     1      31.029   5.249  62.275  1.00  0.00    -0.228 OA
HETATM   17  O3  UNL     1      30.849   6.514  64.416  1.00  0.00    -0.228 OA
HETATM   18  C17 UNL     1      33.001   4.887  64.120  1.00  0.00     0.176 C
ENDBRANCH   9  12
ENDBRANCH   5   6
ENDBRANCH   3   5
BRANCH   1  19
HETATM   19  C9  UNL     1      42.469   4.858  63.677  1.00  0.00     0.089 C
HETATM   20  C4  UNL     1      42.783   6.314  63.430  1.00  0.00     0.025 C
HETATM   21  C5  UNL     1      43.426   6.985  64.586  1.00  0.00     0.007 C
HETATM   22  C6  UNL     1      44.066   6.049  65.571  1.00  0.00     0.001 C
HETATM   23  C7  UNL     1      44.573   4.798  64.961  1.00  0.00     0.002 C
HETATM   24  C8  UNL     1      43.530   4.021  64.280  1.00  0.00     0.026 C
BRANCH  20  25
HETATM   25  C2  UNL     1      43.218   6.667  62.071  1.00  0.00     0.056 C
HETATM   26  C1  UNL     1      42.436   5.764  61.095  1.00  0.00     0.024 C
HETATM   27  C3  UNL     1      42.702   8.083  61.757  1.00  0.00     0.024 C
BRANCH  25  28
HETATM   28  C20 UNL     1      44.614   6.623  61.645  1.00  0.00     0.395 C
HETATM   29  F1  UNL     1      44.558   6.786  60.234  1.00  0.00    -0.170 F
HETATM   30  F2  UNL     1      45.245   5.393  61.752  1.00  0.00    -0.170 F
HETATM   31  F3  UNL     1      45.431   7.657  62.038  1.00  0.00    -0.170 F
ENDBRANCH  25  28
ENDBRANCH  20  25
ENDBRANCH   1  19
TORSDOF 6
ENDMDL