MODEL 1
REMARK VINA RESULT: -7.086880582      0.000      0.000
REMARK  7 active torsions:
REMARK  status: ('A' for Active; 'I' for Inactive)
REMARK    1  A    between atoms: C1_2  and  O2_3
REMARK    2  A    between atoms: C1_2  and  C9_16
REMARK    3  A    between atoms: O2_3  and  C2_4
REMARK    4  A    between atoms: C2_4  and  C3_5
REMARK    5  A    between atoms: C3_5  and  N1_6
REMARK    6  A    between atoms: C3_5  and  C8_12
REMARK    7  A    between atoms: C15_22  and  O4_23
ROOT
HETATM    1  O1  UNL     1      38.476   3.469  64.624  1.00  0.00    -0.264 OA
HETATM    2  C1  UNL     1      38.155   4.443  63.863  1.00  0.00     0.268 C
ENDROOT
BRANCH   2   3
HETATM    3  O2  UNL     1      39.190   5.119  63.278  1.00  0.00    -0.315 OA
BRANCH   3   4
HETATM    4  C2  UNL     1      40.468   4.644  62.976  1.00  0.00     0.238 C
BRANCH   4   5
HETATM    5  C3  UNL     1      41.626   5.405  63.506  1.00  0.00     0.096 C
BRANCH   5   6
HETATM    6  N1  UNL     1      42.569   5.815  62.504  1.00  0.00    -0.356 N
HETATM    7  C4  UNL     1      43.168   7.098  62.827  1.00  0.00     0.154 C
HETATM    8  C5  UNL     1      42.891   8.200  61.881  1.00  0.00     0.188 C
HETATM    9  O3  UNL     1      42.849   7.825  60.556  1.00  0.00    -0.385 OA
HETATM   10  C6  UNL     1      41.790   6.923  60.441  1.00  0.00     0.212 C
HETATM   11  C7  UNL     1      42.235   5.665  61.151  1.00  0.00     0.090 C
ENDBRANCH   5   6
BRANCH   5  12
HETATM   12  C8  UNL     1      42.248   4.869  64.764  1.00  0.00     0.340 C
HETATM   13  F1  UNL     1      41.446   4.043  65.506  1.00  0.00    -0.186 F
HETATM   14  F2  UNL     1      42.839   5.833  65.556  1.00  0.00    -0.186 F
HETATM   15 BR1  UNL     1      43.744   3.741  64.142  1.00  0.00    -0.004 Br
ENDBRANCH   5  12
ENDBRANCH   4   5
ENDBRANCH   3   4
ENDBRANCH   2   3
BRANCH   2  16
HETATM   16  C9  UNL     1      36.724   4.771  63.668  1.00  0.00     0.051 C
HETATM   17  C10 UNL     1      36.636   5.830  62.591  1.00  0.00     0.024 C
HETATM   18  C11 UNL     1      35.227   6.184  62.242  1.00  0.00    -0.010 C
HETATM   19  C12 UNL     1      34.564   6.707  63.504  1.00  0.00     0.009 C
HETATM   20  C16 UNL     1      34.540   4.931  61.736  1.00  0.00     0.042 C
HETATM   21  C13 UNL     1      34.621   5.621  64.554  1.00  0.00    -0.010 C
HETATM   22  C14 UNL     1      33.832   4.446  64.053  1.00  0.00     0.042 C
HETATM   23  C18 UNL     1      36.035   5.280  64.896  1.00  0.00     0.024 C
HETATM   24  C15 UNL     1      34.559   3.909  62.828  1.00  0.00     0.060 C
HETATM   25  C17 UNL     1      35.942   3.525  63.235  1.00  0.00     0.057 C
BRANCH  24  26
HETATM   26  O4  UNL     1      33.917   2.741  62.367  1.00  0.00    -0.390 OA
ATOM     27  H4  UNL     1      33.935   2.717  61.417  1.00  0.00     0.210 HD
ENDBRANCH  24  26
ENDBRANCH   2  16
TORSDOF 7
ENDMDL