MODEL 3
REMARK VINA RESULT: 3.111667322      2.202      7.320
REMARK  1 active torsions:
REMARK  status: ('A' for Active; 'I' for Inactive)
REMARK    1  A    between atoms: O1_2  and  C2_3
ROOT
HETATM    1  C2  UNL     1     -26.051  60.759   2.595  1.00  0.00     0.068 A
HETATM    2  C3  UNL     1     -25.556  61.042   1.340  1.00  0.00     0.039 A
HETATM    3  C4  UNL     1     -24.197  61.093   1.103  1.00  0.00     0.033 A
HETATM    4  C5  UNL     1     -23.287  60.859   2.120  1.00  0.00     0.040 A
HETATM    5  N1  UNL     1     -21.973  60.898   1.937  1.00  0.00    -0.355 N
ATOM      6  H1  UNL     1     -21.619  61.108   1.004  1.00  0.00     0.166 HD
HETATM    7  C6  UNL     1     -21.055  60.665   2.956  1.00  0.00     0.053 A
HETATM    8  C7  UNL     1     -21.491  60.401   4.112  1.00  0.00    -0.008 A
HETATM    9  C8  UNL     1     -21.775  60.117   5.345  1.00  0.00    -0.011 A
HETATM   10  C9  UNL     1     -20.875  59.868   6.384  1.00  0.00     0.042 C
HETATM   11  C10 UNL     1     -21.044  60.587   7.686  1.00  0.00     0.071 C
HETATM   12  N2  UNL     1     -19.867  58.958   6.259  1.00  0.00    -0.222 N
HETATM   13  N3  UNL     1     -19.986  57.933   7.142  1.00  0.00    -0.289 N
ATOM     14  H3  UNL     1     -20.760  57.953   7.806  1.00  0.00     0.188 HD
HETATM   15  C11 UNL     1     -19.155  56.919   7.185  1.00  0.00     0.075 A
HETATM   16  C12 UNL     1     -19.317  55.908   8.090  1.00  0.00     0.033 A
HETATM   17  C13 UNL     1     -18.446  54.819   8.150  1.00  0.00     0.002 A
HETATM   18  C14 UNL     1     -17.410  54.822   7.240  1.00  0.00     0.002 A
HETATM   19  C15 UNL     1     -17.246  55.839   6.327  1.00  0.00     0.032 A
HETATM   20  C16 UNL     1     -18.117  56.915   6.277  1.00  0.00     0.063 A
HETATM   21  N4  UNL     1     -18.016  57.913   5.432  1.00  0.00    -0.318 N
ATOM     22  H4  UNL     1     -17.238  57.884   4.772  1.00  0.00     0.169 HD
HETATM   23  C17 UNL     1     -18.871  59.009   5.351  1.00  0.00     0.251 A
HETATM   24  O2  UNL     1     -18.661  59.900   4.506  1.00  0.00    -0.277 OA
HETATM   25  C18 UNL     1     -18.627  60.457   3.404  1.00  0.00     0.091 A
HETATM   26  C19 UNL     1     -17.350  60.791   2.863  1.00  0.00     0.038 A
HETATM   27  C20 UNL     1     -17.148  61.400   1.659  1.00  0.00     0.003 A
HETATM   28  C21 UNL     1     -18.229  61.731   0.881  1.00  0.00     0.001 A
HETATM   29  C22 UNL     1     -19.481  61.431   1.368  1.00  0.00     0.016 A
HETATM   30  C23 UNL     1     -19.686  60.818   2.583  1.00  0.00     0.025 A
HETATM   31  C24 UNL     1     -22.892  60.332   4.431  1.00  0.00     0.092 A
HETATM   32  C25 UNL     1     -23.763  60.572   3.390  1.00  0.00    -0.016 A
HETATM   33  C26 UNL     1     -25.131  60.531   3.590  1.00  0.00     0.047 A
ENDROOT
BRANCH   1  34
HETATM   34  O1  UNL     1     -27.424  60.711   2.826  1.00  0.00    -0.356 OA
HETATM   35  C1  UNL     1     -28.036  59.832   3.706  1.00  0.00     0.210 C
ENDBRANCH   1  34
TORSDOF 1
ENDMDL