MODEL 2
REMARK VINA RESULT: -5.461786138      1.790      4.839
REMARK  1 active torsions:
REMARK  status: ('A' for Active; 'I' for Inactive)
REMARK    1  A    between atoms: C9_13  and  C10_14
ROOT
HETATM    1  O1  UNL     1     -17.728  56.497   9.489  1.00  0.00    -0.268 OA
HETATM    2  C1  UNL     1     -18.771  56.447   8.792  1.00  0.00     0.248 A
HETATM    3  C2  UNL     1     -19.705  55.492   9.117  1.00  0.00     0.074 A
HETATM    4  C3  UNL     1     -20.854  55.422   8.367  1.00  0.00     0.008 A
HETATM    5  C4  UNL     1     -21.030  56.298   7.327  1.00  0.00     0.032 A
HETATM    6  C5  UNL     1     -20.043  57.232   7.063  1.00  0.00     0.065 A
HETATM    7  N1  UNL     1     -18.928  57.305   7.786  1.00  0.00    -0.308 N
HETATM    8  C6  UNL     1     -18.063  58.382   7.287  1.00  0.00     0.174 A
HETATM    9  C7  UNL     1     -18.744  58.982   6.166  1.00  0.00     0.001 A
HETATM   10  C8  UNL     1     -19.949  58.280   6.034  1.00  0.00     0.069 A
HETATM   11  N2  UNL     1     -20.830  58.567   5.089  1.00  0.00    -0.353 N
ATOM     12  H2  UNL     1     -21.688  58.017   5.047  1.00  0.00     0.166 HD
HETATM   13  C9  UNL     1     -20.656  59.549   4.175  1.00  0.00     0.053 A
HETATM   14  C19 UNL     1     -19.510  60.262   4.258  1.00  0.00     0.005 A
HETATM   15  C20 UNL     1     -18.540  59.986   5.250  1.00  0.00    -0.002 A
HETATM   16  C21 UNL     1     -17.264  60.679   5.199  1.00  0.00     0.009 A
HETATM   17  C22 UNL     1     -16.350  60.495   6.193  1.00  0.00     0.015 A
HETATM   18  C23 UNL     1     -15.161  61.247   6.140  1.00  0.00     0.001 A
HETATM   19  C24 UNL     1     -14.927  62.128   5.133  1.00  0.00     0.003 A
HETATM   20  C25 UNL     1     -15.866  62.292   4.146  1.00  0.00     0.037 A
HETATM   21  C26 UNL     1     -17.041  61.579   4.154  1.00  0.00     0.080 A
HETATM   22  O2  UNL     1     -17.965  61.762   3.139  1.00  0.00    -0.346 OA
HETATM   23  C27 UNL     1     -19.303  61.463   3.424  1.00  0.00     0.217 C
ENDROOT
BRANCH  13  24
HETATM   24  C10 UNL     1     -21.689  59.793   3.191  1.00  0.00     0.007 A
HETATM   25  C11 UNL     1     -21.625  59.319   1.916  1.00  0.00     0.102 A
HETATM   26  N3  UNL     1     -22.634  59.608   1.058  1.00  0.00    -0.364 N
HETATM   27  C12 UNL     1     -23.684  60.347   1.442  1.00  0.00     0.042 A
ATOM     28  H3  UNL     1     -22.593  59.257   0.102  1.00  0.00     0.165 HD
HETATM   29  C13 UNL     1     -24.681  60.610   0.528  1.00  0.00     0.030 A
HETATM   30  C17 UNL     1     -23.789  60.845   2.718  1.00  0.00    -0.009 A
HETATM   31  C14 UNL     1     -25.772  61.371   0.909  1.00  0.00     0.002 A
HETATM   32  C15 UNL     1     -25.861  61.861   2.189  1.00  0.00     0.001 A
HETATM   33  C16 UNL     1     -24.873  61.607   3.112  1.00  0.00     0.014 A
HETATM   34  C18 UNL     1     -22.779  60.566   3.607  1.00  0.00     0.029 A
ENDBRANCH  13  24
TORSDOF 1
ENDMDL