MODEL 5
REMARK VINA RESULT: -2.409496154      3.162      6.454
REMARK  2 active torsions:
REMARK  status: ('A' for Active; 'I' for Inactive)
REMARK    1  A    between atoms: C7_9  and  S1_10
REMARK    2  A    between atoms: S1_10  and  C8_11
ROOT
HETATM    1  C8  UNL     1     -17.638  60.733   5.172  1.00  0.00     0.005 A
HETATM    2  C9  UNL     1     -17.854  62.087   5.518  1.00  0.00     0.020 A
HETATM    3  C10 UNL     1     -16.999  62.830   6.247  1.00  0.00     0.024 A
HETATM    4  C11 UNL     1     -15.835  62.261   6.695  1.00  0.00     0.044 A
HETATM    5  C12 UNL     1     -14.910  63.011   7.487  1.00  0.00     0.099 C
HETATM    6  N2  UNL     1     -14.185  63.613   8.136  1.00  0.00    -0.191 NA
HETATM    7  C13 UNL     1     -15.548  60.944   6.399  1.00  0.00     0.024 A
HETATM    8  C14 UNL     1     -16.426  60.201   5.658  1.00  0.00     0.020 A
ENDROOT
BRANCH   1   9
HETATM    9  S1  UNL     1     -18.808  59.913   4.307  1.00  0.00    -0.089 SA
BRANCH   9  10
HETATM   10  C7  UNL     1     -20.105  59.211   3.924  1.00  0.00     0.034 A
HETATM   11  C6  UNL     1     -20.730  59.699   2.647  1.00  0.00     0.027 A
HETATM   12  C2  UNL     1     -20.120  60.691   1.896  1.00  0.00    -0.046 A
HETATM   13  C5  UNL     1     -21.907  59.200   2.154  1.00  0.00     0.147 A
HETATM   14  C1  UNL     1     -18.870  61.311   2.291  1.00  0.00     0.049 C
HETATM   15  C3  UNL     1     -20.775  61.085   0.698  1.00  0.00     0.024 A
HETATM   16  C4  UNL     1     -21.943  60.546   0.269  1.00  0.00     0.089 A
HETATM   17  N1  UNL     1     -22.494  59.604   1.011  1.00  0.00    -0.356 N
ATOM     18  H1  UNL     1     -23.373  59.178   0.717  1.00  0.00     0.166 HD
HETATM   19  S2  UNL     1     -22.796  57.960   2.982  1.00  0.00     0.246 S
HETATM   20  C16 UNL     1     -21.923  57.521   4.402  1.00  0.00     0.189 A
HETATM   21  O2  UNL     1     -24.142  58.596   3.336  1.00  0.00    -0.214 OA
HETATM   22  O3  UNL     1     -23.037  56.764   2.090  1.00  0.00    -0.214 OA
HETATM   23  C15 UNL     1     -20.754  58.141   4.722  1.00  0.00     0.041 A
HETATM   24  O1  UNL     1     -22.196  56.615   5.329  1.00  0.00    -0.297 OA
HETATM   25  C22 UNL     1     -20.301  57.562   5.924  1.00  0.00     0.013 A
HETATM   26  C17 UNL     1     -21.277  56.604   6.234  1.00  0.00     0.088 A
HETATM   27  C21 UNL     1     -19.229  57.715   6.761  1.00  0.00     0.015 A
HETATM   28  C18 UNL     1     -21.176  55.809   7.377  1.00  0.00     0.038 A
HETATM   29  C19 UNL     1     -20.108  55.971   8.200  1.00  0.00     0.003 A
HETATM   30  C20 UNL     1     -19.158  56.904   7.895  1.00  0.00     0.001 A
ENDBRANCH   9  10
ENDBRANCH   1   9
TORSDOF 2
ENDMDL