MODEL 1
REMARK VINA RESULT: 1.770687557      0.000      0.000
REMARK  1 active torsions:
REMARK  status: ('A' for Active; 'I' for Inactive)
REMARK    1  A    between atoms: N1_6  and  C4_8
ROOT
HETATM    1  S1  UNL     1     -15.658  60.734   4.493  1.00  0.00    -0.072 SA
HETATM    2  C1  UNL     1     -16.671  59.614   5.083  1.00  0.00     0.079 C
HETATM    3  S2  UNL     1     -16.100  58.533   6.374  1.00  0.00    -0.111 SA
HETATM    4  C2  UNL     1     -17.378  57.265   6.606  1.00  0.00     0.138 C
HETATM    5  C3  UNL     1     -18.690  57.905   6.373  1.00  0.00     0.030 C
HETATM    6  N1  UNL     1     -19.687  57.821   7.220  1.00  0.00    -0.358 N
ATOM      7  H1  UNL     1     -20.587  58.269   7.042  1.00  0.00     0.166 HD
HETATM    8  C10 UNL     1     -18.985  58.691   5.166  1.00  0.00     0.001 A
HETATM    9  C11 UNL     1     -20.262  58.625   4.616  1.00  0.00     0.026 A
HETATM   10  C12 UNL     1     -20.606  59.335   3.487  1.00  0.00    -0.021 A
HETATM   11  C13 UNL     1     -21.883  59.284   2.916  1.00  0.00     0.045 A
HETATM   12  C14 UNL     1     -22.215  59.998   1.788  1.00  0.00     0.072 A
HETATM   13  C15 UNL     1     -23.486  59.920   1.257  1.00  0.00     0.036 A
HETATM   14  C16 UNL     1     -24.475  59.140   1.814  1.00  0.00     0.103 A
HETATM   15  N2  UNL     1     -25.684  59.145   1.202  1.00  0.00    -0.374 N
ATOM     16  H2  UNL     1     -26.432  58.574   1.598  1.00  0.00     0.164 HD
HETATM   17  C17 UNL     1     -25.940  59.859   0.112  1.00  0.00     0.090 A
HETATM   18  C18 UNL     1     -24.970  60.637  -0.451  1.00  0.00     0.049 A
HETATM   19  C19 UNL     1     -23.722  60.680   0.116  1.00  0.00     0.064 A
HETATM   20  N3  UNL     1     -22.728  61.433  -0.403  1.00  0.00    -0.285 N
ATOM     21  H3  UNL     1     -22.901  61.989  -1.240  1.00  0.00     0.188 HD
HETATM   22  N4  UNL     1     -21.539  61.458   0.159  1.00  0.00    -0.236 N
ATOM     23  H4  UNL     1     -20.813  62.039  -0.260  1.00  0.00     0.209 HD
HETATM   24  N5  UNL     1     -21.245  60.767   1.237  1.00  0.00    -0.252 N
HETATM   25  C20 UNL     1     -19.995  60.836   1.771  1.00  0.00     0.130 A
HETATM   26  C21 UNL     1     -19.650  60.127   2.898  1.00  0.00    -0.007 A
HETATM   27  C22 UNL     1     -18.361  60.217   3.423  1.00  0.00     0.028 A
HETATM   28  C23 UNL     1     -18.020  59.497   4.564  1.00  0.00     0.005 A
ENDROOT
BRANCH   6  29
HETATM   29  C4  UNL     1     -19.441  57.067   8.400  1.00  0.00     0.032 A
HETATM   30  C5  UNL     1     -19.321  57.650   9.644  1.00  0.00     0.029 A
HETATM   31  C6  UNL     1     -19.084  56.948  10.806  1.00  0.00     0.002 A
HETATM   32  C7  UNL     1     -18.954  55.580  10.743  1.00  0.00     0.000 A
HETATM   33  C8  UNL     1     -19.066  54.960   9.522  1.00  0.00     0.002 A
HETATM   34  C9  UNL     1     -19.306  55.681   8.361  1.00  0.00     0.029 A
ENDBRANCH   6  29
TORSDOF 1
ENDMDL