MODEL 4
REMARK VINA RESULT: -5.262557936      2.432      4.048
REMARK  3 active torsions:
REMARK  status: ('A' for Active; 'I' for Inactive)
REMARK    1  A    between atoms: C3_4  and  C4_5
REMARK    2  A    between atoms: C10_11  and  C11_12
REMARK    3  A    between atoms: N2_17  and  O1_18
ROOT
HETATM    1  N1  UNL     1     -22.005  55.865   5.281  1.00  0.00    -0.191 NA
HETATM    2  C1  UNL     1     -21.627  56.947   5.079  1.00  0.00     0.102 C
HETATM    3  C2  UNL     1     -21.177  58.266   4.834  1.00  0.00     0.077 A
HETATM    4  C3  UNL     1     -19.855  58.623   5.104  1.00  0.00     0.027 A
HETATM    5  C10 UNL     1     -19.531  59.930   4.825  1.00  0.00     0.093 A
HETATM    6  N2  UNL     1     -20.389  60.832   4.330  1.00  0.00    -0.217 N
HETATM    7  C15 UNL     1     -21.690  60.514   4.056  1.00  0.00     0.132 A
HETATM    8  C16 UNL     1     -22.525  61.472   3.552  1.00  0.00     0.213 A
HETATM    9  O2  UNL     1     -22.016  62.631   3.369  1.00  0.00    -0.285 OA
HETATM   10  C17 UNL     1     -23.840  61.322   3.228  1.00  0.00     0.034 A
HETATM   11  C18 UNL     1     -24.549  62.417   2.721  1.00  0.00     0.017 A
HETATM   12  C19 UNL     1     -25.879  62.334   2.374  1.00  0.00     0.001 A
HETATM   13  C20 UNL     1     -26.569  61.159   2.512  1.00  0.00     0.001 A
HETATM   14  C21 UNL     1     -25.898  60.061   3.009  1.00  0.00     0.020 A
HETATM   15  C22 UNL     1     -24.566  60.156   3.353  1.00  0.00     0.020 A
HETATM   16  S2  UNL     1     -23.688  58.833   3.971  1.00  0.00    -0.085 SA
HETATM   17  C23 UNL     1     -22.045  59.208   4.325  1.00  0.00     0.060 A
ENDROOT
BRANCH   4  18
HETATM   18  C4  UNL     1     -18.900  57.674   5.641  1.00  0.00    -0.022 A
HETATM   19  C5  UNL     1     -17.933  57.074   4.864  1.00  0.00     0.012 A
HETATM   20  C6  UNL     1     -17.065  56.181   5.455  1.00  0.00     0.001 A
HETATM   21  C7  UNL     1     -17.143  55.872   6.818  1.00  0.00     0.000 A
HETATM   22  C8  UNL     1     -18.112  56.475   7.591  1.00  0.00     0.001 A
HETATM   23  C9  UNL     1     -18.971  57.359   7.005  1.00  0.00     0.012 A
ENDBRANCH   4  18
BRANCH   5  24
HETATM   24  C11 UNL     1     -18.135  60.349   5.098  1.00  0.00     0.035 A
HETATM   25  C12 UNL     1     -17.562  60.581   6.321  1.00  0.00     0.022 A
HETATM   26  C13 UNL     1     -16.277  60.952   6.339  1.00  0.00     0.008 A
HETATM   27  C14 UNL     1     -15.639  61.068   5.133  1.00  0.00     0.050 A
HETATM   28  S1  UNL     1     -16.855  60.657   4.014  1.00  0.00    -0.100 SA
ENDBRANCH   5  24
BRANCH   6  29
HETATM   29  O1  UNL     1     -19.918  62.117   4.100  1.00  0.00    -0.282 OA
ATOM     30  H1  UNL     1     -20.531  62.837   4.191  1.00  0.00     0.245 HD
ENDBRANCH   6  29
TORSDOF 3
ENDMDL