MODEL 3
REMARK VINA RESULT: -2.038928312      2.013      6.084
REMARK  1 active torsions:
REMARK  status: ('A' for Active; 'I' for Inactive)
REMARK    1  A    between atoms: C3_4  and  C4_5
ROOT
HETATM    1  C4  UNL     1     -18.604  60.042   4.382  1.00  0.00     0.156 C
HETATM    2  N2  UNL     1     -18.230  60.047   3.035  1.00  0.00    -0.346 N
ATOM      3  H2  UNL     1     -17.373  59.557   2.776  1.00  0.00     0.163 HD
HETATM    4  C5  UNL     1     -18.886  60.621   2.116  1.00  0.00     0.221 A
HETATM    5  N3  UNL     1     -19.506  61.213   0.978  1.00  0.00    -0.257 N
ATOM      6  H3  UNL     1     -19.488  61.593   0.032  1.00  0.00     0.191 HD
HETATM    7  N4  UNL     1     -20.195  60.848   2.235  1.00  0.00    -0.184 N
HETATM    8  C6  UNL     1     -21.295  60.653   3.119  1.00  0.00     0.280 C
HETATM    9  O1  UNL     1     -21.813  61.632   3.694  1.00  0.00    -0.265 OA
HETATM   10  C7  UNL     1     -21.925  59.343   3.429  1.00  0.00     0.045 A
HETATM   11  C8  UNL     1     -23.181  59.249   2.749  1.00  0.00     0.018 A
HETATM   12  C9  UNL     1     -23.859  58.075   2.613  1.00  0.00     0.001 A
HETATM   13  C10 UNL     1     -23.298  56.947   3.157  1.00  0.00     0.001 A
HETATM   14  C11 UNL     1     -22.103  57.032   3.816  1.00  0.00     0.013 A
HETATM   15  C12 UNL     1     -21.374  58.235   3.991  1.00  0.00    -0.007 A
HETATM   16  C13 UNL     1     -20.266  58.162   4.993  1.00  0.00     0.012 A
HETATM   17  C14 UNL     1     -19.114  58.845   5.059  1.00  0.00    -0.002 A
HETATM   18  C15 UNL     1     -18.400  58.312   6.168  1.00  0.00     0.107 A
HETATM   19  N5  UNL     1     -19.098  57.354   6.760  1.00  0.00    -0.331 N
HETATM   20  C16 UNL     1     -18.823  56.614   7.877  1.00  0.00     0.096 A
HETATM   21  C17 UNL     1     -19.735  55.708   8.348  1.00  0.00     0.018 A
HETATM   22  C18 UNL     1     -20.926  55.546   7.700  1.00  0.00     0.004 A
HETATM   23  C19 UNL     1     -21.173  56.307   6.575  1.00  0.00     0.031 A
HETATM   24  C20 UNL     1     -20.250  57.224   6.086  1.00  0.00     0.050 A
ENDROOT
BRANCH   1  25
HETATM   25  C3  UNL     1     -17.357  60.635   5.071  1.00  0.00    -0.003 A
HETATM   26  C2  UNL     1     -16.083  60.119   5.083  1.00  0.00     0.101 A
HETATM   27  N1  UNL     1     -15.266  60.928   5.800  1.00  0.00    -0.360 N
HETATM   28  C1  UNL     1     -13.851  60.699   6.027  1.00  0.00     0.155 C
HETATM   29  C26 UNL     1     -15.983  61.972   6.263  1.00  0.00     0.044 A
HETATM   30  C21 UNL     1     -17.289  61.792   5.810  1.00  0.00     0.001 A
HETATM   31  C25 UNL     1     -15.635  63.057   7.029  1.00  0.00     0.030 A
HETATM   32  C22 UNL     1     -18.228  62.738   6.153  1.00  0.00     0.014 A
HETATM   33  C23 UNL     1     -17.870  63.823   6.922  1.00  0.00     0.001 A
HETATM   34  C24 UNL     1     -16.575  64.003   7.373  1.00  0.00     0.002 A
ENDBRANCH   1  25
TORSDOF 1
ENDMDL