MODEL 2
REMARK VINA RESULT: -3.050003403      2.501      4.086
REMARK  4 active torsions:
REMARK  status: ('A' for Active; 'I' for Inactive)
REMARK    1  A    between atoms: C6_6  and  N1_7
REMARK    2  A    between atoms: C9_11  and  C22_29
REMARK    3  A    between atoms: C10_12  and  C11_13
REMARK    4  A    between atoms: N3_20  and  C14_21
ROOT
HETATM    1  C1  UNL     1     -28.049  60.399   2.960  1.00  0.00     0.018 C
HETATM    2  C2  UNL     1     -26.857  60.264   3.079  1.00  0.00    -0.078 C
HETATM    3  C3  UNL     1     -25.424  60.082   3.240  1.00  0.00     0.017 A
HETATM    4  C4  UNL     1     -24.755  60.796   4.201  1.00  0.00     0.023 A
HETATM    5  C5  UNL     1     -23.404  60.624   4.355  1.00  0.00     0.031 A
HETATM    6  C6  UNL     1     -22.680  59.753   3.573  1.00  0.00     0.043 A
HETATM    7  C24 UNL     1     -23.405  59.046   2.605  1.00  0.00     0.031 A
HETATM    8  C25 UNL     1     -24.758  59.201   2.431  1.00  0.00     0.023 A
ENDROOT
BRANCH   6   9
HETATM    9  N1  UNL     1     -21.327  59.548   3.864  1.00  0.00    -0.279 N
HETATM   10  C7  UNL     1     -20.708  58.240   3.651  1.00  0.00     0.233 A
HETATM   11  O1  UNL     1     -21.354  57.209   3.356  1.00  0.00    -0.272 OA
HETATM   12  C8  UNL     1     -19.267  58.340   3.831  1.00  0.00     0.145 A
HETATM   13  C9  UNL     1     -19.098  59.769   4.160  1.00  0.00    -0.008 A
HETATM   14  C10 UNL     1     -20.282  60.398   4.180  1.00  0.00     0.088 A
BRANCH  13  15
HETATM   15  C22 UNL     1     -17.780  60.434   4.212  1.00  0.00    -0.014 A
HETATM   16  C21 UNL     1     -17.717  61.323   3.156  1.00  0.00     0.013 A
HETATM   17  C20 UNL     1     -16.704  62.218   2.994  1.00  0.00     0.002 A
HETATM   18  C19 UNL     1     -15.705  62.223   3.940  1.00  0.00     0.012 A
HETATM   19  C18 UNL     1     -15.745  61.348   4.998  1.00  0.00    -0.023 A
HETATM   20  C17 UNL     1     -14.681  61.454   5.887  1.00  0.00     0.012 A
HETATM   21  C23 UNL     1     -16.776  60.411   5.181  1.00  0.00     0.014 A
HETATM   22  C16 UNL     1     -14.610  60.632   6.982  1.00  0.00     0.003 A
HETATM   23  C15 UNL     1     -15.624  59.704   7.164  1.00  0.00     0.032 A
HETATM   24  C14 UNL     1     -16.678  59.592   6.288  1.00  0.00     0.069 A
BRANCH  24  25
HETATM   25  N3  UNL     1     -17.479  58.410   6.614  1.00  0.00    -0.243 N
HETATM   26  C11 UNL     1     -17.115  57.101   6.236  1.00  0.00     0.157 A
HETATM   27  S1  UNL     1     -18.145  56.169   7.083  1.00  0.00     0.119 S
HETATM   28  O2  UNL     1     -18.351  54.498   7.316  1.00  0.00    -0.244 OA
HETATM   29  C12 UNL     1     -19.081  57.483   7.926  1.00  0.00     0.095 A
HETATM   30  C13 UNL     1     -20.223  57.289   8.881  1.00  0.00     0.081 C
HETATM   31  N2  UNL     1     -18.520  58.519   7.496  1.00  0.00    -0.288 N
ATOM     32  H2  UNL     1     -18.837  59.439   7.803  1.00  0.00     0.188 HD
ENDBRANCH  24  25
ENDBRANCH  13  15
ENDBRANCH   6   9
TORSDOF 4
ENDMDL