MODEL 2
REMARK VINA RESULT: -3.055410625      2.193      4.932
REMARK  1 active torsions:
REMARK  status: ('A' for Active; 'I' for Inactive)
REMARK    1  A    between atoms: N2_8  and  C6_9
ROOT
HETATM    1  C1  UNL     1     -24.513  58.902   1.437  1.00  0.00     0.050 C
HETATM    2  C2  UNL     1     -23.524  58.582   2.478  1.00  0.00    -0.033 A
HETATM    3  C3  UNL     1     -23.770  57.586   3.419  1.00  0.00     0.024 A
HETATM    4  C4  UNL     1     -22.832  57.266   4.349  1.00  0.00     0.011 A
HETATM    5  C5  UNL     1     -22.786  56.255   5.284  1.00  0.00     0.121 A
HETATM    6  N1  UNL     1     -21.626  56.297   5.824  1.00  0.00    -0.304 N
ATOM      7  H1  UNL     1     -21.315  55.656   6.554  1.00  0.00     0.186 HD
HETATM    8  N2  UNL     1     -20.835  57.323   5.299  1.00  0.00    -0.255 N
HETATM    9  C12 UNL     1     -21.577  57.918   4.415  1.00  0.00     0.083 A
HETATM   10  C13 UNL     1     -21.297  58.932   3.500  1.00  0.00     0.050 A
HETATM   11  C14 UNL     1     -22.312  59.211   2.553  1.00  0.00     0.065 A
HETATM   12  N3  UNL     1     -22.153  60.270   1.611  1.00  0.00    -0.275 N
HETATM   13  C15 UNL     1     -23.239  61.100   1.273  1.00  0.00     0.170 C
HETATM   14  S1  UNL     1     -20.514  60.499   0.992  1.00  0.00     0.267 S
HETATM   15  O1  UNL     1     -20.111  59.406   0.088  1.00  0.00    -0.200 OA
HETATM   16  O2  UNL     1     -20.477  61.853   0.393  1.00  0.00    -0.200 OA
HETATM   17  C16 UNL     1     -19.622  60.510   2.521  1.00  0.00     0.108 A
HETATM   18  C17 UNL     1     -18.629  61.376   2.634  1.00  0.00     0.041 A
HETATM   19  C18 UNL     1     -17.881  61.418   3.785  1.00  0.00    -0.008 A
HETATM   20  C19 UNL     1     -16.852  62.295   3.973  1.00  0.00     0.014 A
HETATM   21  C20 UNL     1     -16.116  62.334   5.140  1.00  0.00     0.001 A
HETATM   22  C21 UNL     1     -16.430  61.457   6.159  1.00  0.00     0.002 A
HETATM   23  C22 UNL     1     -17.475  60.576   5.953  1.00  0.00     0.030 A
HETATM   24  C23 UNL     1     -18.222  60.526   4.779  1.00  0.00     0.043 A
HETATM   25  N4  UNL     1     -19.247  59.678   4.580  1.00  0.00    -0.353 N
ATOM     26  H4  UNL     1     -19.459  59.037   5.344  1.00  0.00     0.166 HD
HETATM   27  C24 UNL     1     -20.018  59.581   3.492  1.00  0.00     0.071 A
ENDROOT
BRANCH   8  28
HETATM   28  C6  UNL     1     -19.540  57.202   5.797  1.00  0.00     0.057 A
HETATM   29  C7  UNL     1     -18.386  56.894   5.072  1.00  0.00     0.031 A
HETATM   30  C8  UNL     1     -17.176  56.587   5.612  1.00  0.00     0.002 A
HETATM   31  C9  UNL     1     -17.095  56.584   6.995  1.00  0.00     0.000 A
HETATM   32  C10 UNL     1     -18.173  56.874   7.784  1.00  0.00     0.002 A
HETATM   33  C11 UNL     1     -19.373  57.178   7.202  1.00  0.00     0.031 A
ENDBRANCH   8  28
TORSDOF 1
ENDMDL