MODEL 1
REMARK VINA RESULT: -3.092836184      0.000      0.000
REMARK  1 active torsions:
REMARK  status: ('A' for Active; 'I' for Inactive)
REMARK    1  A    between atoms: C12_14  and  C13_15
ROOT
HETATM    1  C1  UNL     1     -14.906  63.536   3.550  1.00  0.00     0.048 C
HETATM    2  C2  UNL     1     -15.884  62.498   3.890  1.00  0.00    -0.061 A
HETATM    3  C3  UNL     1     -16.169  62.213   5.200  1.00  0.00     0.015 A
HETATM    4  C4  UNL     1     -17.106  61.217   5.584  1.00  0.00    -0.034 A
HETATM    5  C5  UNL     1     -17.615  61.103   6.955  1.00  0.00     0.050 C
HETATM    6  C6  UNL     1     -17.685  60.567   4.557  1.00  0.00     0.057 A
HETATM    7  C7  UNL     1     -17.421  60.842   3.181  1.00  0.00    -0.025 A
HETATM    8  C8  UNL     1     -16.521  61.806   2.893  1.00  0.00     0.016 A
HETATM    9  C9  UNL     1     -18.169  60.243   2.027  1.00  0.00     0.083 C
HETATM   10  C10 UNL     1     -19.661  60.274   2.295  1.00  0.00    -0.008 A
HETATM   11  C11 UNL     1     -20.406  60.783   1.260  1.00  0.00     0.099 A
HETATM   12  N1  UNL     1     -21.753  60.827   1.414  1.00  0.00    -0.351 N
ATOM     13  H1  UNL     1     -22.309  61.205   0.647  1.00  0.00     0.166 HD
HETATM   14  C12 UNL     1     -22.401  60.404   2.514  1.00  0.00     0.116 A
HETATM   15  N2  UNL     1     -21.702  59.899   3.547  1.00  0.00    -0.338 N
ATOM     16  H2  UNL     1     -22.168  59.571   4.393  1.00  0.00     0.167 HD
HETATM   17  C19 UNL     1     -20.388  59.847   3.418  1.00  0.00     0.087 A
HETATM   18  C20 UNL     1     -19.778  59.252   4.609  1.00  0.00     0.143 A
HETATM   19  N3  UNL     1     -20.494  58.309   5.202  1.00  0.00    -0.339 N
ATOM     20  H3  UNL     1     -21.448  58.116   4.896  1.00  0.00     0.167 HD
HETATM   21  C21 UNL     1     -19.946  57.610   6.212  1.00  0.00     0.049 A
HETATM   22  C22 UNL     1     -20.657  56.620   6.865  1.00  0.00     0.030 A
HETATM   23  C23 UNL     1     -20.066  55.924   7.900  1.00  0.00     0.002 A
HETATM   24  C24 UNL     1     -18.776  56.177   8.315  1.00  0.00     0.001 A
HETATM   25  C25 UNL     1     -18.066  57.158   7.670  1.00  0.00     0.019 A
HETATM   26  C26 UNL     1     -18.630  57.874   6.630  1.00  0.00     0.059 A
HETATM   27  C27 UNL     1     -17.879  58.861   6.009  1.00  0.00     0.266 A
HETATM   28  O1  UNL     1     -16.731  59.076   6.339  1.00  0.00    -0.267 OA
HETATM   29  N4  UNL     1     -18.505  59.498   5.038  1.00  0.00    -0.261 N
ENDROOT
BRANCH  14  30
HETATM   30  C13 UNL     1     -23.876  60.496   2.576  1.00  0.00     0.008 A
HETATM   31  C14 UNL     1     -24.655  59.362   2.558  1.00  0.00     0.015 A
HETATM   32  C15 UNL     1     -26.031  59.477   2.618  1.00  0.00     0.001 A
HETATM   33  C16 UNL     1     -26.637  60.729   2.698  1.00  0.00     0.000 A
HETATM   34  C17 UNL     1     -25.869  61.879   2.717  1.00  0.00     0.001 A
HETATM   35  C18 UNL     1     -24.507  61.718   2.656  1.00  0.00     0.015 A
ENDBRANCH  14  30
TORSDOF 1
ENDMDL