MODEL 3
REMARK VINA RESULT: -9.927165570      1.497      2.424
REMARK  15 active torsions:
REMARK  status: ('A' for Active; 'I' for Inactive)
REMARK    1  A    between atoms: C2_2  and  C3_3
REMARK    2  A    between atoms: C3_3  and  C4_4
REMARK    3  A    between atoms: C4_4  and  C5_5
REMARK    4  A    between atoms: C5_5  and  C6_6
REMARK    5  A    between atoms: C5_5  and  N3_45
REMARK    6  A    between atoms: C6_6  and  C7_7
REMARK       I    between atoms: C7_7  and  N1_9
REMARK    7  A    between atoms: N1_9  and  C8_11
REMARK    8  A    between atoms: C8_11  and  C9_12
REMARK    9  A    between atoms: C17_20  and  C19_22
REMARK   10  A    between atoms: C19_22  and  C20_23
REMARK   11  A    between atoms: C26_33  and  O3_34
REMARK   12  A    between atoms: C27_36  and  O4_37
REMARK   13  A    between atoms: C28_39  and  O5_40
REMARK       I    between atoms: N3_45  and  C32_47
REMARK   14  A    between atoms: C32_47  and  C33_49
REMARK   15  A    between atoms: C33_49  and  C34_50
ROOT
HETATM    1  C9  UNL     1      44.443  34.265  42.754  1.00  0.00     0.008 C
HETATM    2  C10 UNL     1      43.671  33.146  42.029  1.00  0.00     0.013 C
HETATM    3  C11 UNL     1      44.670  32.493  41.110  1.00  0.00     0.007 C
HETATM    4  C12 UNL     1      45.345  33.546  40.342  1.00  0.00    -0.035 C
HETATM    5  C13 UNL     1      45.967  33.228  39.054  1.00  0.00     0.010 C
HETATM    6  C14 UNL     1      45.403  32.073  38.324  1.00  0.00     0.006 C
HETATM    7  C15 UNL     1      44.085  31.568  38.857  1.00  0.00    -0.006 C
HETATM    8  C16 UNL     1      42.979  32.450  38.405  1.00  0.00     0.011 C
HETATM    9  C17 UNL     1      44.145  31.299  40.339  1.00  0.00    -0.016 C
HETATM   10  C18 UNL     1      45.202  30.197  40.471  1.00  0.00     0.020 C
HETATM   11  C29 UNL     1      46.403  34.193  41.271  1.00  0.00     0.015 C
HETATM   12  C30 UNL     1      45.262  35.048  41.773  1.00  0.00    -0.007 C
HETATM   13  C31 UNL     1      44.691  34.903  40.391  1.00  0.00     0.015 C
ENDROOT
BRANCH   9  14
HETATM   14  C19 UNL     1      42.912  30.854  40.965  1.00  0.00     0.018 C
BRANCH  14  15
HETATM   15  C20 UNL     1      42.645  29.468  41.389  1.00  0.00     0.078 C
HETATM   16  O2  UNL     1      42.414  29.279  42.732  1.00  0.00    -0.312 OA
HETATM   17  C21 UNL     1      42.337  28.012  43.176  1.00  0.00     0.259 C
HETATM   18  C22 UNL     1      43.603  27.216  43.102  1.00  0.00     0.072 C
HETATM   19  N2  UNL     1      41.963  28.088  44.604  1.00  0.00    -0.040 N
HETATM   20  C26 UNL     1      41.167  27.334  42.511  1.00  0.00     0.213 C
HETATM   21  C23 UNL     1      43.850  26.458  44.396  1.00  0.00     0.007 C
HETATM   22  C24 UNL     1      44.022  27.399  45.575  1.00  0.00     0.028 C
HETATM   23  C25 UNL     1      43.152  28.614  45.274  1.00  0.00     0.236 C
ATOM     24  H22 UNL     1      41.114  28.625  44.782  1.00  0.00     0.280 HD
ATOM     25  H21 UNL     1      41.624  27.207  44.991  1.00  0.00     0.280 HD
HETATM   26  C27 UNL     1      41.335  27.338  41.035  1.00  0.00     0.186 C
HETATM   27  C28 UNL     1      41.891  28.591  40.451  1.00  0.00     0.206 C
BRANCH  20  28
HETATM   28  O3  UNL     1      40.982  26.053  43.024  1.00  0.00    -0.388 OA
ATOM     29  H3  UNL     1      40.104  25.953  43.373  1.00  0.00     0.210 HD
ENDBRANCH  20  28
BRANCH  26  30
HETATM   30  O4  UNL     1      40.073  27.032  40.474  1.00  0.00    -0.390 OA
ATOM     31  H4  UNL     1      39.991  27.543  39.678  1.00  0.00     0.210 HD
ENDBRANCH  26  30
BRANCH  27  32
HETATM   32  O5  UNL     1      42.672  28.232  39.320  1.00  0.00    -0.386 OA
ATOM     33  H5  UNL     1      43.602  28.322  39.490  1.00  0.00     0.210 HD
ENDBRANCH  27  32
ENDBRANCH  14  15
ENDBRANCH   9  14
BRANCH   1  34
HETATM   34  C8  UNL     1      45.220  33.688  43.892  1.00  0.00     0.127 C
BRANCH  34  35
HETATM   35  N1  UNL     1      44.697  33.946  45.178  1.00  0.00    -0.361 N
HETATM   36  C7  UNL     1      43.808  33.043  45.831  1.00  0.00     0.219 C
HETATM   37  O1  UNL     1      43.470  31.974  45.265  1.00  0.00    -0.274 OA
ATOM     38  H1  UNL     1      44.966  34.806  45.657  1.00  0.00     0.162 HD
BRANCH  36  39
HETATM   39  C6  UNL     1      43.295  33.388  47.180  1.00  0.00     0.128 C
BRANCH  39  40
HETATM   40  C5  UNL     1      42.540  34.730  47.231  1.00  0.00     0.093 C
BRANCH  40  41
HETATM   41  C4  UNL     1      41.351  34.625  46.394  1.00  0.00     0.026 C
BRANCH  41  42
HETATM   42  C3  UNL     1      41.404  34.914  44.953  1.00  0.00     0.002 C
BRANCH  42  43
HETATM   43  C2  UNL     1      40.654  34.028  44.038  1.00  0.00    -0.004 C
HETATM   44  C1  UNL     1      40.396  34.778  42.713  1.00  0.00     0.005 C
ENDBRANCH  42  43
ENDBRANCH  41  42
ENDBRANCH  40  41
BRANCH  40  45
HETATM   45  N3  UNL     1      42.472  35.252  48.543  1.00  0.00    -0.356 N
HETATM   46  C32 UNL     1      42.279  36.585  48.926  1.00  0.00     0.218 C
HETATM   47  O6  UNL     1      42.139  37.552  48.149  1.00  0.00    -0.274 OA
ATOM     48  H3  UNL     1      42.577  34.578  49.301  1.00  0.00     0.162 HD
BRANCH  46  49
HETATM   49  C33 UNL     1      42.230  36.905  50.394  1.00  0.00     0.106 C
BRANCH  49  50
HETATM   50  C34 UNL     1      42.139  38.388  50.618  1.00  0.00    -0.014 C
HETATM   51  C35 UNL     1      43.243  38.791  51.570  1.00  0.00     0.010 C
HETATM   52  C36 UNL     1      40.801  38.789  51.198  1.00  0.00     0.010 C
ENDBRANCH  49  50
ENDBRANCH  46  49
ENDBRANCH  40  45
ENDBRANCH  39  40
ENDBRANCH  36  39
ENDBRANCH  34  35
ENDBRANCH   1  34
TORSDOF 15
ENDMDL