MODEL 1
REMARK VINA RESULT: -10.486897230      0.000      0.000
REMARK  13 active torsions:
REMARK  status: ('A' for Active; 'I' for Inactive)
REMARK    1  A    between atoms: C2_2  and  C3_3
REMARK    2  A    between atoms: C3_3  and  C4_4
REMARK    3  A    between atoms: C4_4  and  C5_5
REMARK    4  A    between atoms: C5_5  and  N1_6
REMARK       I    between atoms: N1_6  and  C6_8
REMARK       I    between atoms: C6_8  and  N3_12
REMARK    5  A    between atoms: N3_12  and  C7_14
REMARK    6  A    between atoms: C7_14  and  C8_15
REMARK    7  A    between atoms: C8_15  and  C9_16
REMARK    8  A    between atoms: C9_16  and  C10_17
REMARK    9  A    between atoms: C11_19  and  O2_20
REMARK   10  A    between atoms: O2_20  and  C12_21
REMARK   11  A    between atoms: C27_39  and  C28_40
REMARK   12  A    between atoms: C28_40  and  C29_41
REMARK   13  A    between atoms: C34_48  and  N5_49
ROOT
HETATM    1  C12 UNL     1      42.221  34.781  46.533  1.00  0.00     0.125 C
HETATM    2  C13 UNL     1      42.436  33.331  46.832  1.00  0.00     0.033 C
HETATM    3  C14 UNL     1      43.655  32.862  46.073  1.00  0.00     0.013 C
HETATM    4  C15 UNL     1      43.532  32.964  44.578  1.00  0.00    -0.027 C
HETATM    5  C16 UNL     1      44.883  33.610  44.138  1.00  0.00     0.016 C
HETATM    6  C17 UNL     1      42.530  34.009  44.141  1.00  0.00     0.001 C
HETATM    7  C18 UNL     1      42.411  35.155  45.104  1.00  0.00     0.037 C
HETATM    8  C19 UNL     1      41.172  33.471  43.803  1.00  0.00    -0.013 C
HETATM    9  C20 UNL     1      40.471  34.574  42.992  1.00  0.00     0.010 C
HETATM   10  C21 UNL     1      41.250  32.262  42.888  1.00  0.00     0.010 C
HETATM   11  C22 UNL     1      42.654  32.001  42.484  1.00  0.00     0.006 C
HETATM   12  C23 UNL     1      43.417  31.728  43.807  1.00  0.00     0.091 C
HETATM   13  C24 UNL     1      42.826  30.523  44.358  1.00  0.00     0.223 C
HETATM   14  O3  UNL     1      42.443  30.303  45.538  1.00  0.00    -0.273 OA
HETATM   15  N4  UNL     1      42.637  29.418  43.468  1.00  0.00    -0.351 N
ATOM     16  H4  UNL     1      42.672  28.481  43.869  1.00  0.00     0.163 HD
HETATM   17  C25 UNL     1      42.406  29.521  42.069  1.00  0.00     0.037 C
HETATM   18  C26 UNL     1      41.008  29.234  41.642  1.00  0.00     0.039 C
HETATM   19  C27 UNL     1      43.299  28.676  41.185  1.00  0.00     0.024 C
HETATM   20  C30 UNL     1      43.131  29.396  39.862  1.00  0.00     0.008 C
HETATM   21  C31 UNL     1      42.655  30.825  40.202  1.00  0.00     0.008 C
HETATM   22  C32 UNL     1      42.953  30.863  41.635  1.00  0.00     0.019 C
ENDROOT
BRANCH   1  23
HETATM   23  O2  UNL     1      40.900  35.103  46.882  1.00  0.00    -0.356 OA
BRANCH  23  24
HETATM   24  C11 UNL     1      40.724  35.356  48.218  1.00  0.00     0.262 C
HETATM   25  O1  UNL     1      41.343  36.535  48.635  1.00  0.00    -0.354 OA
HETATM   26  C10 UNL     1      40.923  36.602  49.988  1.00  0.00     0.155 C
HETATM   27  C34 UNL     1      39.425  36.431  49.862  1.00  0.00     0.217 C
HETATM   28  C33 UNL     1      39.279  35.670  48.536  1.00  0.00     0.096 C
BRANCH  26  29
HETATM   29  C9  UNL     1      41.249  37.959  50.537  1.00  0.00     0.036 C
BRANCH  29  30
HETATM   30  C8  UNL     1      40.652  39.049  49.709  1.00  0.00     0.023 C
BRANCH  30  31
HETATM   31  C7  UNL     1      40.619  40.395  50.383  1.00  0.00     0.138 C
BRANCH  31  32
HETATM   32  N3  UNL     1      41.782  41.167  50.043  1.00  0.00    -0.227 N
HETATM   33  C6  UNL     1      41.758  42.567  49.905  1.00  0.00     0.667 C
HETATM   34  N1  UNL     1      42.139  43.470  50.932  1.00  0.00    -0.227 N
HETATM   35  N2  UNL     1      41.387  43.068  48.768  1.00  0.00    -0.235 N
ATOM     36  H1  UNL     1      43.133  43.632  51.092  1.00  0.00     0.177 HD
ATOM     37  H22 UNL     1      41.370  44.084  48.668  1.00  0.00     0.174 HD
ATOM     38  H21 UNL     1      41.113  42.419  48.030  1.00  0.00     0.174 HD
ATOM     39  H3  UNL     1      42.664  40.677  49.895  1.00  0.00     0.177 HD
BRANCH  34  40
HETATM   40  C5  UNL     1      41.187  44.173  51.762  1.00  0.00     0.138 C
BRANCH  40  41
HETATM   41  C4  UNL     1      41.537  45.631  51.917  1.00  0.00     0.020 C
BRANCH  41  42
HETATM   42  C3  UNL     1      41.575  46.278  50.542  1.00  0.00     0.001 C
BRANCH  42  43
HETATM   43  C2  UNL     1      40.247  46.842  50.118  1.00  0.00    -0.004 C
HETATM   44  C1  UNL     1      40.453  48.328  49.893  1.00  0.00     0.005 C
ENDBRANCH  42  43
ENDBRANCH  41  42
ENDBRANCH  40  41
ENDBRANCH  34  40
ENDBRANCH  31  32
ENDBRANCH  30  31
ENDBRANCH  29  30
ENDBRANCH  26  29
BRANCH  27  45
HETATM   45  N5  UNL     1      38.878  35.560  50.880  1.00  0.00    -0.072 N
ATOM     46  H53 UNL     1      39.089  35.910  51.814  1.00  0.00     0.274 HD
ATOM     47  H52 UNL     1      37.860  35.624  50.907  1.00  0.00     0.274 HD
ATOM     48  H51 UNL     1      39.182  34.593  50.773  1.00  0.00     0.274 HD
ENDBRANCH  27  45
ENDBRANCH  23  24
ENDBRANCH   1  23
BRANCH  19  49
HETATM   49  C28 UNL     1      42.923  27.240  41.162  1.00  0.00     0.120 C
BRANCH  49  50
HETATM   50  C29 UNL     1      43.622  26.428  42.177  1.00  0.00     0.172 C
HETATM   51  O4  UNL     1      44.697  25.858  41.854  1.00  0.00    -0.648 OA
HETATM   52  O5  UNL     1      43.143  26.274  43.456  1.00  0.00    -0.648 OA
ENDBRANCH  49  50
ENDBRANCH  19  49
TORSDOF 13
ENDMDL