MODEL 5
REMARK VINA RESULT: -8.527411887      2.525      6.188
REMARK  18 active torsions:
REMARK  status: ('A' for Active; 'I' for Inactive)
REMARK    1  A    between atoms: C2_2  and  C5_5
REMARK    2  A    between atoms: C5_5  and  C6_6
REMARK    3  A    between atoms: C7_7  and  C8_8
REMARK    4  A    between atoms: C8_8  and  C10_10
REMARK    5  A    between atoms: C8_8  and  C19_27
REMARK    6  A    between atoms: C10_10  and  C11_11
REMARK    7  A    between atoms: C11_11  and  C12_12
REMARK    8  A    between atoms: C12_12  and  C13_13
REMARK    9  A    between atoms: C12_12  and  N1_16
REMARK   10  A    between atoms: C13_13  and  O1_14
REMARK   11  A    between atoms: N1_16  and  C14_18
REMARK   12  A    between atoms: C14_18  and  C15_19
REMARK   13  A    between atoms: C15_19  and  C16_20
REMARK   14  A    between atoms: C19_27  and  C20_28
REMARK   15  A    between atoms: C20_28  and  C21_29
REMARK   16  A    between atoms: C27_35  and  O2_36
REMARK   17  A    between atoms: C28_38  and  O3_39
REMARK   18  A    between atoms: C38_50  and  O4_51
ROOT
HETATM    1  C8  UNL     1      42.180  41.512  51.937  1.00  0.00     0.020 C
HETATM    2  C9  UNL     1      43.639  41.148  51.816  1.00  0.00     0.029 C
ENDROOT
BRANCH   1   3
HETATM    3  C7  UNL     1      41.919  42.758  51.196  1.00  0.00    -0.097 C
HETATM    4  C6  UNL     1      41.694  43.764  50.572  1.00  0.00    -0.105 C
BRANCH   4   5
HETATM    5  C5  UNL     1      41.410  44.960  49.801  1.00  0.00     0.102 C
BRANCH   5   6
HETATM    6  C2  UNL     1      40.798  46.003  50.736  1.00  0.00    -0.041 C
HETATM    7  C1  UNL     1      39.399  45.653  51.132  1.00  0.00     0.015 C
HETATM    8  C3  UNL     1      40.805  47.355  50.065  1.00  0.00     0.015 C
HETATM    9  C4  UNL     1      41.708  46.071  51.949  1.00  0.00     0.015 C
ENDBRANCH   5   6
ENDBRANCH   4   5
ENDBRANCH   1   3
BRANCH   1  10
HETATM   10  C10 UNL     1      41.376  40.397  51.270  1.00  0.00     0.024 C
BRANCH  10  11
HETATM   11  C11 UNL     1      42.258  39.294  50.803  1.00  0.00     0.028 C
BRANCH  11  12
HETATM   12  C12 UNL     1      41.669  38.478  49.643  1.00  0.00     0.100 C
BRANCH  12  13
HETATM   13  C13 UNL     1      40.234  38.808  49.423  1.00  0.00     0.188 C
BRANCH  13  14
HETATM   14  O1  UNL     1      39.912  39.295  48.171  1.00  0.00    -0.399 OA
ATOM     15  H1  UNL     1      39.294  38.775  47.670  1.00  0.00     0.209 HD
ENDBRANCH  13  14
ENDBRANCH  12  13
BRANCH  12  16
HETATM   16  N1  UNL     1      41.883  37.100  49.853  1.00  0.00    -0.415 N
ATOM     17  H1  UNL     1      41.567  36.669  50.722  1.00  0.00     0.153 HD
BRANCH  16  18
HETATM   18  C14 UNL     1      42.523  36.314  48.884  1.00  0.00     0.120 C
BRANCH  18  19
HETATM   19  C15 UNL     1      41.537  35.545  47.993  1.00  0.00     0.077 C
BRANCH  19  20
HETATM   20  C16 UNL     1      42.326  34.610  47.117  1.00  0.00     0.027 A
HETATM   21  C17 UNL     1      42.544  34.775  45.769  1.00  0.00     0.114 A
HETATM   22  N2  UNL     1      43.283  33.743  45.346  1.00  0.00    -0.360 N
HETATM   23  C18 UNL     1      43.525  32.950  46.384  1.00  0.00     0.180 A
ATOM     24  H2  UNL     1      43.604  33.591  44.391  1.00  0.00     0.166 HD
HETATM   25  N3  UNL     1      42.937  33.482  47.475  1.00  0.00    -0.355 N
ATOM     26  H3  UNL     1      42.957  33.087  48.416  1.00  0.00     0.166 HD
ENDBRANCH  19  20
ENDBRANCH  18  19
ENDBRANCH  16  18
ENDBRANCH  12  16
ENDBRANCH  11  12
ENDBRANCH  10  11
ENDBRANCH   1  10
BRANCH   1  27
HETATM   27  C19 UNL     1      41.736  41.742  53.359  1.00  0.00     0.022 C
BRANCH  27  28
HETATM   28  C20 UNL     1      40.385  42.357  53.359  1.00  0.00     0.007 C
BRANCH  28  29
HETATM   29  C21 UNL     1      39.364  41.499  54.111  1.00  0.00    -0.009 C
HETATM   30  C22 UNL     1      38.153  41.222  53.255  1.00  0.00     0.005 C
HETATM   31  C23 UNL     1      37.884  39.737  53.381  1.00  0.00     0.006 C
HETATM   32  C24 UNL     1      39.227  39.168  53.683  1.00  0.00    -0.001 C
HETATM   33  C25 UNL     1      40.007  40.226  54.472  1.00  0.00     0.008 C
HETATM   34  C32 UNL     1      39.172  37.952  54.614  1.00  0.00    -0.039 C
HETATM   35  C26 UNL     1      40.008  39.835  55.892  1.00  0.00     0.023 C
HETATM   36  C27 UNL     1      41.406  39.482  56.383  1.00  0.00     0.159 C
HETATM   37  C31 UNL     1      39.092  38.612  55.926  1.00  0.00     0.008 C
HETATM   38  C38 UNL     1      39.431  40.809  56.872  1.00  0.00     0.138 C
HETATM   39  C28 UNL     1      41.395  38.855  57.748  1.00  0.00     0.152 C
HETATM   40  C29 UNL     1      39.952  38.714  58.171  1.00  0.00     0.028 C
HETATM   41  C30 UNL     1      39.307  37.786  57.131  1.00  0.00     0.014 C
HETATM   42  C35 UNL     1      39.284  40.063  58.206  1.00  0.00    -0.015 C
HETATM   43  C36 UNL     1      37.829  39.896  58.583  1.00  0.00     0.018 C
HETATM   44  C37 UNL     1      39.940  40.845  59.325  1.00  0.00     0.018 C
HETATM   45  C33 UNL     1      40.397  37.144  54.355  1.00  0.00     0.015 C
HETATM   46  C34 UNL     1      37.946  37.109  54.336  1.00  0.00     0.015 C
BRANCH  36  47
HETATM   47  O2  UNL     1      42.113  40.699  56.467  1.00  0.00    -0.392 OA
ATOM     48  H2  UNL     1      41.533  41.368  56.123  1.00  0.00     0.210 HD
ENDBRANCH  36  47
BRANCH  39  49
HETATM   49  O3  UNL     1      42.178  39.497  58.669  1.00  0.00    -0.393 OA
ATOM     50  H3  UNL     1      42.632  38.917  59.269  1.00  0.00     0.210 HD
ENDBRANCH  39  49
BRANCH  38  51
HETATM   51  O4  UNL     1      40.179  41.929  57.101  1.00  0.00    -0.394 OA
ATOM     52  H4  UNL     1      40.774  41.881  57.841  1.00  0.00     0.210 HD
ENDBRANCH  38  51
ENDBRANCH  28  29
ENDBRANCH  27  28
ENDBRANCH   1  27
TORSDOF 18
ENDMDL