MODEL 1
REMARK VINA RESULT: -8.603615647      0.000      0.000
REMARK  13 active torsions:
REMARK  status: ('A' for Active; 'I' for Inactive)
REMARK    1  A    between atoms: C2_2  and  C3_3
REMARK    2  A    between atoms: C3_3  and  N1_4
REMARK       I    between atoms: N1_4  and  C4_6
REMARK       I    between atoms: C4_6  and  N3_10
REMARK    3  A    between atoms: N3_10  and  C5_12
REMARK    4  A    between atoms: C5_12  and  C6_13
REMARK    5  A    between atoms: C6_13  and  O1_14
REMARK    6  A    between atoms: C6_13  and  C7_16
REMARK    7  A    between atoms: C17_29  and  C18_30
REMARK    8  A    between atoms: C18_30  and  C19_31
REMARK    9  A    between atoms: C19_31  and  C20_32
REMARK   10  A    between atoms: C20_32  and  C21_33
REMARK   11  A    between atoms: C21_33  and  C22_34
REMARK   12  A    between atoms: C22_34  and  C23_35
REMARK   13  A    between atoms: C23_35  and  N5_36
ROOT
HETATM    1  C7  UNL     1      37.695  35.564  54.269  1.00  0.00     0.040 C
HETATM    2  C8  UNL     1      37.940  36.563  55.375  1.00  0.00     0.009 C
HETATM    3  C9  UNL     1      39.232  36.376  56.085  1.00  0.00     0.001 C
HETATM    4  C10 UNL     1      39.950  37.603  56.517  1.00  0.00     0.000 C
HETATM    5  C11 UNL     1      39.111  38.815  56.762  1.00  0.00     0.000 C
HETATM    6  C12 UNL     1      40.092  39.923  57.182  1.00  0.00     0.000 C
HETATM    7  C13 UNL     1      39.504  41.288  57.069  1.00  0.00     0.000 C
HETATM    8  C14 UNL     1      39.703  41.878  55.692  1.00  0.00     0.009 C
HETATM    9  C15 UNL     1      40.340  43.250  55.721  1.00  0.00     0.103 C
HETATM   10  C16 UNL     1      41.769  43.198  55.329  1.00  0.00     0.218 C
HETATM   11  O2  UNL     1      42.605  43.341  56.292  1.00  0.00    -0.274 OA
HETATM   12  N4  UNL     1      42.288  43.011  54.044  1.00  0.00    -0.348 N
ATOM     13  H4  UNL     1      43.000  42.286  53.965  1.00  0.00     0.163 HD
HETATM   14  C17 UNL     1      41.968  43.683  52.826  1.00  0.00     0.176 C
HETATM   15  C26 UNL     1      40.868  43.100  52.039  1.00  0.00     0.240 C
HETATM   16  O3  UNL     1      39.685  43.448  52.287  1.00  0.00    -0.271 OA
HETATM   17  N6  UNL     1      41.036  42.144  50.986  1.00  0.00    -0.359 N
ATOM     18  H6  UNL     1      40.399  42.182  50.191  1.00  0.00     0.162 HD
HETATM   19  C27 UNL     1      42.051  41.142  50.995  1.00  0.00     0.122 C
HETATM   20  C28 UNL     1      41.680  39.838  50.362  1.00  0.00     0.021 C
HETATM   21  C29 UNL     1      40.265  39.411  50.536  1.00  0.00     0.012 C
HETATM   22  C30 UNL     1      39.945  38.666  51.784  1.00  0.00    -0.026 C
HETATM   23  C31 UNL     1      41.140  38.383  52.670  1.00  0.00     0.017 C
HETATM   24  C32 UNL     1      38.900  39.462  52.550  1.00  0.00     0.017 C
HETATM   25  C33 UNL     1      39.316  37.288  51.518  1.00  0.00     0.176 C
HETATM   26  O4  UNL     1      38.493  36.984  52.589  1.00  0.00    -0.390 OA
HETATM   27  C34 UNL     1      38.653  35.726  53.113  1.00  0.00     0.174 C
ENDROOT
BRANCH   1  28
HETATM   28  C6  UNL     1      37.597  34.170  54.787  1.00  0.00     0.142 C
BRANCH  28  29
HETATM   29  C5  UNL     1      36.371  33.445  54.249  1.00  0.00     0.170 C
BRANCH  29  30
HETATM   30  N3  UNL     1      35.256  33.792  55.100  1.00  0.00    -0.224 N
HETATM   31  C4  UNL     1      34.329  34.824  54.713  1.00  0.00     0.667 C
HETATM   32  N1  UNL     1      33.832  35.749  55.650  1.00  0.00    -0.227 N
HETATM   33  N2  UNL     1      33.982  34.854  53.472  1.00  0.00    -0.235 N
ATOM     34  H1  UNL     1      33.093  35.436  56.278  1.00  0.00     0.177 HD
ATOM     35  H22 UNL     1      33.325  35.585  53.197  1.00  0.00     0.174 HD
ATOM     36  H21 UNL     1      34.342  34.184  52.792  1.00  0.00     0.174 HD
ATOM     37  H3  UNL     1      35.125  33.301  55.985  1.00  0.00     0.177 HD
BRANCH  32  38
HETATM   38  C3  UNL     1      34.297  37.109  55.782  1.00  0.00     0.137 C
BRANCH  38  39
HETATM   39  C2  UNL     1      34.551  37.439  57.221  1.00  0.00     0.016 C
HETATM   40  C1  UNL     1      35.399  38.690  57.310  1.00  0.00     0.006 C
ENDBRANCH  38  39
ENDBRANCH  32  38
ENDBRANCH  29  30
ENDBRANCH  28  29
BRANCH  28  41
HETATM   41  O1  UNL     1      38.678  33.355  54.498  1.00  0.00    -0.393 OA
ATOM     42  H1  UNL     1      38.668  33.231  53.556  1.00  0.00     0.210 HD
ENDBRANCH  28  41
ENDBRANCH   1  28
BRANCH  14  43
HETATM   43  C18 UNL     1      41.782  45.197  52.990  1.00  0.00     0.035 C
BRANCH  43  44
HETATM   44  C19 UNL     1      42.053  45.906  51.667  1.00  0.00     0.002 C
BRANCH  44  45
HETATM   45  C20 UNL     1      40.881  46.709  51.220  1.00  0.00     0.000 C
BRANCH  45  46
HETATM   46  C21 UNL     1      40.120  46.166  50.062  1.00  0.00     0.002 C
BRANCH  46  47
HETATM   47  C22 UNL     1      38.628  46.221  50.221  1.00  0.00     0.030 C
BRANCH  47  48
HETATM   48  C23 UNL     1      38.232  47.295  51.222  1.00  0.00     0.271 C
BRANCH  48  49
HETATM   49  N5  UNL     1      37.070  46.810  51.972  1.00  0.00     0.080 N
HETATM   50  C24 UNL     1      37.494  46.104  53.168  1.00  0.00     0.309 C
HETATM   51  C25 UNL     1      36.233  47.956  52.346  1.00  0.00     0.309 C
ENDBRANCH  48  49
ENDBRANCH  47  48
ENDBRANCH  46  47
ENDBRANCH  45  46
ENDBRANCH  44  45
ENDBRANCH  43  44
ENDBRANCH  14  43
TORSDOF 13
ENDMDL