MODEL 2
REMARK VINA RESULT: -9.621073204      2.989     10.137
REMARK  13 active torsions:
REMARK  status: ('A' for Active; 'I' for Inactive)
REMARK    1  A    between atoms: C2_2  and  C4_4
REMARK       I    between atoms: C4_4  and  N1_6
REMARK    2  A    between atoms: N1_6  and  C5_8
REMARK    3  A    between atoms: C5_8  and  C6_9
REMARK    4  A    between atoms: C6_9  and  N2_10
REMARK    5  A    between atoms: N2_10  and  C7_12
REMARK    6  A    between atoms: C16_21  and  C17_22
REMARK    7  A    between atoms: C17_22  and  C19_24
REMARK    8  A    between atoms: C22_27  and  C23_28
REMARK       I    between atoms: C23_28  and  N3_30
REMARK    9  A    between atoms: N3_30  and  C24_32
REMARK   10  A    between atoms: C24_32  and  C26_35
REMARK   11  A    between atoms: C26_35  and  C27_36
REMARK   12  A    between atoms: C27_36  and  C28_37
REMARK   13  A    between atoms: C28_37  and  N5_38
REMARK       I    between atoms: N5_38  and  C29_40
ROOT
HETATM    1  C24 UNL     1      42.403  32.633  45.206  1.00  0.00     0.192 C
HETATM    2  C25 UNL     1      42.423  31.394  46.057  1.00  0.00     0.084 C
HETATM    3  N4  UNL     1      42.443  30.436  46.707  1.00  0.00    -0.195 NA
ENDROOT
BRANCH   1   4
HETATM    4  N3  UNL     1      42.672  33.775  46.061  1.00  0.00    -0.342 N
HETATM    5  C23 UNL     1      41.696  34.799  46.268  1.00  0.00     0.247 C
HETATM    6  O2  UNL     1      40.590  34.657  45.696  1.00  0.00    -0.271 OA
ATOM      7  H3  UNL     1      43.578  33.848  46.524  1.00  0.00     0.163 HD
BRANCH   5   8
HETATM    8  C22 UNL     1      41.948  35.986  47.113  1.00  0.00     0.214 C
HETATM    9  C21 UNL     1      43.115  35.856  48.025  1.00  0.00     0.044 C
HETATM   10  C20 UNL     1      42.456  35.806  49.397  1.00  0.00     0.035 C
HETATM   11  C19 UNL     1      41.229  36.670  49.128  1.00  0.00     0.126 C
HETATM   12  O3  UNL     1      40.831  36.371  47.852  1.00  0.00    -0.371 OA
BRANCH  11  13
HETATM   13  C17 UNL     1      40.155  36.423  50.177  1.00  0.00     0.015 C
HETATM   14  C18 UNL     1      39.158  35.512  49.602  1.00  0.00     0.013 C
BRANCH  13  15
HETATM   15  C16 UNL     1      39.761  37.662  50.850  1.00  0.00     0.000 C
HETATM   16  C14 UNL     1      39.976  37.879  52.273  1.00  0.00    -0.036 C
HETATM   17  C13 UNL     1      41.410  37.980  52.716  1.00  0.00     0.010 C
HETATM   18  C15 UNL     1      39.220  37.062  53.265  1.00  0.00     0.016 C
HETATM   19  C32 UNL     1      39.361  39.281  52.465  1.00  0.00    -0.002 C
HETATM   20  C12 UNL     1      42.201  39.020  51.926  1.00  0.00     0.006 C
HETATM   21  C11 UNL     1      41.643  40.329  52.370  1.00  0.00    -0.010 C
HETATM   22  C10 UNL     1      42.264  41.558  51.829  1.00  0.00     0.007 C
HETATM   23  C33 UNL     1      40.187  40.386  51.963  1.00  0.00    -0.006 C
HETATM   24  C9  UNL     1      42.536  42.598  52.853  1.00  0.00     0.030 C
HETATM   25  C7  UNL     1      41.475  42.876  53.865  1.00  0.00     0.022 C
HETATM   26  C8  UNL     1      42.151  42.524  55.215  1.00  0.00     0.038 C
HETATM   27  C35 UNL     1      40.248  42.085  53.825  1.00  0.00     0.030 C
HETATM   28  C34 UNL     1      39.678  41.710  52.497  1.00  0.00     0.008 C
HETATM   29  C31 UNL     1      38.070  39.109  51.738  1.00  0.00     0.006 C
HETATM   30  C30 UNL     1      38.314  38.077  50.637  1.00  0.00     0.006 C
BRANCH  25  31
HETATM   31  N2  UNL     1      41.314  44.313  53.973  1.00  0.00    -0.411 N
ATOM     32  H2  UNL     1      42.051  44.956  53.686  1.00  0.00     0.154 HD
BRANCH  31  33
HETATM   33  C6  UNL     1      40.085  44.781  54.493  1.00  0.00     0.134 C
BRANCH  33  34
HETATM   34  C5  UNL     1      39.381  45.659  53.468  1.00  0.00     0.141 C
BRANCH  34  35
HETATM   35  N1  UNL     1      40.039  45.723  52.204  1.00  0.00    -0.359 N
HETATM   36  C4  UNL     1      39.525  45.174  50.999  1.00  0.00     0.221 C
HETATM   37  O1  UNL     1      38.451  44.570  50.882  1.00  0.00    -0.273 OA
ATOM     38  H1  UNL     1      40.942  46.195  52.163  1.00  0.00     0.162 HD
BRANCH  36  39
HETATM   39  C2  UNL     1      40.348  45.338  49.761  1.00  0.00     0.070 C
HETATM   40  C1  UNL     1      40.896  43.996  49.309  1.00  0.00     0.019 C
HETATM   41  C3  UNL     1      41.483  46.291  49.920  1.00  0.00     0.019 C
ENDBRANCH  36  39
ENDBRANCH  34  35
ENDBRANCH  33  34
ENDBRANCH  31  33
ENDBRANCH  25  31
ENDBRANCH  13  15
ENDBRANCH  11  13
ENDBRANCH   5   8
ENDBRANCH   1   4
BRANCH   1  42
HETATM   42  C26 UNL     1      43.399  32.457  44.111  1.00  0.00     0.042 C
BRANCH  42  43
HETATM   43  C27 UNL     1      44.563  33.393  44.332  1.00  0.00     0.023 C
BRANCH  43  44
HETATM   44  C28 UNL     1      44.830  34.195  43.070  1.00  0.00     0.122 C
BRANCH  44  45
HETATM   45  N5  UNL     1      46.114  33.808  42.542  1.00  0.00    -0.365 N
HETATM   46  C29 UNL     1      46.436  33.990  41.151  1.00  0.00     0.181 C
HETATM   47  N6  UNL     1      46.714  35.210  40.773  1.00  0.00    -0.374 N
HETATM   48  N7  UNL     1      46.450  32.916  40.256  1.00  0.00    -0.064 NA
ATOM     49  H62 UNL     1      46.703  35.993  41.425  1.00  0.00     0.158 HD
ATOM     50  H61 UNL     1      46.942  35.339  39.786  1.00  0.00     0.158 HD
ATOM     51  H5  UNL     1      46.808  33.396  43.167  1.00  0.00     0.162 HD
ENDBRANCH  44  45
ENDBRANCH  43  44
ENDBRANCH  42  43
ENDBRANCH   1  42
TORSDOF 13
ENDMDL