MODEL 1
REMARK VINA RESULT: -8.544157787      0.000      0.000
REMARK  18 active torsions:
REMARK  status: ('A' for Active; 'I' for Inactive)
REMARK    1  A    between atoms: C2_2  and  O1_3
REMARK    2  A    between atoms: C2_2  and  C3_5
REMARK    3  A    between atoms: C2_2  and  C14_19
REMARK    4  A    between atoms: C3_5  and  N1_6
REMARK    5  A    between atoms: N1_6  and  C6_9
REMARK    6  A    between atoms: C7_10  and  C8_11
REMARK    7  A    between atoms: C8_11  and  C9_12
REMARK    8  A    between atoms: C9_12  and  C10_13
REMARK    9  A    between atoms: C10_13  and  C11_14
REMARK   10  A    between atoms: C11_14  and  C12_15
REMARK   11  A    between atoms: C12_15  and  C13_16
REMARK   12  A    between atoms: C19_24  and  O4_25
REMARK   13  A    between atoms: C23_30  and  C24_31
REMARK   14  A    between atoms: C25_32  and  C26_33
REMARK   15  A    between atoms: C26_33  and  O5_34
REMARK   16  A    between atoms: C26_33  and  C27_36
REMARK   17  A    between atoms: C27_36  and  O6_37
REMARK   18  A    between atoms: C28_39  and  O7_40
ROOT
HETATM    1  C14 UNL     1      38.617  44.418  53.747  1.00  0.00     0.030 C
HETATM    2  C15 UNL     1      39.387  45.410  54.704  1.00  0.00     0.009 C
HETATM    3  C16 UNL     1      39.609  44.590  55.938  1.00  0.00     0.006 C
HETATM    4  C17 UNL     1      39.209  43.191  55.543  1.00  0.00     0.001 C
HETATM    5  C18 UNL     1      39.923  42.124  56.258  1.00  0.00     0.024 C
HETATM    6  C19 UNL     1      39.027  41.710  57.434  1.00  0.00     0.123 C
HETATM    7  C20 UNL     1      38.285  40.431  57.144  1.00  0.00     0.037 C
HETATM    8  C21 UNL     1      39.300  39.320  57.050  1.00  0.00    -0.002 C
HETATM    9  C22 UNL     1      38.615  38.030  56.645  1.00  0.00     0.025 C
HETATM   10  C23 UNL     1      39.565  36.888  56.497  1.00  0.00     0.094 C
HETATM   11  C28 UNL     1      40.956  37.286  56.095  1.00  0.00     0.134 C
HETATM   12  C29 UNL     1      40.811  38.559  55.256  1.00  0.00     0.042 C
HETATM   13  C30 UNL     1      40.502  39.663  56.261  1.00  0.00    -0.034 C
HETATM   14  C31 UNL     1      41.751  39.769  57.149  1.00  0.00     0.016 C
HETATM   15  C32 UNL     1      40.406  40.965  55.472  1.00  0.00     0.001 C
HETATM   16  C33 UNL     1      39.680  40.737  54.186  1.00  0.00     0.007 C
HETATM   17  C34 UNL     1      39.059  41.919  53.546  1.00  0.00     0.010 C
HETATM   18  C35 UNL     1      39.511  43.259  54.012  1.00  0.00    -0.034 C
HETATM   19  C36 UNL     1      40.976  43.476  53.932  1.00  0.00     0.016 C
ENDROOT
BRANCH   1  20
HETATM   20  C2  UNL     1      38.527  45.044  52.415  1.00  0.00     0.083 C
HETATM   21  C1  UNL     1      37.026  45.312  52.113  1.00  0.00     0.048 C
BRANCH  20  22
HETATM   22  O1  UNL     1      39.064  46.332  52.533  1.00  0.00    -0.388 OA
ATOM     23  H1  UNL     1      39.056  46.654  51.639  1.00  0.00     0.210 HD
ENDBRANCH  20  22
BRANCH  20  24
HETATM   24  C3  UNL     1      39.190  44.461  51.246  1.00  0.00     0.279 C
BRANCH  24  25
HETATM   25  N1  UNL     1      40.346  44.956  50.617  1.00  0.00    -0.052 N
HETATM   26  C4  UNL     1      39.902  46.125  49.776  1.00  0.00     0.278 C
HETATM   27  C5  UNL     1      41.433  45.462  51.341  1.00  0.00     0.278 C
BRANCH  25  28
HETATM   28  C6  UNL     1      40.810  44.032  49.608  1.00  0.00     0.197 C
HETATM   29  C7  UNL     1      41.898  43.101  49.810  1.00  0.00    -0.002 C
BRANCH  29  30
HETATM   30  C8  UNL     1      41.836  41.963  50.741  1.00  0.00     0.028 C
BRANCH  30  31
HETATM   31  C9  UNL     1      43.104  41.797  51.573  1.00  0.00     0.004 C
BRANCH  31  32
HETATM   32  C10 UNL     1      43.077  40.455  52.243  1.00  0.00     0.001 C
BRANCH  32  33
HETATM   33  C11 UNL     1      42.100  39.508  51.616  1.00  0.00     0.010 C
BRANCH  33  34
HETATM   34  C12 UNL     1      42.754  38.236  51.175  1.00  0.00     0.113 C
BRANCH  34  35
HETATM   35  C13 UNL     1      42.139  37.606  49.990  1.00  0.00     0.172 C
HETATM   36  O2  UNL     1      41.577  36.496  50.121  1.00  0.00    -0.648 OA
HETATM   37  O3  UNL     1      42.139  38.165  48.726  1.00  0.00    -0.648 OA
ENDBRANCH  34  35
ENDBRANCH  33  34
ENDBRANCH  32  33
ENDBRANCH  31  32
ENDBRANCH  30  31
ENDBRANCH  29  30
ENDBRANCH  25  28
ENDBRANCH  24  25
ENDBRANCH  20  24
ENDBRANCH   1  20
BRANCH   6  38
HETATM   38  O4  UNL     1      39.724  41.600  58.616  1.00  0.00    -0.395 OA
ATOM     39  H4  UNL     1      39.528  42.304  59.222  1.00  0.00     0.210 HD
ENDBRANCH   6  38
BRANCH  11  40
HETATM   40  O7  UNL     1      41.558  36.331  55.266  1.00  0.00    -0.394 OA
ATOM     41  H7  UNL     1      41.031  36.137  54.500  1.00  0.00     0.210 HD
ENDBRANCH  11  40
BRANCH  10  42
HETATM   42  C24 UNL     1      38.969  35.961  55.507  1.00  0.00    -0.096 C
HETATM   43  C25 UNL     1      38.488  35.186  54.709  1.00  0.00    -0.072 C
BRANCH  43  44
HETATM   44  C26 UNL     1      37.914  34.234  53.768  1.00  0.00     0.220 C
BRANCH  44  45
HETATM   45  O5  UNL     1      38.607  33.014  53.851  1.00  0.00    -0.381 OA
ATOM     46  H5  UNL     1      38.002  32.320  54.087  1.00  0.00     0.211 HD
ENDBRANCH  44  45
BRANCH  44  47
HETATM   47  C27 UNL     1      36.460  33.921  54.095  1.00  0.00     0.208 C
BRANCH  47  48
HETATM   48  O6  UNL     1      36.309  33.438  55.383  1.00  0.00    -0.397 OA
ATOM     49  H6  UNL     1      36.023  32.533  55.393  1.00  0.00     0.209 HD
ENDBRANCH  47  48
ENDBRANCH  44  47
ENDBRANCH  43  44
ENDBRANCH  10  42
TORSDOF 18
ENDMDL