MODEL 5
REMARK VINA RESULT: -9.472016184      4.736      9.144
REMARK  13 active torsions:
REMARK  status: ('A' for Active; 'I' for Inactive)
REMARK    1  A    between atoms: C8_8  and  C9_9
REMARK    2  A    between atoms: C9_9  and  C10_10
REMARK    3  A    between atoms: C10_10  and  C11_11
REMARK    4  A    between atoms: C25_31  and  C26_32
REMARK    5  A    between atoms: C26_32  and  C27_33
REMARK    6  A    between atoms: C26_32  and  C28_35
REMARK    7  A    between atoms: C28_35  and  C29_36
REMARK    8  A    between atoms: C29_36  and  C30_37
REMARK    9  A    between atoms: C30_37  and  N3_38
REMARK       I    between atoms: N3_38  and  C31_40
REMARK   10  A    between atoms: C31_40  and  C32_42
REMARK   11  A    between atoms: C32_42  and  O3_43
REMARK   12  A    between atoms: C32_42  and  C33_45
REMARK   13  A    between atoms: C33_45  and  C34_46
ROOT
HETATM    1  C1  UNL     1      37.928  41.307  53.278  1.00  0.00     0.016 C
HETATM    2  C2  UNL     1      38.836  40.333  53.997  1.00  0.00    -0.036 C
HETATM    3  C3  UNL     1      38.047  39.927  55.249  1.00  0.00     0.010 C
HETATM    4  C4  UNL     1      37.645  38.505  55.297  1.00  0.00     0.007 C
HETATM    5  C5  UNL     1      37.147  38.070  53.947  1.00  0.00     0.004 C
HETATM    6  C6  UNL     1      38.335  38.036  53.027  1.00  0.00    -0.004 C
HETATM    7  C7  UNL     1      38.997  36.670  53.256  1.00  0.00     0.011 C
HETATM    8  C8  UNL     1      38.096  35.525  52.935  1.00  0.00    -0.005 C
HETATM    9  C16 UNL     1      36.907  35.539  53.851  1.00  0.00    -0.026 C
HETATM   10  C17 UNL     1      35.821  34.584  53.321  1.00  0.00     0.016 C
HETATM   11  C18 UNL     1      37.297  34.938  55.176  1.00  0.00     0.030 C
HETATM   12  C19 UNL     1      36.154  34.879  56.154  1.00  0.00     0.123 C
HETATM   13  N2  UNL     1      35.420  36.117  56.223  1.00  0.00    -0.361 N
ATOM     14  H2  UNL     1      34.947  36.379  57.088  1.00  0.00     0.162 HD
HETATM   15  C20 UNL     1      35.353  36.965  55.108  1.00  0.00     0.223 C
HETATM   16  O1  UNL     1      34.467  37.867  55.068  1.00  0.00    -0.273 OA
HETATM   17  C21 UNL     1      36.283  36.873  53.928  1.00  0.00     0.091 C
HETATM   18  C22 UNL     1      39.282  39.162  53.199  1.00  0.00    -0.002 C
HETATM   19  C23 UNL     1      40.610  38.786  53.763  1.00  0.00     0.006 C
HETATM   20  C24 UNL     1      40.785  39.674  55.007  1.00  0.00     0.006 C
HETATM   21  C25 UNL     1      40.117  40.941  54.493  1.00  0.00    -0.001 C
ENDROOT
BRANCH  21  22
HETATM   22  C26 UNL     1      41.032  41.624  53.618  1.00  0.00     0.000 C
BRANCH  22  23
HETATM   23  C27 UNL     1      41.286  43.098  53.791  1.00  0.00     0.091 C
HETATM   24  S1  UNL     1      42.063  43.291  55.445  1.00  0.00    -0.097 SA
ENDBRANCH  22  23
BRANCH  22  25
HETATM   25  C28 UNL     1      42.421  41.014  53.725  1.00  0.00     0.007 C
BRANCH  25  26
HETATM   26  C29 UNL     1      43.215  41.107  52.443  1.00  0.00     0.020 C
BRANCH  26  27
HETATM   27  C30 UNL     1      42.291  40.944  51.234  1.00  0.00     0.122 C
BRANCH  27  28
HETATM   28  N3  UNL     1      42.367  42.037  50.333  1.00  0.00    -0.359 N
HETATM   29  C31 UNL     1      41.203  42.772  49.998  1.00  0.00     0.246 C
HETATM   30  O2  UNL     1      40.114  42.427  50.521  1.00  0.00    -0.271 OA
ATOM     31  H3  UNL     1      43.265  42.294  49.923  1.00  0.00     0.162 HD
BRANCH  29  32
HETATM   32  C32 UNL     1      41.218  43.923  49.062  1.00  0.00     0.219 C
BRANCH  32  33
HETATM   33  O3  UNL     1      40.800  43.581  47.791  1.00  0.00    -0.386 OA
ATOM     34  H3  UNL     1      40.778  44.325  47.200  1.00  0.00     0.210 HD
ENDBRANCH  32  33
BRANCH  32  35
HETATM   35  C33 UNL     1      40.436  45.093  49.556  1.00  0.00     0.154 C
BRANCH  35  36
HETATM   36  C34 UNL     1      41.358  46.059  50.205  1.00  0.00     0.175 C
HETATM   37  O4  UNL     1      41.540  46.018  51.445  1.00  0.00    -0.648 OA
HETATM   38  O5  UNL     1      42.042  47.026  49.484  1.00  0.00    -0.648 OA
ENDBRANCH  35  36
ENDBRANCH  32  35
ENDBRANCH  29  32
ENDBRANCH  27  28
ENDBRANCH  26  27
ENDBRANCH  25  26
ENDBRANCH  22  25
ENDBRANCH  21  22
BRANCH   8  39
HETATM   39  C9  UNL     1      37.746  35.359  51.489  1.00  0.00     0.006 C
BRANCH  39  40
HETATM   40  C10 UNL     1      38.968  35.251  50.608  1.00  0.00     0.005 C
BRANCH  40  41
HETATM   41  C11 UNL     1      38.832  35.937  49.299  1.00  0.00    -0.011 C
HETATM   42  C12 UNL     1      39.792  35.468  48.232  1.00  0.00     0.032 C
HETATM   43  C13 UNL     1      41.225  35.830  48.544  1.00  0.00     0.232 C
HETATM   44  N1  UNL     1      41.303  37.281  48.435  1.00  0.00    -0.075 N
HETATM   45  C14 UNL     1      40.482  37.834  49.495  1.00  0.00     0.232 C
ATOM     46  H12 UNL     1      42.261  37.632  48.447  1.00  0.00     0.277 HD
ATOM     47  H11 UNL     1      41.048  37.627  47.510  1.00  0.00     0.277 HD
HETATM   48  C15 UNL     1      39.034  37.442  49.405  1.00  0.00     0.032 C
ENDBRANCH  40  41
ENDBRANCH  39  40
ENDBRANCH   8  39
TORSDOF 13
ENDMDL