MODEL 3
REMARK VINA RESULT: -8.796375303      3.982      8.337
REMARK  14 active torsions:
REMARK  status: ('A' for Active; 'I' for Inactive)
REMARK    1  A    between atoms: C5_5  and  C6_6
REMARK    2  A    between atoms: C6_6  and  C8_8
REMARK    3  A    between atoms: C8_8  and  C9_9
REMARK    4  A    between atoms: C15_16  and  O2_17
REMARK    5  A    between atoms: C16_19  and  C17_20
REMARK    6  A    between atoms: C17_20  and  C19_22
REMARK    7  A    between atoms: C21_26  and  O3_27
REMARK    8  A    between atoms: C22_29  and  N2_30
REMARK       I    between atoms: N2_30  and  C23_32
REMARK    9  A    between atoms: C23_32  and  C24_34
REMARK   10  A    between atoms: C24_34  and  C25_35
REMARK   11  A    between atoms: C25_35  and  C26_36
REMARK   12  A    between atoms: C26_36  and  C27_37
REMARK   13  A    between atoms: C27_37  and  C28_38
REMARK   14  A    between atoms: C28_38  and  C29_39
ROOT
HETATM    1  C1  UNL     1      38.610  35.235  49.088  1.00  0.00     0.015 C
HETATM    2  C2  UNL     1      39.034  36.169  49.928  1.00  0.00    -0.081 C
HETATM    3  C3  UNL     1      39.121  35.958  51.402  1.00  0.00     0.034 C
HETATM    4  C4  UNL     1      37.901  36.575  52.023  1.00  0.00     0.012 C
HETATM    5  C5  UNL     1      37.825  36.405  53.524  1.00  0.00     0.024 C
HETATM    6  C12 UNL     1      38.613  37.543  54.131  1.00  0.00     0.061 C
HETATM    7  C13 UNL     1      37.904  38.039  55.399  1.00  0.00     0.046 C
HETATM    8  C14 UNL     1      39.966  37.063  54.671  1.00  0.00     0.046 C
HETATM    9  O1  UNL     1      38.722  38.650  53.294  1.00  0.00    -0.349 OA
HETATM   10  C15 UNL     1      38.856  39.971  53.334  1.00  0.00     0.280 C
HETATM   11  C16 UNL     1      37.824  41.033  53.064  1.00  0.00     0.142 C
HETATM   12  N1  UNL     1      38.441  42.348  52.885  1.00  0.00    -0.363 N
ATOM     13  H1  UNL     1      37.812  43.094  53.180  1.00  0.00     0.162 HD
HETATM   14  C21 UNL     1      39.629  42.853  52.429  1.00  0.00     0.135 C
HETATM   15  C22 UNL     1      40.348  42.996  51.154  1.00  0.00     0.159 C
HETATM   16  C30 UNL     1      41.516  42.134  50.856  1.00  0.00     0.035 C
HETATM   17  C31 UNL     1      41.260  41.060  49.804  1.00  0.00     0.022 C
HETATM   18  C32 UNL     1      41.502  39.664  50.339  1.00  0.00     0.122 C
HETATM   19  N5  UNL     1      41.679  38.701  49.296  1.00  0.00    -0.361 N
ATOM     20  H5  UNL     1      42.461  38.846  48.657  1.00  0.00     0.162 HD
HETATM   21  C33 UNL     1      40.858  37.557  49.071  1.00  0.00     0.221 C
HETATM   22  O5  UNL     1      41.415  36.510  48.601  1.00  0.00    -0.273 OA
HETATM   23  C34 UNL     1      39.424  37.490  49.335  1.00  0.00     0.136 C
ENDROOT
BRANCH  15  24
HETATM   24  N2  UNL     1      40.917  44.368  51.069  1.00  0.00    -0.349 N
HETATM   25  C23 UNL     1      41.055  45.038  49.796  1.00  0.00     0.218 C
HETATM   26  O4  UNL     1      40.702  44.490  48.742  1.00  0.00    -0.274 OA
ATOM     27  H2  UNL     1      41.215  44.843  51.921  1.00  0.00     0.163 HD
BRANCH  25  28
HETATM   28  C24 UNL     1      41.631  46.399  49.848  1.00  0.00     0.103 C
BRANCH  28  29
HETATM   29  C25 UNL     1      40.845  47.324  50.703  1.00  0.00     0.009 C
BRANCH  29  30
HETATM   30  C26 UNL     1      39.530  47.673  50.064  1.00  0.00     0.001 C
BRANCH  30  31
HETATM   31  C27 UNL     1      38.375  47.712  51.055  1.00  0.00     0.007 C
BRANCH  31  32
HETATM   32  C28 UNL     1      37.865  46.301  51.224  1.00  0.00     0.072 C
BRANCH  32  33
HETATM   33  C29 UNL     1      37.839  45.859  52.626  1.00  0.00     0.086 C
HETATM   34  N3  UNL     1      38.775  46.158  53.487  1.00  0.00    -0.391 N
ATOM     35  H32 UNL     1      39.565  46.690  53.122  1.00  0.00     0.157 HD
ATOM     36  H31 UNL     1      38.756  45.851  54.459  1.00  0.00     0.157 HD
HETATM   37  N4  UNL     1      36.728  45.111  53.139  1.00  0.00    -0.088 NA
ENDBRANCH  32  33
ENDBRANCH  31  32
ENDBRANCH  30  31
ENDBRANCH  29  30
ENDBRANCH  28  29
ENDBRANCH  25  28
ENDBRANCH  15  24
BRANCH  14  38
HETATM   38  O3  UNL     1      40.369  43.380  53.396  1.00  0.00    -0.348 OA
ATOM     39  H3  UNL     1      40.181  44.299  53.544  1.00  0.00     0.219 HD
ENDBRANCH  14  38
BRANCH  11  40
HETATM   40  C17 UNL     1      36.847  40.718  51.978  1.00  0.00     0.009 C
HETATM   41  C18 UNL     1      35.802  39.800  52.703  1.00  0.00     0.012 C
BRANCH  40  42
HETATM   42  C19 UNL     1      35.987  41.869  51.545  1.00  0.00     0.002 C
HETATM   43  C20 UNL     1      34.532  41.505  51.529  1.00  0.00     0.005 C
ENDBRANCH  40  42
ENDBRANCH  11  40
BRANCH  10  44
HETATM   44  O2  UNL     1      39.983  40.557  53.636  1.00  0.00    -0.369 OA
ATOM     45  H2  UNL     1      40.236  41.399  53.277  1.00  0.00     0.212 HD
ENDBRANCH  10  44
BRANCH   5  46
HETATM   46  C6  UNL     1      38.220  35.016  53.930  1.00  0.00    -0.008 C
HETATM   47  C7  UNL     1      37.400  34.040  53.068  1.00  0.00     0.011 C
BRANCH  46  48
HETATM   48  C8  UNL     1      37.893  34.596  55.328  1.00  0.00     0.031 C
BRANCH  48  49
HETATM   49  C9  UNL     1      36.478  34.476  55.683  1.00  0.00    -0.031 C
HETATM   50  C10 UNL     1      35.816  35.375  56.422  1.00  0.00    -0.035 C
HETATM   51  C11 UNL     1      34.403  35.224  56.757  1.00  0.00     0.036 C
ENDBRANCH  48  49
ENDBRANCH  46  48
ENDBRANCH   5  46
TORSDOF 14
ENDMDL