MODEL 3
REMARK VINA RESULT: -9.855401504      1.072      1.279
REMARK  16 active torsions:
REMARK  status: ('A' for Active; 'I' for Inactive)
REMARK    1  A    between atoms: C2_2  and  C4_4
REMARK    2  A    between atoms: C4_4  and  C5_5
REMARK    3  A    between atoms: C5_5  and  C7_7
REMARK    4  A    between atoms: C7_7  and  C8_8
REMARK    5  A    between atoms: C8_8  and  C9_9
REMARK    6  A    between atoms: C9_9  and  C12_12
REMARK    7  A    between atoms: C18_18  and  O1_19
REMARK    8  A    between atoms: C22_24  and  C23_25
REMARK    9  A    between atoms: C26_28  and  O2_29
REMARK   10  A    between atoms: C28_32  and  O3_33
REMARK   11  A    between atoms: C28_32  and  C29_35
REMARK   12  A    between atoms: C29_35  and  C30_37
REMARK   13  A    between atoms: C30_37  and  O5_38
REMARK   14  A    between atoms: C30_37  and  N1_40
REMARK   15  A    between atoms: N1_40  and  C31_42
REMARK   16  A    between atoms: C31_42  and  C33_44
ROOT
HETATM    1  C23 UNL     1      38.900  35.904  50.807  1.00  0.00     0.013 C
HETATM    2  C24 UNL     1      39.862  36.195  49.926  1.00  0.00     0.012 C
HETATM    3  C25 UNL     1      41.108  36.787  50.457  1.00  0.00     0.076 C
HETATM    4  C26 UNL     1      42.048  37.068  49.321  1.00  0.00     0.127 C
HETATM    5  C27 UNL     1      42.473  35.744  48.721  1.00  0.00     0.101 C
HETATM    6  C28 UNL     1      41.823  35.521  47.371  1.00  0.00     0.203 C
HETATM    7  N2  UNL     1      40.403  35.483  47.446  1.00  0.00    -0.319 N
ATOM      8  H2  UNL     1      39.923  35.129  46.618  1.00  0.00     0.166 HD
HETATM    9  C36 UNL     1      39.555  35.879  48.539  1.00  0.00     0.250 C
HETATM   10  O6  UNL     1      38.322  35.959  48.214  1.00  0.00    -0.268 OA
ENDROOT
BRANCH   1  11
HETATM   11  C22 UNL     1      39.056  36.154  52.225  1.00  0.00     0.005 C
HETATM   12  C21 UNL     1      38.370  37.032  52.959  1.00  0.00    -0.066 C
HETATM   13  C12 UNL     1      38.680  37.146  54.426  1.00  0.00    -0.013 C
HETATM   14  C20 UNL     1      37.323  37.758  52.252  1.00  0.00     0.022 C
HETATM   15  C13 UNL     1      38.949  35.652  54.826  1.00  0.00     0.021 C
HETATM   16  C14 UNL     1      37.403  37.399  55.142  1.00  0.00     0.015 C
HETATM   17  C15 UNL     1      36.291  38.106  54.529  1.00  0.00     0.006 C
HETATM   18  C16 UNL     1      36.179  38.241  53.071  1.00  0.00    -0.004 C
HETATM   19  C17 UNL     1      36.027  39.748  52.761  1.00  0.00     0.037 C
HETATM   20  C18 UNL     1      36.700  39.914  51.417  1.00  0.00     0.119 C
HETATM   21  C19 UNL     1      37.865  38.928  51.477  1.00  0.00     0.041 C
BRANCH  13  22
HETATM   22  C9  UNL     1      39.867  37.845  54.856  1.00  0.00    -0.036 C
HETATM   23  C10 UNL     1      39.582  38.614  56.173  1.00  0.00     0.016 C
HETATM   24  C11 UNL     1      40.938  36.829  55.403  1.00  0.00     0.016 C
BRANCH  22  25
HETATM   25  C8  UNL     1      40.685  38.752  54.039  1.00  0.00     0.010 C
BRANCH  25  26
HETATM   26  C7  UNL     1      40.220  40.219  53.995  1.00  0.00     0.005 C
BRANCH  26  27
HETATM   27  C5  UNL     1      41.479  41.020  53.782  1.00  0.00    -0.018 C
HETATM   28  C6  UNL     1      42.088  41.435  55.121  1.00  0.00     0.010 C
BRANCH  27  29
HETATM   29  C4  UNL     1      42.545  40.429  52.967  1.00  0.00     0.008 C
BRANCH  29  30
HETATM   30  C2  UNL     1      42.766  40.907  51.594  1.00  0.00    -0.023 C
HETATM   31  C1  UNL     1      41.782  40.578  50.540  1.00  0.00     0.009 C
HETATM   32  C3  UNL     1      42.947  42.429  51.563  1.00  0.00     0.009 C
ENDBRANCH  29  30
ENDBRANCH  27  29
ENDBRANCH  26  27
ENDBRANCH  25  26
ENDBRANCH  22  25
ENDBRANCH  13  22
BRANCH  20  33
HETATM   33  O1  UNL     1      37.229  41.173  51.227  1.00  0.00    -0.396 OA
ATOM     34  H1  UNL     1      36.585  41.808  50.936  1.00  0.00     0.210 HD
ENDBRANCH  20  33
ENDBRANCH   1  11
BRANCH   4  35
HETATM   35  O2  UNL     1      41.382  37.830  48.357  1.00  0.00    -0.395 OA
ATOM     36  H2  UNL     1      42.009  38.396  47.924  1.00  0.00     0.210 HD
ENDBRANCH   4  35
BRANCH   6  37
HETATM   37  O3  UNL     1      42.267  36.571  46.559  1.00  0.00    -0.364 OA
ATOM     38  H3  UNL     1      42.445  36.182  45.711  1.00  0.00     0.213 HD
ENDBRANCH   6  37
BRANCH   6  39
HETATM   39  C29 UNL     1      42.328  34.234  46.832  1.00  0.00     0.229 C
HETATM   40  O4  UNL     1      42.865  33.474  47.630  1.00  0.00    -0.288 OA
BRANCH  39  41
HETATM   41  C30 UNL     1      42.186  33.901  45.402  1.00  0.00     0.290 C
BRANCH  41  42
HETATM   42  O5  UNL     1      40.927  34.255  44.898  1.00  0.00    -0.370 OA
ATOM     43  H5  UNL     1      40.934  35.110  44.482  1.00  0.00     0.212 HD
ENDBRANCH  41  42
BRANCH  41  44
HETATM   44  N1  UNL     1      42.375  32.524  45.129  1.00  0.00    -0.387 N
ATOM     45  H1  UNL     1      41.698  31.829  45.441  1.00  0.00     0.156 HD
BRANCH  44  46
HETATM   46  C31 UNL     1      43.536  32.142  44.407  1.00  0.00     0.078 C
HETATM   47  C32 UNL     1      44.423  33.331  44.065  1.00  0.00     0.032 C
BRANCH  46  48
HETATM   48  C33 UNL     1      43.037  31.645  43.035  1.00  0.00    -0.001 C
HETATM   49  C34 UNL     1      43.103  30.141  43.066  1.00  0.00     0.011 C
HETATM   50  C35 UNL     1      43.840  32.249  41.913  1.00  0.00     0.011 C
ENDBRANCH  46  48
ENDBRANCH  44  46
ENDBRANCH  41  44
ENDBRANCH  39  41
ENDBRANCH   6  39
TORSDOF 16
ENDMDL