MODEL 1
REMARK VINA RESULT: -10.462243986      0.000      0.000
REMARK  14 active torsions:
REMARK  status: ('A' for Active; 'I' for Inactive)
REMARK    1  A    between atoms: C2_2  and  C3_3
REMARK    2  A    between atoms: C2_2  and  C34_49
REMARK    3  A    between atoms: C4_4  and  C5_5
REMARK    4  A    between atoms: C5_5  and  C7_7
REMARK    5  A    between atoms: C16_17  and  C18_19
REMARK    6  A    between atoms: C18_19  and  N1_20
REMARK       I    between atoms: N1_20  and  C19_22
REMARK    7  A    between atoms: C19_22  and  C20_24
REMARK    8  A    between atoms: C20_24  and  N2_25
REMARK    9  A    between atoms: C20_24  and  C21_29
REMARK   10  A    between atoms: C21_29  and  C22_30
REMARK   11  A    between atoms: C22_30  and  C23_31
REMARK   12  A    between atoms: C23_31  and  C24_32
REMARK   13  A    between atoms: C24_32  and  N3_33
REMARK       I    between atoms: N3_33  and  C25_35
REMARK       I    between atoms: C25_35  and  N4_37
REMARK   14  A    between atoms: C29_42  and  O4_43
ROOT
HETATM    1  C7  UNL     1      40.849  42.860  52.121  1.00  0.00     0.093 C
HETATM    2  C8  UNL     1      42.259  42.633  52.496  1.00  0.00     0.141 C
HETATM    3  O1  UNL     1      43.269  43.276  52.515  1.00  0.00    -0.297 OA
HETATM    4  C9  UNL     1      41.820  41.219  52.839  1.00  0.00     0.072 C
HETATM    5  C10 UNL     1      41.718  40.925  54.266  1.00  0.00     0.033 C
HETATM    6  C11 UNL     1      41.771  42.107  55.201  1.00  0.00     0.009 C
HETATM    7  C12 UNL     1      42.201  41.616  56.579  1.00  0.00     0.006 C
HETATM    8  C13 UNL     1      41.819  40.183  56.763  1.00  0.00    -0.003 C
HETATM    9  C14 UNL     1      41.427  39.849  58.197  1.00  0.00     0.006 C
HETATM   10  C15 UNL     1      40.654  38.580  58.017  1.00  0.00     0.012 C
HETATM   11  C16 UNL     1      40.345  38.441  56.536  1.00  0.00    -0.018 C
HETATM   12  C17 UNL     1      41.304  37.449  55.981  1.00  0.00     0.018 C
HETATM   13  C27 UNL     1      40.501  39.858  56.071  1.00  0.00    -0.000 C
HETATM   14  C28 UNL     1      39.409  40.637  56.785  1.00  0.00     0.019 C
HETATM   15  C29 UNL     1      40.531  40.065  54.600  1.00  0.00     0.071 C
HETATM   16  C30 UNL     1      39.295  40.729  54.062  1.00  0.00     0.040 C
HETATM   17  C31 UNL     1      39.307  40.970  52.597  1.00  0.00     0.014 C
HETATM   18  C32 UNL     1      40.604  41.407  52.014  1.00  0.00    -0.019 C
HETATM   19  C33 UNL     1      40.831  40.766  50.634  1.00  0.00     0.017 C
ENDROOT
BRANCH  11  20
HETATM   20  C18 UNL     1      38.937  37.934  56.401  1.00  0.00     0.132 C
BRANCH  20  21
HETATM   21  N1  UNL     1      38.927  36.984  55.277  1.00  0.00    -0.359 N
HETATM   22  C19 UNL     1      38.228  35.756  55.370  1.00  0.00     0.248 C
HETATM   23  O2  UNL     1      37.615  35.492  56.427  1.00  0.00    -0.271 OA
ATOM     24  H1  UNL     1      39.431  37.214  54.420  1.00  0.00     0.162 HD
BRANCH  22  25
HETATM   25  C20 UNL     1      38.231  34.815  54.234  1.00  0.00     0.274 C
BRANCH  25  26
HETATM   26  N2  UNL     1      38.534  33.498  54.723  1.00  0.00    -0.067 N
ATOM     27  H23 UNL     1      39.328  33.075  54.241  1.00  0.00     0.275 HD
ATOM     28  H22 UNL     1      38.931  33.513  55.663  1.00  0.00     0.275 HD
ATOM     29  H21 UNL     1      37.693  32.923  54.665  1.00  0.00     0.275 HD
ENDBRANCH  25  26
BRANCH  25  30
HETATM   30  C21 UNL     1      36.933  34.854  53.456  1.00  0.00     0.042 C
BRANCH  30  31
HETATM   31  C22 UNL     1      37.088  35.537  52.117  1.00  0.00     0.004 C
BRANCH  31  32
HETATM   32  C23 UNL     1      38.505  35.568  51.652  1.00  0.00     0.020 C
BRANCH  32  33
HETATM   33  C24 UNL     1      38.611  35.808  50.157  1.00  0.00     0.124 C
BRANCH  33  34
HETATM   34  N3  UNL     1      39.932  35.464  49.698  1.00  0.00    -0.343 N
HETATM   35  C25 UNL     1      40.221  35.245  48.335  1.00  0.00     0.315 C
HETATM   36  O3  UNL     1      39.303  35.354  47.508  1.00  0.00    -0.247 OA
HETATM   37  N4  UNL     1      41.521  34.907  47.911  1.00  0.00    -0.347 N
HETATM   38  C26 UNL     1      41.770  34.692  46.505  1.00  0.00     0.151 C
ATOM     39  H4  UNL     1      42.278  34.817  48.589  1.00  0.00     0.163 HD
ATOM     40  H3  UNL     1      40.684  35.376  50.381  1.00  0.00     0.164 HD
ENDBRANCH  33  34
ENDBRANCH  32  33
ENDBRANCH  31  32
ENDBRANCH  30  31
ENDBRANCH  25  30
ENDBRANCH  22  25
ENDBRANCH  20  21
ENDBRANCH  11  20
BRANCH  15  41
HETATM   41  O4  UNL     1      40.605  38.830  53.901  1.00  0.00    -0.389 OA
ATOM     42  H4  UNL     1      40.345  38.947  52.995  1.00  0.00     0.210 HD
ENDBRANCH  15  41
BRANCH   1  43
HETATM   43  C5  UNL     1      40.519  43.835  51.078  1.00  0.00    -0.072 C
HETATM   44  C6  UNL     1      41.586  43.830  50.000  1.00  0.00     0.044 C
BRANCH  43  45
HETATM   45  C4  UNL     1      40.037  45.158  51.449  1.00  0.00     0.004 C
HETATM   46  C3  UNL     1      39.445  45.933  50.563  1.00  0.00     0.007 C
BRANCH  46  47
HETATM   47  C2  UNL     1      38.922  47.270  50.817  1.00  0.00    -0.064 C
HETATM   48  C1  UNL     1      37.754  47.352  51.427  1.00  0.00     0.019 C
BRANCH  47  49
HETATM   49  C34 UNL     1      39.616  48.519  50.466  1.00  0.00     0.009 C
HETATM   50  C35 UNL     1      40.833  48.345  49.612  1.00  0.00     0.014 C
HETATM   51  C36 UNL     1      38.685  49.489  49.749  1.00  0.00     0.014 C
ENDBRANCH  47  49
ENDBRANCH  46  47
ENDBRANCH  43  45
ENDBRANCH   1  43
TORSDOF 14
ENDMDL