MODEL 4
REMARK VINA RESULT: -8.750755502      1.209      1.547
REMARK  5 active torsions:
REMARK  status: ('A' for Active; 'I' for Inactive)
REMARK    1  A    between atoms: C2_2  and  C4_5
REMARK    2  A    between atoms: C7_8  and  N1_9
REMARK    3  A    between atoms: C9_11  and  O1_12
REMARK    4  A    between atoms: N2_14  and  C10_15
REMARK    5  A    between atoms: C10_15  and  C11_16
ROOT
HETATM    1  N1  UNL     1      89.250  36.048  11.917  1.00  0.00    -0.295 N
HETATM    2  C8  UNL     1      90.558  36.186  11.653  1.00  0.00     0.155 A
HETATM    3  C9  UNL     1      90.970  37.473  11.797  1.00  0.00     0.160 A
HETATM    4  N2  UNL     1      89.852  38.179  12.172  1.00  0.00    -0.303 N
HETATM    5  C16 UNL     1      88.833  37.311  12.239  1.00  0.00     0.187 A
HETATM    6  S1  UNL     1      87.300  37.690  12.611  1.00  0.00    -0.040 SA
ENDROOT
BRANCH   1   7
HETATM    7  C7  UNL     1      88.453  34.870  11.880  1.00  0.00     0.043 A
HETATM    8  C6  UNL     1      88.411  34.026  10.790  1.00  0.00     0.031 A
HETATM    9  C5  UNL     1      87.619  32.885  10.793  1.00  0.00     0.013 A
HETATM   10  C4  UNL     1      86.837  32.535  11.876  1.00  0.00    -0.014 A
HETATM   11  C18 UNL     1      86.895  33.399  12.965  1.00  0.00     0.044 A
HETATM   12  C17 UNL     1      87.671  34.514  12.958  1.00  0.00     0.054 A
HETATM   13 CL2  UNL     1      85.894  32.920  14.316  1.00  0.00    -0.084 Cl
BRANCH  10  14
HETATM   14  C2  UNL     1      86.041  31.338  11.812  1.00  0.00     0.058 C
HETATM   15  C1  UNL     1      84.600  31.724  11.542  1.00  0.00     0.037 C
HETATM   16  C3  UNL     1      86.063  30.401  12.954  1.00  0.00     0.037 C
HETATM   17 CL1  UNL     1      86.557  30.395  10.374  1.00  0.00    -0.115 Cl
ENDBRANCH  10  14
ENDBRANCH   1   7
BRANCH   3  18
HETATM   18  O1  UNL     1      92.248  38.017  11.612  1.00  0.00    -0.345 OA
ATOM     19  H1  UNL     1      92.494  38.852  11.231  1.00  0.00     0.219 HD
ENDBRANCH   3  18
BRANCH   4  20
HETATM   20  C10 UNL     1      89.911  39.603  12.385  1.00  0.00     0.138 C
BRANCH  20  21
HETATM   21  C11 UNL     1      88.750  40.338  11.832  1.00  0.00     0.007 C
HETATM   22  C12 UNL     1      88.959  41.209  10.655  1.00  0.00     0.025 C
HETATM   23  C13 UNL     1      89.499  42.525  11.021  1.00  0.00     0.114 C
HETATM   24  N3  UNL     1      89.968  42.703  12.348  1.00  0.00    -0.421 N
HETATM   25  C14 UNL     1      89.165  42.156  13.385  1.00  0.00     0.114 C
ATOM     26  H3  UNL     1      90.837  43.199  12.548  1.00  0.00     0.153 HD
HETATM   27  C15 UNL     1      88.095  41.220  12.907  1.00  0.00     0.025 C
ENDBRANCH  20  21
ENDBRANCH   4  20
TORSDOF 5
ENDMDL