MODEL 4
REMARK VINA RESULT: -6.315834014     15.639     18.150
REMARK  4 active torsions:
REMARK  status: ('A' for Active; 'I' for Inactive)
REMARK    1  A    between atoms: C3_3  and  O1_4
REMARK    2  A    between atoms: C6_8  and  C7_9
REMARK    3  A    between atoms: C9_11  and  N1_12
REMARK    4  A    between atoms: C13_23  and  C14_24
ROOT
HETATM    1  C1  UNL     1      85.258  28.788  10.186  1.00  0.00     0.018 C
HETATM    2  C2  UNL     1      85.887  29.839  10.572  1.00  0.00    -0.042 C
HETATM    3  C3  UNL     1      86.499  30.925   9.802  1.00  0.00     0.148 C
HETATM    4  C4  UNL     1      86.568  32.159  10.714  1.00  0.00     0.043 C
HETATM    5  C5  UNL     1      85.281  32.357  11.492  1.00  0.00     0.029 C
HETATM    6  C6  UNL     1      85.082  33.685  12.055  1.00  0.00     0.225 C
HETATM    7  N2  UNL     1      84.935  33.535  13.575  1.00  0.00    -0.062 N
ATOM      8  H21 UNL     1      84.892  34.428  14.068  1.00  0.00     0.278 HD
ATOM      9  H22 UNL     1      85.777  33.181  14.031  1.00  0.00     0.278 HD
HETATM   10  C13 UNL     1      83.783  32.712  13.790  1.00  0.00     0.186 C
HETATM   11  C16 UNL     1      84.338  31.283  13.562  1.00  0.00     0.039 C
HETATM   12  C17 UNL     1      84.881  31.142  12.215  1.00  0.00     0.017 C
HETATM   13  C18 UNL     1      85.958  30.081  12.098  1.00  0.00     0.117 C
HETATM   14 CL3  UNL     1      85.556  28.597  12.934  1.00  0.00    -0.120 Cl
ENDROOT
BRANCH   6  15
HETATM   15  C7  UNL     1      86.240  34.638  12.061  1.00  0.00    -0.003 A
HETATM   16  C8  UNL     1      87.542  34.294  11.812  1.00  0.00     0.048 A
HETATM   17  C9  UNL     1      88.605  35.158  12.014  1.00  0.00     0.125 A
HETATM   18  C10 UNL     1      88.375  36.425  12.478  1.00  0.00     0.068 A
HETATM   19 CL1  UNL     1      89.713  37.546  12.725  1.00  0.00    -0.082 Cl
HETATM   20  C11 UNL     1      87.095  36.823  12.750  1.00  0.00     0.051 A
HETATM   21  C12 UNL     1      86.053  35.946  12.547  1.00  0.00     0.044 A
HETATM   22 CL2  UNL     1      84.418  36.461  12.851  1.00  0.00    -0.084 Cl
BRANCH  17  23
HETATM   23  N1  UNL     1      89.961  34.730  11.835  1.00  0.00    -0.114 N
HETATM   24  O2  UNL     1      90.536  33.980  12.640  1.00  0.00    -0.532 OA
HETATM   25  O3  UNL     1      90.678  35.178  10.735  1.00  0.00    -0.532 OA
ENDBRANCH  17  23
ENDBRANCH   6  15
BRANCH  10  26
HETATM   26  C14 UNL     1      83.401  32.782  15.259  1.00  0.00     0.028 C
HETATM   27  C15 UNL     1      84.387  33.526  16.108  1.00  0.00     0.007 C
ENDBRANCH  10  26
BRANCH   3  28
HETATM   28  O1  UNL     1      85.802  31.205   8.621  1.00  0.00    -0.391 OA
ATOM     29  H1  UNL     1      85.279  30.469   8.323  1.00  0.00     0.210 HD
ENDBRANCH   3  28
TORSDOF 4
ENDMDL