MODEL 3
REMARK VINA RESULT: -7.652536262     16.217     17.940
REMARK  5 active torsions:
REMARK  status: ('A' for Active; 'I' for Inactive)
REMARK    1  A    between atoms: C2_2  and  C3_3
REMARK    2  A    between atoms: C10_10  and  C11_11
REMARK    3  A    between atoms: C16_20  and  O2_21
REMARK    4  A    between atoms: N1_23  and  C17_24
REMARK    5  A    between atoms: C23_30  and  O3_31
ROOT
HETATM    1  C3  UNL     1      84.383  49.635  17.609  1.00  0.00     0.015 C
HETATM    2  C4  UNL     1      84.183  48.189  17.268  1.00  0.00     0.010 C
HETATM    3  C5  UNL     1      85.171  47.383  18.146  1.00  0.00     0.020 C
HETATM    4  C6  UNL     1      85.943  48.450  18.821  1.00  0.00     0.015 C
HETATM    5  C7  UNL     1      85.182  48.802  20.082  1.00  0.00    -0.015 C
HETATM    6  C8  UNL     1      85.556  49.595  21.040  1.00  0.00    -0.026 C
HETATM    7  C9  UNL     1      86.736  50.395  21.278  1.00  0.00     0.080 C
HETATM    8  C10 UNL     1      87.796  50.463  20.249  1.00  0.00     0.193 C
HETATM    9  O1  UNL     1      87.458  51.114  19.067  1.00  0.00    -0.365 OA
HETATM   10  C12 UNL     1      86.228  50.979  18.578  1.00  0.00     0.176 C
HETATM   11  C13 UNL     1      85.877  49.661  17.950  1.00  0.00     0.034 C
HETATM   12  C14 UNL     1      88.179  49.097  19.847  1.00  0.00     0.048 A
HETATM   13  C15 UNL     1      87.336  48.175  19.188  1.00  0.00     0.020 A
HETATM   14  C16 UNL     1      88.053  47.016  18.986  1.00  0.00     0.152 A
HETATM   15  N1  UNL     1      89.287  47.222  19.502  1.00  0.00    -0.303 N
HETATM   16  C23 UNL     1      89.363  48.461  20.016  1.00  0.00     0.155 A
ENDROOT
BRANCH  15  17
HETATM   17  C17 UNL     1      90.356  46.268  19.503  1.00  0.00     0.094 C
HETATM   18  C18 UNL     1      91.376  46.522  18.420  1.00  0.00     0.026 C
HETATM   19  C19 UNL     1      92.777  46.603  18.919  1.00  0.00     0.002 C
HETATM   20  C20 UNL     1      93.173  45.495  19.842  1.00  0.00     0.000 C
HETATM   21  C21 UNL     1      92.052  45.056  20.753  1.00  0.00     0.002 C
HETATM   22  C22 UNL     1      91.038  46.200  20.876  1.00  0.00     0.026 C
ENDBRANCH  15  17
BRANCH  14  23
HETATM   23  O2  UNL     1      87.606  45.878  18.382  1.00  0.00    -0.345 OA
ATOM     24  H2  UNL     1      87.974  45.465  17.609  1.00  0.00     0.219 HD
ENDBRANCH  14  23
BRANCH  16  25
HETATM   25  O3  UNL     1      90.497  48.985  20.622  1.00  0.00    -0.345 OA
ATOM     26  H3  UNL     1      91.195  49.462  20.190  1.00  0.00     0.219 HD
ENDBRANCH  16  25
BRANCH   8  27
HETATM   27  C11 UNL     1      88.890  51.328  20.803  1.00  0.00     0.423 C
HETATM   28  F1  UNL     1      88.230  52.581  21.026  1.00  0.00    -0.167 F
HETATM   29  F2  UNL     1      89.279  51.012  22.088  1.00  0.00    -0.167 F
HETATM   30  F3  UNL     1      89.878  51.666  19.944  1.00  0.00    -0.167 F
ENDBRANCH   8  27
BRANCH   1  31
HETATM   31  C2  UNL     1      84.119  50.572  16.509  1.00  0.00    -0.032 C
HETATM   32  C1  UNL     1      82.922  50.954  16.138  1.00  0.00     0.007 C
ENDBRANCH   1  31
TORSDOF 5
ENDMDL