MODEL 4
REMARK VINA RESULT: -8.231583625     14.607     16.961
REMARK  5 active torsions:
REMARK  status: ('A' for Active; 'I' for Inactive)
REMARK    1  A    between atoms: C3_4  and  N2_5
REMARK    2  A    between atoms: N2_5  and  C4_7
REMARK    3  A    between atoms: C4_7  and  C6_12
REMARK    4  A    between atoms: N3_8  and  C5_10
REMARK    5  A    between atoms: C11_20  and  O2_21
ROOT
HETATM    1  N1  UNL     1      91.052  44.130  16.357  1.00  0.00    -0.191 NA
HETATM    2  C1  UNL     1      91.239  44.512  17.457  1.00  0.00     0.103 C
HETATM    3  C2  UNL     1      91.507  44.976  18.840  1.00  0.00     0.085 A
HETATM    4  C3  UNL     1      90.709  45.926  19.382  1.00  0.00     0.097 A
HETATM    5  S1  UNL     1      91.408  46.136  20.960  1.00  0.00    -0.075 SA
HETATM    6  C12 UNL     1      92.674  45.012  20.856  1.00  0.00    -0.007 A
HETATM    7  C13 UNL     1      92.532  44.498  19.606  1.00  0.00    -0.021 A
HETATM    8  C14 UNL     1      93.542  43.426  19.188  1.00  0.00     0.041 C
HETATM    9  C15 UNL     1      94.014  42.729  20.418  1.00  0.00     0.005 C
HETATM   10  C16 UNL     1      94.774  43.798  21.218  1.00  0.00     0.005 C
HETATM   11  C17 UNL     1      93.721  44.635  21.855  1.00  0.00     0.047 C
ENDROOT
BRANCH   4  12
HETATM   12  N2  UNL     1      89.574  46.658  18.956  1.00  0.00    -0.335 N
ATOM     13  H2  UNL     1      89.089  46.288  18.139  1.00  0.00     0.168 HD
BRANCH  12  14
HETATM   14  C4  UNL     1      89.026  47.834  19.514  1.00  0.00     0.121 C
HETATM   15  N3  UNL     1      89.804  48.825  19.644  1.00  0.00    -0.320 N
ATOM     16  H3  UNL     1      90.755  48.648  19.320  1.00  0.00     0.169 HD
BRANCH  15  17
HETATM   17  C5  UNL     1      89.613  50.098  20.140  1.00  0.00     0.354 C
HETATM   18  O1  UNL     1      89.837  50.303  21.381  1.00  0.00    -0.283 OA
ENDBRANCH  15  17
BRANCH  14  19
HETATM   19  C6  UNL     1      87.648  47.876  19.931  1.00  0.00     0.045 A
HETATM   20  C7  UNL     1      86.588  47.988  19.074  1.00  0.00     0.044 A
HETATM   21  C8  UNL     1      85.277  48.042  19.495  1.00  0.00     0.058 A
HETATM   22 CL1  UNL     1      83.997  48.189  18.320  1.00  0.00    -0.082 Cl
HETATM   23  C9  UNL     1      84.968  47.983  20.823  1.00  0.00     0.080 A
HETATM   24 CL2  UNL     1      83.328  48.048  21.409  1.00  0.00    -0.081 Cl
HETATM   25  C10 UNL     1      86.007  47.867  21.740  1.00  0.00     0.091 A
HETATM   26 CL3  UNL     1      85.635  47.790  23.440  1.00  0.00    -0.079 Cl
HETATM   27  C11 UNL     1      87.304  47.816  21.290  1.00  0.00     0.103 A
BRANCH  27  28
HETATM   28  O2  UNL     1      88.294  47.701  22.231  1.00  0.00    -0.358 OA
ATOM     29  H2  UNL     1      88.133  47.197  23.019  1.00  0.00     0.217 HD
ENDBRANCH  27  28
ENDBRANCH  14  19
ENDBRANCH  12  14
ENDBRANCH   4  12
TORSDOF 5
ENDMDL