MODEL 1
REMARK VINA RESULT: -7.848717382      0.000      0.000
REMARK  6 active torsions:
REMARK  status: ('A' for Active; 'I' for Inactive)
REMARK    1  A    between atoms: C2_2  and  C3_3
REMARK    2  A    between atoms: C3_3  and  O1_4
REMARK    3  A    between atoms: O1_4  and  C4_5
REMARK    4  A    between atoms: C4_5  and  C5_7
REMARK    5  A    between atoms: C12_15  and  O3_16
REMARK    6  A    between atoms: C14_20  and  O4_21
ROOT
HETATM    1  C5  UNL     1      83.748  33.737  14.604  1.00  0.00     0.088 C
HETATM    2  C6  UNL     1      84.454  34.290  13.619  1.00  0.00    -0.035 C
HETATM    3  C7  UNL     1      84.316  35.746  13.406  1.00  0.00     0.038 C
HETATM    4  C8  UNL     1      85.321  36.150  12.319  1.00  0.00     0.014 C
HETATM    5  C9  UNL     1      86.585  35.422  12.676  1.00  0.00     0.030 C
HETATM    6  C10 UNL     1      87.837  36.081  12.379  1.00  0.00    -0.003 A
HETATM    7  C11 UNL     1      88.052  37.352  12.849  1.00  0.00     0.158 A
HETATM    8  F1  UNL     1      87.159  38.054  13.599  1.00  0.00    -0.203 F
HETATM    9  C12 UNL     1      89.250  37.967  12.560  1.00  0.00     0.129 A
HETATM   10  C13 UNL     1      90.239  37.353  11.819  1.00  0.00     0.103 A
HETATM   11 CL1  UNL     1      91.736  38.206  11.495  1.00  0.00    -0.078 Cl
HETATM   12  C14 UNL     1      90.016  36.082  11.354  1.00  0.00     0.097 A
HETATM   13  C15 UNL     1      88.797  35.438  11.641  1.00  0.00    -0.013 A
HETATM   14  C16 UNL     1      88.685  34.063  11.094  1.00  0.00     0.042 C
HETATM   15  C17 UNL     1      87.632  33.292  11.852  1.00  0.00     0.013 C
HETATM   16  C18 UNL     1      86.381  34.065  12.036  1.00  0.00     0.038 C
HETATM   17  C19 UNL     1      85.315  33.377  12.829  1.00  0.00     0.141 C
HETATM   18 CL2  UNL     1      86.090  32.193  13.929  1.00  0.00    -0.096 Cl
HETATM   19 CL3  UNL     1      84.258  32.489  11.710  1.00  0.00    -0.096 Cl
ENDROOT
BRANCH   1  20
HETATM   20  C4  UNL     1      82.854  34.492  15.472  1.00  0.00     0.283 C
HETATM   21  O2  UNL     1      81.688  34.695  15.029  1.00  0.00    -0.260 OA
BRANCH  20  22
HETATM   22  O1  UNL     1      83.147  34.995  16.701  1.00  0.00    -0.318 OA
BRANCH  22  23
HETATM   23  C3  UNL     1      82.512  36.053  17.352  1.00  0.00     0.178 C
BRANCH  23  24
HETATM   24  C2  UNL     1      82.832  36.187  18.810  1.00  0.00     0.022 C
HETATM   25  C1  UNL     1      83.907  37.268  18.983  1.00  0.00     0.007 C
ENDBRANCH  23  24
ENDBRANCH  22  23
ENDBRANCH  20  22
ENDBRANCH   1  20
BRANCH   9  26
HETATM   26  O3  UNL     1      89.488  39.253  13.023  1.00  0.00    -0.356 OA
ATOM     27  H3  UNL     1      90.377  39.589  13.038  1.00  0.00     0.218 HD
ENDBRANCH   9  26
BRANCH  12  28
HETATM   28  O4  UNL     1      90.990  35.435  10.606  1.00  0.00    -0.358 OA
ATOM     29  H4  UNL     1      90.744  34.744  10.002  1.00  0.00     0.217 HD
ENDBRANCH  12  28
TORSDOF 6
ENDMDL