MODEL 3
REMARK VINA RESULT: -9.439613589      1.713      2.643
REMARK  5 active torsions:
REMARK  status: ('A' for Active; 'I' for Inactive)
REMARK    1  A    between atoms: C2_2  and  O2_4
REMARK    2  A    between atoms: O2_4  and  C3_5
REMARK    3  A    between atoms: C6_8  and  O3_9
REMARK    4  A    between atoms: N1_13  and  N2_15
REMARK    5  A    between atoms: N2_15  and  C9_17
ROOT
HETATM    1  C3  UNL     1      89.161  37.869  11.941  1.00  0.00     0.133 C
HETATM    2  C4  UNL     1      88.152  38.121  13.016  1.00  0.00     0.035 C
HETATM    3  C5  UNL     1      87.833  39.613  13.176  1.00  0.00     0.042 C
HETATM    4  C6  UNL     1      89.135  40.280  13.466  1.00  0.00     0.074 C
HETATM    5  C7  UNL     1      89.010  41.677  13.983  1.00  0.00     0.097 C
HETATM    6  C8  UNL     1      90.423  42.099  14.381  1.00  0.00     0.028 C
HETATM    7  N1  UNL     1      90.596  42.673  15.479  1.00  0.00    -0.304 N
ATOM      8  H1  UNL     1      89.734  42.804  16.007  1.00  0.00     0.186 HD
HETATM    9  C15 UNL     1      91.478  41.789  13.431  1.00  0.00     0.023 C
HETATM   10  C16 UNL     1      91.243  40.949  12.444  1.00  0.00    -0.012 C
HETATM   11  C17 UNL     1      89.968  40.256  12.187  1.00  0.00     0.007 C
HETATM   12  C18 UNL     1      89.214  40.890  11.040  1.00  0.00     0.023 C
HETATM   13  C19 UNL     1      90.276  38.842  11.849  1.00  0.00     0.049 C
ENDROOT
BRANCH   7  14
HETATM   14  N2  UNL     1      91.682  43.151  16.105  1.00  0.00    -0.301 N
ATOM     15  H2  UNL     1      92.576  42.992  15.642  1.00  0.00     0.187 HD
BRANCH  14  16
HETATM   16  C9  UNL     1      91.730  43.866  17.362  1.00  0.00     0.051 A
HETATM   17  C10 UNL     1      92.632  43.433  18.299  1.00  0.00     0.056 A
HETATM   18  C11 UNL     1      92.736  44.056  19.504  1.00  0.00     0.059 A
HETATM   19 CL1  UNL     1      93.918  43.454  20.677  1.00  0.00    -0.082 Cl
HETATM   20  C12 UNL     1      91.940  45.128  19.807  1.00  0.00     0.077 A
HETATM   21 CL2  UNL     1      92.059  45.958  21.366  1.00  0.00    -0.081 Cl
HETATM   22  C13 UNL     1      91.020  45.586  18.878  1.00  0.00     0.059 A
HETATM   23 CL3  UNL     1      89.987  46.948  19.241  1.00  0.00    -0.082 Cl
HETATM   24  C14 UNL     1      90.927  44.935  17.645  1.00  0.00     0.056 A
ENDBRANCH  14  16
ENDBRANCH   7  14
BRANCH   4  25
HETATM   25  O3  UNL     1      89.819  39.530  14.409  1.00  0.00    -0.388 OA
ATOM     26  H3  UNL     1      90.726  39.812  14.423  1.00  0.00     0.210 HD
ENDBRANCH   4  25
BRANCH   1  27
HETATM   27  O2  UNL     1      89.781  36.609  12.259  1.00  0.00    -0.316 OA
BRANCH  27  28
HETATM   28  C2  UNL     1      89.721  35.557  11.365  1.00  0.00     0.255 C
HETATM   29  C1  UNL     1      88.565  34.632  11.281  1.00  0.00     0.126 C
HETATM   30  O1  UNL     1      90.733  35.417  10.597  1.00  0.00    -0.266 OA
ENDBRANCH  27  28
ENDBRANCH   1  27
TORSDOF 5
ENDMDL