MODEL 5
REMARK VINA RESULT: -7.321480156      1.049      1.504
REMARK  5 active torsions:
REMARK  status: ('A' for Active; 'I' for Inactive)
REMARK    1  A    between atoms: C5_5  and  C6_6
REMARK    2  A    between atoms: C6_6  and  C7_7
REMARK    3  A    between atoms: C12_17  and  N2_18
REMARK    4  A    between atoms: N3_21  and  C13_22
REMARK    5  A    between atoms: C13_22  and  C14_23
ROOT
HETATM    1  C1  UNL     1      86.404  32.416   9.504  1.00  0.00     0.046 C
HETATM    2  C2  UNL     1      86.933  32.647  10.918  1.00  0.00     0.125 C
HETATM    3  C3  UNL     1      87.073  31.281  11.541  1.00  0.00     0.046 C
HETATM    4  C4  UNL     1      85.942  33.541  11.660  1.00  0.00     0.081 C
HETATM    5  C5  UNL     1      86.538  34.033  12.907  1.00  0.00     0.095 C
HETATM    6  O1  UNL     1      87.676  33.227  13.166  1.00  0.00    -0.339 OA
HETATM    7  C8  UNL     1      88.613  33.632  12.223  1.00  0.00     0.361 C
HETATM    8  N1  UNL     1      88.212  33.320  10.862  1.00  0.00    -0.036 N
ATOM      9  H11 UNL     1      88.200  34.140  10.256  1.00  0.00     0.281 HD
ATOM     10  H12 UNL     1      88.917  32.786  10.355  1.00  0.00     0.281 HD
HETATM   11  C9  UNL     1      88.535  35.112  12.334  1.00  0.00     0.046 A
HETATM   12  C10 UNL     1      87.248  35.368  12.730  1.00  0.00    -0.006 A
HETATM   13  C11 UNL     1      86.911  36.681  12.888  1.00  0.00     0.059 A
HETATM   14  C12 UNL     1      87.863  37.698  12.648  1.00  0.00     0.106 A
HETATM   15  N3  UNL     1      89.115  37.463  12.262  1.00  0.00    -0.297 N
HETATM   16  C20 UNL     1      89.431  36.128  12.114  1.00  0.00     0.122 A
HETATM   17 CL3  UNL     1      91.106  35.713  11.697  1.00  0.00    -0.063 Cl
ENDROOT
BRANCH  15  18
HETATM   18  C13 UNL     1      90.160  38.417  12.047  1.00  0.00     0.113 C
BRANCH  18  19
HETATM   19  C14 UNL     1      89.841  39.830  12.000  1.00  0.00     0.002 A
HETATM   20  C15 UNL     1      89.218  40.444  10.945  1.00  0.00     0.014 A
HETATM   21  C16 UNL     1      88.817  41.785  10.954  1.00  0.00     0.001 A
HETATM   22  C17 UNL     1      89.048  42.554  12.063  1.00  0.00     0.002 A
HETATM   23  C18 UNL     1      89.665  41.982  13.125  1.00  0.00     0.024 A
HETATM   24  C19 UNL     1      90.060  40.647  13.106  1.00  0.00     0.045 A
HETATM   25 CL2  UNL     1      90.975  40.145  14.524  1.00  0.00    -0.083 Cl
ENDBRANCH  18  19
ENDBRANCH  15  18
BRANCH  14  26
HETATM   26  N2  UNL     1      87.462  38.883  12.817  1.00  0.00    -0.385 N
ATOM     27  H22 UNL     1      87.210  39.458  12.013  1.00  0.00     0.157 HD
ATOM     28  H21 UNL     1      87.409  39.205  13.783  1.00  0.00     0.157 HD
ENDBRANCH  14  26
BRANCH   5  29
HETATM   29  C6  UNL     1      85.761  34.092  14.147  1.00  0.00     0.058 C
BRANCH  29  30
HETATM   30  C7  UNL     1      85.063  32.935  14.703  1.00  0.00     0.118 C
HETATM   31 CL1  UNL     1      84.219  33.166  16.241  1.00  0.00    -0.130 Cl
ENDBRANCH  29  30
ENDBRANCH   5  29
TORSDOF 5
ENDMDL