MODEL 3
REMARK VINA RESULT: -8.041141457      5.187      8.397
REMARK  3 active torsions:
REMARK  status: ('A' for Active; 'I' for Inactive)
REMARK    1  A    between atoms: C1_2  and  C2_4
REMARK    2  A    between atoms: C3_5  and  N2_6
REMARK       I    between atoms: N2_6  and  C4_8
REMARK    3  A    between atoms: C4_8  and  C5_10
ROOT
HETATM    1  C2  UNL     1      89.076  36.029  11.941  1.00  0.00     0.070 A
HETATM    2  C3  UNL     1      87.772  35.822  12.242  1.00  0.00     0.093 A
HETATM    3  S2  UNL     1      87.209  37.392  12.735  1.00  0.00    -0.075 SA
HETATM    4  C9  UNL     1      88.638  38.243  12.528  1.00  0.00    -0.008 A
HETATM    5  C10 UNL     1      89.561  37.326  12.083  1.00  0.00    -0.023 A
HETATM    6  C11 UNL     1      91.031  37.323  11.696  1.00  0.00     0.067 C
HETATM    7  C12 UNL     1      91.823  38.601  11.854  1.00  0.00    -0.026 C
HETATM    8  C13 UNL     1      91.125  39.451  12.692  1.00  0.00    -0.030 C
HETATM    9  C14 UNL     1      90.891  40.560  13.551  1.00  0.00     0.027 C
HETATM   10  C15 UNL     1      89.389  40.281  13.939  1.00  0.00     0.009 C
HETATM   11  C16 UNL     1      88.604  39.718  12.835  1.00  0.00     0.047 C
ENDROOT
BRANCH   2  12
HETATM   12  N2  UNL     1      86.808  34.783  11.991  1.00  0.00    -0.316 N
HETATM   13  C4  UNL     1      86.539  33.687  12.784  1.00  0.00     0.266 C
HETATM   14  O2  UNL     1      87.225  33.485  13.862  1.00  0.00    -0.267 OA
ATOM     15  H2  UNL     1      86.264  34.866  11.133  1.00  0.00     0.169 HD
BRANCH  13  16
HETATM   16  C5  UNL     1      85.499  32.667  12.524  1.00  0.00     0.115 A
HETATM   17  S1  UNL     1      84.260  32.213  13.623  1.00  0.00    -0.068 SA
HETATM   18  C6  UNL     1      83.470  31.038  12.678  1.00  0.00     0.100 A
HETATM   19 CL1  UNL     1      82.047  30.061  13.093  1.00  0.00    -0.074 Cl
HETATM   20  C7  UNL     1      84.200  31.033  11.524  1.00  0.00     0.102 A
HETATM   21 CL2  UNL     1      83.729  29.924  10.201  1.00  0.00    -0.079 Cl
HETATM   22  C8  UNL     1      85.249  31.881  11.453  1.00  0.00     0.163 A
HETATM   23  F1  UNL     1      86.043  31.936  10.308  1.00  0.00    -0.203 F
ENDBRANCH  13  16
ENDBRANCH   2  12
BRANCH   1  24
HETATM   24  C1  UNL     1      89.930  34.800  11.760  1.00  0.00     0.268 C
HETATM   25  N1  UNL     1      90.433  33.937  12.726  1.00  0.00    -0.057 NA
HETATM   26  O1  UNL     1      90.255  34.499  10.540  1.00  0.00    -0.271 OA
ENDBRANCH   1  24
TORSDOF 3
ENDMDL