MODEL 1
REMARK VINA RESULT: -6.836339926      0.000      0.000
REMARK  4 active torsions:
REMARK  status: ('A' for Active; 'I' for Inactive)
REMARK    1  A    between atoms: N1_3  and  C3_5
REMARK    2  A    between atoms: C9_14  and  O1_15
REMARK    3  A    between atoms: C11_18  and  C12_19
REMARK    4  A    between atoms: N3_23  and  C14_24
ROOT
HETATM    1  C3  UNL     1      84.288  32.339  11.757  1.00  0.00     0.064 A
HETATM    2  C4  UNL     1      83.823  31.152  11.125  1.00  0.00     0.062 A
HETATM    3 BR1  UNL     1      81.991  30.649  11.250  1.00  0.00    -0.047 Br
HETATM    4  C5  UNL     1      84.653  30.394  10.368  1.00  0.00     0.076 A
HETATM    5 CL1  UNL     1      84.036  28.934   9.590  1.00  0.00    -0.081 Cl
HETATM    6  C6  UNL     1      85.948  30.743  10.189  1.00  0.00     0.068 A
HETATM    7 CL2  UNL     1      87.066  29.789   9.224  1.00  0.00    -0.082 Cl
HETATM    8  C7  UNL     1      86.420  31.887  10.780  1.00  0.00     0.005 A
HETATM    9  C8  UNL     1      87.722  32.254  10.547  1.00  0.00     0.051 A
HETATM   10  C9  UNL     1      88.235  33.410  11.057  1.00  0.00     0.081 A
HETATM   11  C10 UNL     1      87.424  34.202  11.801  1.00  0.00     0.050 A
HETATM   12  C11 UNL     1      87.606  35.459  12.336  1.00  0.00     0.041 A
HETATM   13  N2  UNL     1      86.470  35.820  12.863  1.00  0.00    -0.301 N
ATOM     14  H2  UNL     1      86.314  36.713  13.331  1.00  0.00     0.187 HD
HETATM   15  N3  UNL     1      85.494  34.840  12.712  1.00  0.00    -0.291 N
HETATM   16  C16 UNL     1      86.079  33.876  12.080  1.00  0.00     0.079 A
HETATM   17  C17 UNL     1      85.566  32.680  11.562  1.00  0.00     0.033 A
ENDROOT
BRANCH   1  18
HETATM   18  N1  UNL     1      83.339  32.812  12.656  1.00  0.00    -0.368 N
HETATM   19  C2  UNL     1      83.156  32.205  13.818  1.00  0.00     0.057 C
HETATM   20  C1  UNL     1      82.153  32.694  14.756  1.00  0.00     0.054 C
ATOM     21  H1  UNL     1      82.779  33.631  12.418  1.00  0.00     0.165 HD
ENDBRANCH   1  18
BRANCH  15  22
HETATM   22  C14 UNL     1      84.285  35.211  13.320  1.00  0.00     0.145 C
HETATM   23  C15 UNL     1      84.084  36.752  13.138  1.00  0.00     0.028 C
ENDBRANCH  15  22
BRANCH  10  24
HETATM   24  O1  UNL     1      89.547  33.774  10.826  1.00  0.00    -0.360 OA
ATOM     25  H1  UNL     1      90.176  33.827  11.535  1.00  0.00     0.217 HD
ENDBRANCH  10  24
BRANCH  12  26
HETATM   26  C12 UNL     1      88.902  36.190  12.268  1.00  0.00     0.055 C
HETATM   27  C13 UNL     1      88.867  37.455  13.076  1.00  0.00     0.011 C
ENDBRANCH  12  26
TORSDOF 4
ENDMDL