MODEL 5
REMARK VINA RESULT: -7.801711889      1.704      2.342
REMARK  7 active torsions:
REMARK  status: ('A' for Active; 'I' for Inactive)
REMARK    1  A    between atoms: C2_2  and  O1_3
REMARK    2  A    between atoms: O1_3  and  C3_4
REMARK    3  A    between atoms: C3_4  and  C4_6
REMARK    4  A    between atoms: C4_6  and  O3_7
REMARK    5  A    between atoms: C8_12  and  C9_13
REMARK    6  A    between atoms: C9_13  and  C10_14
REMARK    7  A    between atoms: C20_27  and  O4_29
ROOT
HETATM    1  C4  UNL     1      86.606  33.540  12.512  1.00  0.00     0.177 C
HETATM    2  C5  UNL     1      85.769  34.676  13.107  1.00  0.00     0.056 C
HETATM    3  C6  UNL     1      86.054  35.973  12.396  1.00  0.00     0.039 C
HETATM    4  C7  UNL     1      87.484  36.225  12.172  1.00  0.00    -0.066 C
HETATM    5  C8  UNL     1      88.235  37.331  12.358  1.00  0.00    -0.072 C
HETATM    6  C16 UNL     1      89.624  37.024  12.001  1.00  0.00     0.036 C
HETATM    7  C17 UNL     1      89.726  35.539  11.727  1.00  0.00     0.021 C
HETATM    8  C18 UNL     1      88.306  35.119  11.625  1.00  0.00     0.014 C
HETATM    9  C19 UNL     1      87.984  34.874  10.168  1.00  0.00     0.023 C
HETATM   10  C20 UNL     1      88.058  33.917  12.500  1.00  0.00     0.106 C
HETATM   11  C21 UNL     1      88.518  34.287  13.895  1.00  0.00     0.051 C
ENDROOT
BRANCH   5  12
HETATM   12  C9  UNL     1      87.715  38.613  12.864  1.00  0.00     0.076 C
BRANCH  12  13
HETATM   13  C10 UNL     1      88.722  39.648  13.126  1.00  0.00    -0.014 A
HETATM   14  C11 UNL     1      89.749  39.386  14.036  1.00  0.00     0.012 A
HETATM   15  C12 UNL     1      90.737  40.308  14.315  1.00  0.00     0.026 A
HETATM   16  C13 UNL     1      90.676  41.518  13.654  1.00  0.00     0.058 A
HETATM   17 CL1  UNL     1      91.923  42.698  13.996  1.00  0.00    -0.082 Cl
HETATM   18  C14 UNL     1      89.664  41.779  12.755  1.00  0.00     0.094 A
HETATM   19 CL2  UNL     1      89.612  43.322  11.932  1.00  0.00    -0.079 Cl
HETATM   20  C15 UNL     1      88.671  40.861  12.472  1.00  0.00     0.146 A
HETATM   21  F1  UNL     1      87.691  41.195  11.586  1.00  0.00    -0.204 F
ENDBRANCH  12  13
ENDBRANCH   5  12
BRANCH  10  22
HETATM   22  O4  UNL     1      88.806  32.813  12.096  1.00  0.00    -0.385 OA
ATOM     23  H4  UNL     1      89.531  33.113  11.559  1.00  0.00     0.210 HD
ENDBRANCH  10  22
BRANCH   1  24
HETATM   24  C3  UNL     1      86.338  32.267  13.190  1.00  0.00     0.296 C
HETATM   25  O2  UNL     1      85.994  32.253  14.396  1.00  0.00    -0.262 OA
BRANCH  24  26
HETATM   26  O1  UNL     1      86.442  31.025  12.570  1.00  0.00    -0.319 OA
BRANCH  26  27
HETATM   27  C2  UNL     1      85.997  29.811  13.143  1.00  0.00     0.174 C
HETATM   28  C1  UNL     1      86.697  28.597  12.640  1.00  0.00     0.034 C
ENDBRANCH  26  27
ENDBRANCH  24  26
ENDBRANCH   1  24
BRANCH   1  29
HETATM   29  O3  UNL     1      86.122  33.454  11.180  1.00  0.00    -0.377 OA
ATOM     30  H3  UNL     1      85.999  34.334  10.846  1.00  0.00     0.211 HD
ENDBRANCH   1  29
TORSDOF 7
ENDMDL