MODEL 2
REMARK VINA RESULT: -6.678841300      2.204      5.905
REMARK  15 active torsions:
REMARK  status: ('A' for Active; 'I' for Inactive)
REMARK    1  A    between atoms: C2_2  and  C3_3
REMARK    2  A    between atoms: C3_3  and  C4_4
REMARK    3  A    between atoms: C3_3  and  C5_7
REMARK    4  A    between atoms: C5_7  and  O3_8
REMARK    5  A    between atoms: C6_10  and  O4_11
REMARK    6  A    between atoms: C8_14  and  O5_15
REMARK    7  A    between atoms: C9_17  and  C10_18
REMARK    8  A    between atoms: C10_18  and  C11_19
REMARK    9  A    between atoms: C11_19  and  C12_20
REMARK   10  A    between atoms: C12_20  and  C13_21
REMARK   11  A    between atoms: C16_24  and  O6_25
REMARK   12  A    between atoms: O6_25  and  C17_26
REMARK   13  A    between atoms: C20_30  and  O8_31
REMARK   14  A    between atoms: C21_33  and  O9_34
REMARK   15  A    between atoms: C22_36  and  O10_37
ROOT
HETATM    1  C5  UNL     1     -11.815  75.837 119.550  1.00  0.00     0.123 C
HETATM    2  C6  UNL     1     -11.925  76.515 120.870  1.00  0.00     0.158 C
HETATM    3  C7  UNL     1     -11.060  77.790 120.766  1.00  0.00     0.067 C
HETATM    4  C8  UNL     1      -9.643  77.263 120.635  1.00  0.00     0.127 C
HETATM    5  C9  UNL     1      -9.427  76.418 119.454  1.00  0.00     0.047 C
HETATM    6  C16 UNL     1     -10.471  75.275 119.309  1.00  0.00     0.169 C
ENDROOT
BRANCH   6   7
HETATM    7  O6  UNL     1     -10.030  74.260 120.111  1.00  0.00    -0.350 OA
BRANCH   7   8
HETATM    8  C17 UNL     1      -9.723  73.102 119.412  1.00  0.00     0.292 C
HETATM    9  O7  UNL     1      -8.362  73.037 119.096  1.00  0.00    -0.351 OA
HETATM   10  C18 UNL     1      -8.180  72.204 118.005  1.00  0.00     0.152 C
HETATM   11  C19 UNL     1      -6.703  71.888 117.885  1.00  0.00     0.042 C
HETATM   12  C20 UNL     1      -9.036  70.979 118.025  1.00  0.00     0.178 C
HETATM   13  C21 UNL     1      -9.657  70.675 119.350  1.00  0.00     0.183 C
HETATM   14  C22 UNL     1     -10.057  71.868 120.161  1.00  0.00     0.204 C
BRANCH  12  15
HETATM   15  O8  UNL     1      -8.207  69.887 117.698  1.00  0.00    -0.390 OA
ATOM     16  H8  UNL     1      -7.626  69.744 118.435  1.00  0.00     0.210 HD
ENDBRANCH  12  15
BRANCH  13  17
HETATM   17  O9  UNL     1     -10.828  69.909 119.136  1.00  0.00    -0.390 OA
ATOM     18  H9  UNL     1     -11.584  70.445 119.341  1.00  0.00     0.210 HD
ENDBRANCH  13  17
BRANCH  14  19
HETATM   19  O10 UNL     1      -9.313  71.902 121.365  1.00  0.00    -0.388 OA
ATOM     20  H10 UNL     1      -9.914  72.159 122.054  1.00  0.00     0.210 HD
ENDBRANCH  14  19
ENDBRANCH   7   8
ENDBRANCH   6   7
BRANCH   1  21
HETATM   21  C3  UNL     1     -12.992  74.999 119.205  1.00  0.00     0.126 C
BRANCH  21  22
HETATM   22  C2  UNL     1     -12.876  74.437 117.795  1.00  0.00     0.014 C
HETATM   23  C1  UNL     1     -14.229  74.536 117.123  1.00  0.00     0.006 C
ENDBRANCH  21  22
BRANCH  21  24
HETATM   24  C4  UNL     1     -13.529  74.081 120.184  1.00  0.00     0.180 C
HETATM   25  O1  UNL     1     -13.153  72.913 120.323  1.00  0.00    -0.648 OA
HETATM   26  O2  UNL     1     -14.554  74.483 121.072  1.00  0.00    -0.648 OA
ENDBRANCH  21  24
ENDBRANCH   1  21
BRANCH   1  27
HETATM   27  O3  UNL     1     -11.924  76.926 118.588  1.00  0.00    -0.384 OA
ATOM     28  H3  UNL     1     -12.423  76.523 117.888  1.00  0.00     0.210 HD
ENDBRANCH   1  27
BRANCH   5  29
HETATM   29  C10 UNL     1      -9.098  77.020 118.148  1.00  0.00     0.010 C
BRANCH  29  30
HETATM   30  C11 UNL     1      -9.067  76.084 116.970  1.00  0.00     0.001 C
BRANCH  30  31
HETATM   31  C12 UNL     1      -9.136  76.897 115.666  1.00  0.00     0.004 C
BRANCH  31  32
HETATM   32  C13 UNL     1     -10.540  77.318 115.363  1.00  0.00    -0.023 C
HETATM   33  C14 UNL     1     -11.368  76.232 114.746  1.00  0.00     0.009 C
HETATM   34  C15 UNL     1     -10.603  78.526 114.462  1.00  0.00     0.009 C
ENDBRANCH  31  32
ENDBRANCH  30  31
ENDBRANCH  29  30
ENDBRANCH   5  29
BRANCH   2  35
HETATM   35  O4  UNL     1     -11.323  75.805 121.933  1.00  0.00    -0.392 OA
ATOM     36  H4  UNL     1     -11.332  76.269 122.763  1.00  0.00     0.210 HD
ENDBRANCH   2  35
BRANCH   4  37
HETATM   37  O5  UNL     1      -8.730  78.261 120.766  1.00  0.00    -0.395 OA
ATOM     38  H5  UNL     1      -8.352  78.497 119.927  1.00  0.00     0.210 HD
ENDBRANCH   4  37
TORSDOF 15
ENDMDL