MODEL 2
REMARK VINA RESULT: -7.019252932      1.629      2.357
REMARK  16 active torsions:
REMARK  status: ('A' for Active; 'I' for Inactive)
REMARK    1  A    between atoms: C2_2  and  C3_3
REMARK    2  A    between atoms: C3_3  and  C4_4
REMARK    3  A    between atoms: C4_4  and  C5_5
REMARK    4  A    between atoms: C5_5  and  C6_6
REMARK    5  A    between atoms: C6_6  and  O1_8
REMARK    6  A    between atoms: C6_6  and  C8_10
REMARK    7  A    between atoms: C8_10  and  O2_11
REMARK    8  A    between atoms: C8_10  and  C9_13
REMARK    9  A    between atoms: C9_13  and  C11_15
REMARK   10  A    between atoms: C9_13  and  C17_23
REMARK   11  A    between atoms: C14_18  and  O3_19
REMARK   12  A    between atoms: C19_26  and  O5_27
REMARK   13  A    between atoms: C20_29  and  O6_30
REMARK   14  A    between atoms: C21_32  and  O7_33
REMARK   15  A    between atoms: C21_32  and  C22_35
REMARK   16  A    between atoms: C22_35  and  O8_36
ROOT
HETATM    1  C9  UNL     1     -10.080  75.395 119.738  1.00  0.00     0.042 C
HETATM    2  C10 UNL     1      -8.749  75.829 120.308  1.00  0.00     0.024 C
ENDROOT
BRANCH   1   3
HETATM    3  C8  UNL     1     -11.276  75.932 120.346  1.00  0.00     0.165 C
BRANCH   3   4
HETATM    4  C6  UNL     1     -12.643  75.445 120.257  1.00  0.00     0.081 C
HETATM    5  C7  UNL     1     -13.182  75.014 118.939  1.00  0.00     0.049 C
BRANCH   4   6
HETATM    6  C5  UNL     1     -13.583  76.550 120.780  1.00  0.00     0.040 C
BRANCH   6   7
HETATM    7  C4  UNL     1     -14.176  77.386 119.714  1.00  0.00     0.003 C
BRANCH   7   8
HETATM    8  C3  UNL     1     -13.570  78.768 119.748  1.00  0.00    -0.000 C
BRANCH   8   9
HETATM    9  C2  UNL     1     -12.450  78.891 118.758  1.00  0.00    -0.005 C
HETATM   10  C1  UNL     1     -12.898  78.409 117.367  1.00  0.00     0.005 C
ENDBRANCH   8   9
ENDBRANCH   7   8
ENDBRANCH   6   7
ENDBRANCH   4   6
BRANCH   4  11
HETATM   11  O1  UNL     1     -12.938  74.382 121.143  1.00  0.00    -0.388 OA
ATOM     12  H1  UNL     1     -13.531  73.857 120.619  1.00  0.00     0.210 HD
ENDBRANCH   4  11
ENDBRANCH   3   4
BRANCH   3  13
HETATM   13  O2  UNL     1     -11.123  76.631 121.541  1.00  0.00    -0.392 OA
ATOM     14  H2  UNL     1     -11.643  77.424 121.504  1.00  0.00     0.210 HD
ENDBRANCH   3  13
ENDBRANCH   1   3
BRANCH   1  15
HETATM   15  C11 UNL     1     -10.016  76.189 118.349  1.00  0.00     0.023 C
HETATM   16  C12 UNL     1      -8.895  77.116 118.384  1.00  0.00    -0.022 C
HETATM   17  C13 UNL     1      -8.447  77.646 117.234  1.00  0.00     0.001 C
HETATM   18  C14 UNL     1      -9.046  77.324 115.939  1.00  0.00     0.140 C
HETATM   19  C15 UNL     1     -10.146  76.338 115.953  1.00  0.00     0.036 C
HETATM   20  C16 UNL     1     -10.093  75.367 117.164  1.00  0.00     0.012 C
BRANCH  18  21
HETATM   21  O3  UNL     1      -7.991  76.915 115.091  1.00  0.00    -0.392 OA
ATOM     22  H3  UNL     1      -8.311  76.170 114.594  1.00  0.00     0.210 HD
ENDBRANCH  18  21
ENDBRANCH   1  15
BRANCH   1  23
HETATM   23  C17 UNL     1     -10.010  73.984 119.296  1.00  0.00     0.272 C
HETATM   24  O4  UNL     1     -10.147  73.093 120.327  1.00  0.00    -0.350 OA
HETATM   25  C18 UNL     1      -9.573  71.893 119.921  1.00  0.00     0.188 C
HETATM   26  C19 UNL     1     -10.415  71.266 118.850  1.00  0.00     0.181 C
HETATM   27  C23 UNL     1      -8.352  72.446 119.166  1.00  0.00     0.195 C
HETATM   28  C20 UNL     1      -9.594  71.301 117.555  1.00  0.00     0.188 C
HETATM   29  C21 UNL     1      -8.195  71.403 118.111  1.00  0.00     0.136 C
HETATM   30  O9  UNL     1      -8.730  73.684 118.753  1.00  0.00    -0.349 OA
BRANCH  26  31
HETATM   31  O5  UNL     1     -10.630  69.927 119.172  1.00  0.00    -0.390 OA
ATOM     32  H5  UNL     1     -11.231  69.552 118.539  1.00  0.00     0.210 HD
ENDBRANCH  26  31
BRANCH  28  33
HETATM   33  O6  UNL     1      -9.746  70.086 116.877  1.00  0.00    -0.390 OA
ATOM     34  H6  UNL     1      -9.015  69.516 117.084  1.00  0.00     0.210 HD
ENDBRANCH  28  33
BRANCH  29  35
HETATM   35  O7  UNL     1      -7.880  70.199 118.745  1.00  0.00    -0.382 OA
ATOM     36  H7  UNL     1      -7.095  70.328 119.265  1.00  0.00     0.210 HD
ENDBRANCH  29  35
BRANCH  29  37
HETATM   37  C22 UNL     1      -7.137  71.660 117.097  1.00  0.00     0.207 C
BRANCH  37  38
HETATM   38  O8  UNL     1      -7.538  72.307 115.957  1.00  0.00    -0.398 OA
ATOM     39  H8  UNL     1      -6.895  72.365 115.260  1.00  0.00     0.209 HD
ENDBRANCH  37  38
ENDBRANCH  29  37
ENDBRANCH   1  23
TORSDOF 16
ENDMDL