MODEL 4
REMARK VINA RESULT: -6.826596231      1.159      1.336
REMARK  15 active torsions:
REMARK  status: ('A' for Active; 'I' for Inactive)
REMARK    1  A    between atoms: C2_2  and  O1_3
REMARK    2  A    between atoms: O1_3  and  C3_4
REMARK       I    between atoms: C3_4  and  N1_6
REMARK    3  A    between atoms: N1_6  and  C4_7
REMARK    4  A    between atoms: C4_7  and  C5_8
REMARK    5  A    between atoms: C4_7  and  C6_11
REMARK    6  A    between atoms: C5_8  and  O3_9
REMARK    7  A    between atoms: C7_12  and  C8_13
REMARK    8  A    between atoms: C8_13  and  O4_14
REMARK    9  A    between atoms: C8_13  and  N2_16
REMARK   10  A    between atoms: N2_16  and  C10_18
REMARK   11  A    between atoms: C10_18  and  C11_19
REMARK   12  A    between atoms: C10_18  and  C17_25
REMARK   13  A    between atoms: C20_29  and  O6_30
REMARK   14  A    between atoms: C21_32  and  O7_33
REMARK   15  A    between atoms: C22_35  and  O8_36
ROOT
HETATM    1  C10 UNL     1     -10.211  74.951 118.288  1.00  0.00     0.117 C
ENDROOT
BRANCH   1   2
HETATM    2  N2  UNL     1     -10.000  75.584 119.520  1.00  0.00    -0.382 N
HETATM    3  C9  UNL     1      -8.924  76.380 119.870  1.00  0.00     0.146 C
BRANCH   2   4
HETATM    4  C8  UNL     1     -11.312  75.932 120.137  1.00  0.00     0.239 C
BRANCH   4   5
HETATM    5  C7  UNL     1     -11.180  77.200 120.888  1.00  0.00     0.025 C
HETATM    6  C6  UNL     1     -12.065  77.802 121.817  1.00  0.00     0.014 C
BRANCH   6   7
HETATM    7  C4  UNL     1     -13.524  78.159 121.492  1.00  0.00     0.215 C
BRANCH   7   8
HETATM    8  N1  UNL     1     -13.982  79.063 122.422  1.00  0.00    -0.379 NA
HETATM    9  C3  UNL     1     -14.451  79.982 123.372  1.00  0.00     0.435 C
HETATM   10  O2  UNL     1     -14.906  79.655 124.537  1.00  0.00    -0.221 OA
BRANCH   9  11
HETATM   11  O1  UNL     1     -14.494  81.293 123.224  1.00  0.00    -0.293 OA
BRANCH  11  12
HETATM   12  C2  UNL     1     -14.629  82.538 123.122  1.00  0.00     0.177 C
HETATM   13  C1  UNL     1     -15.655  82.935 122.047  1.00  0.00     0.034 C
ENDBRANCH  11  12
ENDBRANCH   9  11
ENDBRANCH   7   8
BRANCH   7  14
HETATM   14  C5  UNL     1     -14.306  76.821 121.828  1.00  0.00     0.207 C
BRANCH  14  15
HETATM   15  O3  UNL     1     -14.556  76.795 123.184  1.00  0.00    -0.397 OA
ATOM     16  H3  UNL     1     -14.105  76.046 123.555  1.00  0.00     0.209 HD
ENDBRANCH  14  15
ENDBRANCH   7  14
ENDBRANCH   6   7
ENDBRANCH   4   5
BRANCH   4  17
HETATM   17  O4  UNL     1     -11.478  74.869 121.057  1.00  0.00    -0.374 OA
ATOM     18  H4  UNL     1     -12.183  74.307 120.755  1.00  0.00     0.212 HD
ENDBRANCH   4  17
ENDBRANCH   2   4
ENDBRANCH   1   2
BRANCH   1  19
HETATM   19  C11 UNL     1      -9.279  73.784 118.138  1.00  0.00     0.011 C
HETATM   20  C12 UNL     1      -9.586  72.848 117.028  1.00  0.00     0.007 C
HETATM   21  C13 UNL     1      -8.309  72.151 116.632  1.00  0.00     0.000 C
HETATM   22  C14 UNL     1      -7.825  71.331 117.774  1.00  0.00     0.000 C
HETATM   23  C15 UNL     1      -8.469  71.621 119.069  1.00  0.00     0.000 C
HETATM   24  C16 UNL     1      -8.752  73.097 119.328  1.00  0.00     0.007 C
ENDBRANCH   1  19
BRANCH   1  25
HETATM   25  C17 UNL     1     -10.105  75.898 117.115  1.00  0.00     0.176 C
HETATM   26  O5  UNL     1      -8.908  75.977 116.473  1.00  0.00    -0.374 OA
HETATM   27  C18 UNL     1      -8.836  76.994 115.549  1.00  0.00     0.149 C
HETATM   28  C19 UNL     1      -7.563  77.773 115.812  1.00  0.00     0.042 C
HETATM   29  C20 UNL     1      -9.942  77.982 115.525  1.00  0.00     0.178 C
HETATM   30  C21 UNL     1     -11.320  77.368 115.585  1.00  0.00     0.180 C
HETATM   31  C22 UNL     1     -11.249  75.929 116.183  1.00  0.00     0.180 C
BRANCH  29  32
HETATM   32  O6  UNL     1      -9.845  78.681 114.323  1.00  0.00    -0.390 OA
ATOM     33  H6  UNL     1     -10.694  78.631 113.898  1.00  0.00     0.210 HD
ENDBRANCH  29  32
BRANCH  30  34
HETATM   34  O7  UNL     1     -12.085  78.108 116.478  1.00  0.00    -0.390 OA
ATOM     35  H7  UNL     1     -11.573  78.243 117.266  1.00  0.00     0.210 HD
ENDBRANCH  30  34
BRANCH  31  36
HETATM   36  O8  UNL     1     -11.115  75.148 115.030  1.00  0.00    -0.390 OA
ATOM     37  H8  UNL     1     -10.271  74.728 114.912  1.00  0.00     0.210 HD
ENDBRANCH  31  36
ENDBRANCH   1  25
TORSDOF 15
ENDMDL