MODEL 2
REMARK VINA RESULT: -6.489290048      2.158      6.344
REMARK  16 active torsions:
REMARK  status: ('A' for Active; 'I' for Inactive)
REMARK    1  A    between atoms: C2_2  and  C3_3
REMARK    2  A    between atoms: C3_3  and  C4_4
REMARK    3  A    between atoms: C4_4  and  C5_5
REMARK    4  A    between atoms: C5_5  and  C6_6
REMARK    5  A    between atoms: C6_6  and  O1_7
REMARK    6  A    between atoms: C6_6  and  C13_21
REMARK    7  A    between atoms: O1_7  and  C7_8
REMARK    8  A    between atoms: C9_10  and  O2_11
REMARK    9  A    between atoms: C10_13  and  O3_14
REMARK   10  A    between atoms: C11_16  and  C12_17
REMARK   11  A    between atoms: C12_17  and  O4_18
REMARK   12  A    between atoms: C13_21  and  O6_22
REMARK   13  A    between atoms: C13_21  and  C14_24
REMARK   14  A    between atoms: C21_31  and  O7_32
REMARK   15  A    between atoms: C22_34  and  O8_35
REMARK   16  A    between atoms: C23_37  and  O9_38
ROOT
HETATM    1  C6  UNL     1     -11.055  74.362 117.040  1.00  0.00     0.154 C
ENDROOT
BRANCH   1   2
HETATM    2  C5  UNL     1     -10.867  75.361 115.918  1.00  0.00     0.035 C
BRANCH   2   3
HETATM    3  C4  UNL     1      -9.583  76.093 115.894  1.00  0.00     0.002 C
BRANCH   3   4
HETATM    4  C3  UNL     1      -9.910  77.603 115.813  1.00  0.00    -0.000 C
BRANCH   4   5
HETATM    5  C2  UNL     1     -10.900  77.726 114.655  1.00  0.00    -0.005 C
HETATM    6  C1  UNL     1     -11.603  79.045 114.652  1.00  0.00     0.005 C
ENDBRANCH   4   5
ENDBRANCH   3   4
ENDBRANCH   2   3
ENDBRANCH   1   2
BRANCH   1   7
HETATM    7  O1  UNL     1     -11.091  73.101 116.444  1.00  0.00    -0.353 OA
BRANCH   7   8
HETATM    8  C7  UNL     1      -9.965  72.314 116.699  1.00  0.00     0.263 C
HETATM    9  C8  UNL     1     -10.350  70.877 116.924  1.00  0.00     0.095 C
HETATM   10  C9  UNL     1     -10.158  70.547 118.381  1.00  0.00     0.154 C
HETATM   11  C10 UNL     1      -8.683  70.720 118.770  1.00  0.00     0.178 C
HETATM   12  C11 UNL     1      -8.157  72.009 118.129  1.00  0.00     0.179 C
HETATM   13  O5  UNL     1      -9.207  72.801 117.720  1.00  0.00    -0.351 OA
BRANCH  10  14
HETATM   14  O2  UNL     1     -10.895  71.365 119.217  1.00  0.00    -0.393 OA
ATOM     15  H2  UNL     1     -10.798  71.136 120.134  1.00  0.00     0.210 HD
ENDBRANCH  10  14
BRANCH  11  16
HETATM   16  O3  UNL     1      -8.683  70.931 120.147  1.00  0.00    -0.390 OA
ATOM     17  H3  UNL     1      -7.934  71.491 120.317  1.00  0.00     0.210 HD
ENDBRANCH  11  16
BRANCH  12  18
HETATM   18  C12 UNL     1      -7.143  71.699 117.054  1.00  0.00     0.198 C
BRANCH  18  19
HETATM   19  O4  UNL     1      -5.920  71.333 117.573  1.00  0.00    -0.398 OA
ATOM     20  H4  UNL     1      -5.423  72.076 117.894  1.00  0.00     0.209 HD
ENDBRANCH  18  19
ENDBRANCH  12  18
ENDBRANCH   7   8
ENDBRANCH   1   7
BRANCH   1  21
HETATM   21  C13 UNL     1     -12.215  74.609 117.913  1.00  0.00     0.158 C
BRANCH  21  22
HETATM   22  O6  UNL     1     -12.754  73.337 118.238  1.00  0.00    -0.392 OA
ATOM     23  H6  UNL     1     -13.381  73.126 117.555  1.00  0.00     0.210 HD
ENDBRANCH  21  22
BRANCH  21  24
HETATM   24  C14 UNL     1     -12.061  75.467 119.118  1.00  0.00     0.077 C
HETATM   25  C15 UNL     1     -12.258  76.929 118.720  1.00  0.00    -0.065 C
HETATM   26  C16 UNL     1     -11.614  77.866 119.347  1.00  0.00    -0.046 C
HETATM   27  C20 UNL     1     -13.167  77.468 117.655  1.00  0.00     0.039 C
HETATM   28  C17 UNL     1     -11.986  79.196 118.759  1.00  0.00     0.041 C
HETATM   29  C21 UNL     1     -10.653  77.691 120.483  1.00  0.00     0.178 C
HETATM   30  C18 UNL     1     -13.284  78.943 118.083  1.00  0.00    -0.011 C
HETATM   31  C19 UNL     1     -14.490  79.165 118.952  1.00  0.00     0.010 C
HETATM   32  C22 UNL     1     -10.577  76.281 120.942  1.00  0.00     0.180 C
HETATM   33  C23 UNL     1     -10.652  75.423 119.656  1.00  0.00     0.160 C
BRANCH  29  34
HETATM   34  O7  UNL     1     -10.985  78.534 121.546  1.00  0.00    -0.389 OA
ATOM     35  H7  UNL     1     -10.578  79.386 121.439  1.00  0.00     0.210 HD
ENDBRANCH  29  34
BRANCH  32  36
HETATM   36  O8  UNL     1     -11.595  75.868 121.766  1.00  0.00    -0.390 OA
ATOM     37  H8  UNL     1     -11.916  74.987 121.613  1.00  0.00     0.210 HD
ENDBRANCH  32  36
BRANCH  33  38
HETATM   38  O9  UNL     1     -10.169  74.201 120.037  1.00  0.00    -0.392 OA
ATOM     39  H9  UNL     1      -9.235  74.058 119.949  1.00  0.00     0.210 HD
ENDBRANCH  33  38
ENDBRANCH  21  24
ENDBRANCH   1  21
TORSDOF 16
ENDMDL