MODEL 3
REMARK VINA RESULT: -6.966773365      1.625      2.986
REMARK  16 active torsions:
REMARK  status: ('A' for Active; 'I' for Inactive)
REMARK    1  A    between atoms: C2_2  and  C3_3
REMARK    2  A    between atoms: C3_3  and  O1_4
REMARK    3  A    between atoms: C7_9  and  O2_10
REMARK    4  A    between atoms: C9_13  and  O3_14
REMARK    5  A    between atoms: C12_18  and  O4_19
REMARK    6  A    between atoms: C12_18  and  C13_21
REMARK    7  A    between atoms: C13_21  and  O5_22
REMARK    8  A    between atoms: O5_22  and  N1_23
REMARK    9  A    between atoms: C14_25  and  O6_26
REMARK   10  A    between atoms: C14_25  and  C15_28
REMARK   11  A    between atoms: C15_28  and  C16_29
REMARK   12  A    between atoms: C16_29  and  C17_30
REMARK   13  A    between atoms: C16_29  and  C20_38
REMARK       I    between atoms: C17_30  and  N2_32
REMARK   14  A    between atoms: N2_32  and  C18_34
REMARK   15  A    between atoms: C18_34  and  C19_35
REMARK   16  A    between atoms: C19_35  and  O8_36
ROOT
HETATM    1  C3  UNL     1     -11.646  75.431 118.748  1.00  0.00     0.109 C
HETATM    2  C4  UNL     1     -13.142  75.785 118.744  1.00  0.00     0.057 C
HETATM    3  C5  UNL     1     -13.263  76.975 119.703  1.00  0.00    -0.008 C
HETATM    4  C6  UNL     1     -13.683  78.169 118.877  1.00  0.00     0.018 C
HETATM    5  C7  UNL     1     -14.363  76.635 120.660  1.00  0.00     0.129 C
HETATM    6  C8  UNL     1     -14.258  77.217 122.012  1.00  0.00     0.064 C
HETATM    7  C9  UNL     1     -13.170  78.247 122.170  1.00  0.00     0.121 C
HETATM    8  C10 UNL     1     -11.851  77.727 121.651  1.00  0.00     0.040 C
HETATM    9  C11 UNL     1     -11.918  77.123 120.311  1.00  0.00     0.039 C
HETATM   10  C12 UNL     1     -11.349  75.725 120.225  1.00  0.00     0.120 C
ENDROOT
BRANCH  10  11
HETATM   11  O4  UNL     1     -12.042  74.829 121.009  1.00  0.00    -0.384 OA
ATOM     12  H4  UNL     1     -11.840  74.996 121.922  1.00  0.00     0.210 HD
ENDBRANCH  10  11
BRANCH  10  13
HETATM   13  C13 UNL     1      -9.899  75.629 120.545  1.00  0.00     0.243 C
BRANCH  13  14
HETATM   14  O5  UNL     1      -9.685  74.396 121.214  1.00  0.00    -0.276 OA
BRANCH  14  15
HETATM   15  N1  UNL     1      -9.045  73.330 120.685  1.00  0.00    -0.248 N
HETATM   16  C14 UNL     1      -9.606  72.198 120.429  1.00  0.00     0.136 C
ATOM     17  H1  UNL     1      -8.051  73.427 120.474  1.00  0.00     0.196 HD
BRANCH  16  18
HETATM   18  O6  UNL     1     -10.957  72.083 120.722  1.00  0.00    -0.348 OA
ATOM     19  H6  UNL     1     -11.231  71.313 121.206  1.00  0.00     0.219 HD
ENDBRANCH  16  18
BRANCH  16  20
HETATM   20  C15 UNL     1      -8.890  71.049 119.853  1.00  0.00     0.100 C
BRANCH  20  21
HETATM   21  C16 UNL     1      -9.221  70.709 118.443  1.00  0.00     0.088 C
BRANCH  21  22
HETATM   22  C17 UNL     1      -9.403  69.282 118.152  1.00  0.00     0.222 C
HETATM   23  O7  UNL     1     -10.006  68.595 119.014  1.00  0.00    -0.273 OA
HETATM   24  N2  UNL     1      -8.936  68.686 116.971  1.00  0.00    -0.359 N
ATOM     25  H2  UNL     1      -8.447  69.290 116.311  1.00  0.00     0.162 HD
BRANCH  24  26
HETATM   26  C18 UNL     1      -9.083  67.296 116.600  1.00  0.00     0.148 C
BRANCH  26  27
HETATM   27  C19 UNL     1      -8.593  67.088 115.194  1.00  0.00     0.183 C
BRANCH  27  28
HETATM   28  O8  UNL     1      -7.379  66.363 115.192  1.00  0.00    -0.399 OA
ATOM     29  H8  UNL     1      -7.324  65.804 114.426  1.00  0.00     0.209 HD
ENDBRANCH  27  28
ENDBRANCH  26  27
ENDBRANCH  24  26
ENDBRANCH  21  22
BRANCH  21  30
HETATM   30  C20 UNL     1      -8.251  71.335 117.457  1.00  0.00    -0.009 C
HETATM   31  C21 UNL     1      -6.952  71.709 118.097  1.00  0.00     0.010 C
HETATM   32  C22 UNL     1      -8.930  72.495 116.770  1.00  0.00     0.010 C
ENDBRANCH  21  30
ENDBRANCH  20  21
ENDBRANCH  16  20
ENDBRANCH  14  15
ENDBRANCH  13  14
ENDBRANCH  10  13
BRANCH   1  33
HETATM   33  C2  UNL     1     -10.921  76.359 117.853  1.00  0.00     0.003 C
HETATM   34  C1  UNL     1     -10.335  75.991 116.723  1.00  0.00     0.010 C
ENDBRANCH   1  33
BRANCH   1  35
HETATM   35  O1  UNL     1     -11.420  74.103 118.486  1.00  0.00    -0.383 OA
ATOM     36  H1  UNL     1     -11.438  73.881 117.563  1.00  0.00     0.211 HD
ENDBRANCH   1  35
BRANCH   5  37
HETATM   37  O2  UNL     1     -15.575  77.018 120.040  1.00  0.00    -0.395 OA
ATOM     38  H2  UNL     1     -15.960  76.227 119.681  1.00  0.00     0.210 HD
ENDBRANCH   5  37
BRANCH   7  39
HETATM   39  O3  UNL     1     -13.009  78.471 123.538  1.00  0.00    -0.395 OA
ATOM     40  H3  UNL     1     -12.829  77.630 123.942  1.00  0.00     0.210 HD
ENDBRANCH   7  39
TORSDOF 16
ENDMDL