MODEL 4
REMARK VINA RESULT: -6.752694581      1.327      1.827
REMARK  15 active torsions:
REMARK  status: ('A' for Active; 'I' for Inactive)
REMARK    1  A    between atoms: C3_4  and  O2_5
REMARK    2  A    between atoms: O2_5  and  C4_6
REMARK    3  A    between atoms: C5_7  and  O3_8
REMARK    4  A    between atoms: C6_10  and  O4_11
REMARK    5  A    between atoms: C7_13  and  O5_14
REMARK    6  A    between atoms: C8_16  and  C9_17
REMARK    7  A    between atoms: C9_17  and  C10_18
REMARK    8  A    between atoms: C11_21  and  O8_22
REMARK    9  A    between atoms: C12_24  and  O9_25
REMARK   10  A    between atoms: C13_27  and  N1_29
REMARK   11  A    between atoms: N1_29  and  C15_31
REMARK   12  A    between atoms: C15_31  and  C16_32
REMARK   13  A    between atoms: C16_32  and  C17_33
REMARK   14  A    between atoms: C17_33  and  C18_34
REMARK   15  A    between atoms: C18_34  and  C19_35
ROOT
HETATM    1  C1  UNL     1      -9.055  76.833 119.478  1.00  0.00     0.042 C
HETATM    2  C2  UNL     1      -9.797  77.104 120.736  1.00  0.00     0.151 C
HETATM    3  O1  UNL     1     -10.115  75.942 121.464  1.00  0.00    -0.351 OA
HETATM    4  C3  UNL     1     -11.086  75.299 120.648  1.00  0.00     0.292 C
HETATM    5  C12 UNL     1     -11.911  76.387 120.074  1.00  0.00     0.203 C
HETATM    6  C13 UNL     1     -11.190  77.701 120.494  1.00  0.00     0.082 C
HETATM    7  C14 UNL     1     -11.211  78.603 119.327  1.00  0.00     0.044 C
ENDROOT
BRANCH   4   8
HETATM    8  O2  UNL     1     -10.358  74.517 119.791  1.00  0.00    -0.348 OA
BRANCH   8   9
HETATM    9  C4  UNL     1     -10.913  73.222 119.600  1.00  0.00     0.185 C
HETATM   10  C5  UNL     1     -10.141  72.240 120.429  1.00  0.00     0.180 C
HETATM   11  C6  UNL     1      -9.341  71.233 119.659  1.00  0.00     0.178 C
HETATM   12  C7  UNL     1     -10.288  70.624 118.655  1.00  0.00     0.156 C
HETATM   13  C8  UNL     1     -10.572  71.691 117.621  1.00  0.00     0.058 C
HETATM   14  C11 UNL     1     -11.028  72.970 118.158  1.00  0.00     0.157 C
BRANCH  10  15
HETATM   15  O3  UNL     1      -9.284  72.843 121.344  1.00  0.00    -0.390 OA
ATOM     16  H3  UNL     1      -8.488  73.181 120.950  1.00  0.00     0.210 HD
ENDBRANCH  10  15
BRANCH  11  17
HETATM   17  O4  UNL     1      -8.961  70.240 120.589  1.00  0.00    -0.390 OA
ATOM     18  H4  UNL     1      -8.987  70.655 121.443  1.00  0.00     0.210 HD
ENDBRANCH  11  17
BRANCH  12  19
HETATM   19  O5  UNL     1      -9.623  69.591 118.015  1.00  0.00    -0.392 OA
ATOM     20  H5  UNL     1      -9.110  69.126 118.666  1.00  0.00     0.210 HD
ENDBRANCH  12  19
BRANCH  13  21
HETATM   21  C9  UNL     1      -9.391  71.703 116.697  1.00  0.00     0.123 C
BRANCH  21  22
HETATM   22  C10 UNL     1      -9.689  71.628 115.260  1.00  0.00     0.173 C
HETATM   23  O6  UNL     1      -9.115  70.835 114.500  1.00  0.00    -0.648 OA
HETATM   24  O7  UNL     1     -10.663  72.484 114.706  1.00  0.00    -0.648 OA
ENDBRANCH  21  22
ENDBRANCH  13  21
BRANCH  14  25
HETATM   25  O8  UNL     1     -10.502  74.005 117.389  1.00  0.00    -0.392 OA
ATOM     26  H8  UNL     1     -10.991  74.815 117.482  1.00  0.00     0.210 HD
ENDBRANCH  14  25
ENDBRANCH   8   9
ENDBRANCH   4   8
BRANCH   5  27
HETATM   27  O9  UNL     1     -12.199  76.344 118.746  1.00  0.00    -0.388 OA
ATOM     28  H9  UNL     1     -12.218  75.497 118.318  1.00  0.00     0.210 HD
ENDBRANCH   5  27
BRANCH   6  29
HETATM   29  N1  UNL     1     -11.668  78.127 121.728  1.00  0.00    -0.388 N
ATOM     30  H1  UNL     1     -11.047  78.717 122.281  1.00  0.00     0.159 HD
BRANCH  29  31
HETATM   31  C15 UNL     1     -12.896  77.831 122.280  1.00  0.00     0.056 C
BRANCH  31  32
HETATM   32  C16 UNL     1     -13.915  78.942 122.381  1.00  0.00     0.044 C
BRANCH  32  33
HETATM   33  C17 UNL     1     -14.628  79.133 121.038  1.00  0.00     0.006 C
BRANCH  33  34
HETATM   34  C18 UNL     1     -15.399  80.425 121.118  1.00  0.00     0.008 C
BRANCH  34  35
HETATM   35  C19 UNL     1     -15.891  80.776 119.737  1.00  0.00    -0.051 C
HETATM   36  C20 UNL     1     -17.249  80.194 119.417  1.00  0.00     0.014 C
HETATM   37  C21 UNL     1     -14.870  80.139 118.777  1.00  0.00     0.014 C
HETATM   38  C22 UNL     1     -15.885  82.250 119.517  1.00  0.00     0.014 C
ENDBRANCH  34  35
ENDBRANCH  33  34
ENDBRANCH  32  33
ENDBRANCH  31  32
ENDBRANCH  29  31
ENDBRANCH   6  29
TORSDOF 15
ENDMDL