MODEL 3
REMARK VINA RESULT: -6.929706079      3.928      8.264
REMARK  16 active torsions:
REMARK  status: ('A' for Active; 'I' for Inactive)
REMARK    1  A    between atoms: C5_5  and  C6_6
REMARK    2  A    between atoms: C6_6  and  C8_8
REMARK    3  A    between atoms: C9_9  and  C10_10
REMARK    4  A    between atoms: C10_10  and  O1_11
REMARK    5  A    between atoms: C10_10  and  C11_13
REMARK    6  A    between atoms: C11_13  and  C13_15
REMARK    7  A    between atoms: C13_15  and  O2_16
REMARK    8  A    between atoms: C13_15  and  C14_18
REMARK    9  A    between atoms: C14_18  and  O3_20
REMARK   10  A    between atoms: C14_18  and  S1_22
REMARK   11  A    between atoms: S1_22  and  C16_23
REMARK   12  A    between atoms: C17_25  and  C18_26
REMARK   13  A    between atoms: C18_26  and  O5_27
REMARK   14  A    between atoms: C19_29  and  O6_30
REMARK   15  A    between atoms: C20_32  and  O7_33
REMARK   16  A    between atoms: C21_35  and  O8_36
ROOT
HETATM    1  C14 UNL     1     -11.988  75.351 120.356  1.00  0.00     0.131 C
HETATM    2  C15 UNL     1     -13.417  75.122 120.722  1.00  0.00     0.061 C
ENDROOT
BRANCH   1   3
HETATM    3  C13 UNL     1     -11.694  76.469 119.453  1.00  0.00     0.169 C
BRANCH   3   4
HETATM    4  C11 UNL     1     -11.299  77.780 120.018  1.00  0.00     0.046 C
HETATM    5  C12 UNL     1     -12.014  78.182 121.266  1.00  0.00     0.015 C
BRANCH   4   6
HETATM    6  C10 UNL     1      -9.795  77.981 120.123  1.00  0.00     0.147 C
BRANCH   6   7
HETATM    7  C9  UNL     1      -9.088  77.224 119.032  1.00  0.00     0.001 C
HETATM    8  C8  UNL     1      -9.278  77.492 117.756  1.00  0.00    -0.021 C
BRANCH   8   9
HETATM    9  C6  UNL     1      -8.620  76.791 116.637  1.00  0.00     0.033 C
HETATM   10  C7  UNL     1      -7.761  77.740 115.831  1.00  0.00     0.017 C
BRANCH   9  11
HETATM   11  C5  UNL     1      -9.599  76.042 115.798  1.00  0.00     0.129 C
HETATM   12  C4  UNL     1     -10.284  76.961 114.809  1.00  0.00     0.035 C
HETATM   13  C3  UNL     1     -11.488  76.133 114.403  1.00  0.00     0.034 C
HETATM   14  C2  UNL     1     -11.574  75.150 115.551  1.00  0.00     0.118 C
HETATM   15  C1  UNL     1     -11.285  73.744 115.137  1.00  0.00     0.039 C
HETATM   16  O9  UNL     1     -10.699  75.583 116.519  1.00  0.00    -0.380 OA
ENDBRANCH   9  11
ENDBRANCH   8   9
ENDBRANCH   6   7
BRANCH   6  17
HETATM   17  O1  UNL     1      -9.298  77.438 121.311  1.00  0.00    -0.391 OA
ATOM     18  H1  UNL     1      -9.471  76.507 121.241  1.00  0.00     0.210 HD
ENDBRANCH   6  17
ENDBRANCH   4   6
ENDBRANCH   3   4
BRANCH   3  19
HETATM   19  O2  UNL     1     -12.837  76.731 118.656  1.00  0.00    -0.391 OA
ATOM     20  H2  UNL     1     -12.722  76.210 117.870  1.00  0.00     0.210 HD
ENDBRANCH   3  19
ENDBRANCH   1   3
BRANCH   1  21
HETATM   21  O3  UNL     1     -11.297  75.489 121.572  1.00  0.00    -0.377 OA
ATOM     22  H3  UNL     1     -10.548  74.907 121.606  1.00  0.00     0.211 HD
ENDBRANCH   1  21
BRANCH   1  23
HETATM   23  S1  UNL     1     -11.405  73.798 119.627  1.00  0.00    -0.095 SA
BRANCH  23  24
HETATM   24  C16 UNL     1      -9.624  73.655 119.535  1.00  0.00     0.217 C
HETATM   25  O4  UNL     1      -9.252  73.074 118.345  1.00  0.00    -0.363 OA
HETATM   26  C17 UNL     1      -9.450  71.732 118.204  1.00  0.00     0.178 C
HETATM   27  C19 UNL     1     -10.120  71.019 119.312  1.00  0.00     0.180 C
HETATM   28  C20 UNL     1      -9.640  71.435 120.684  1.00  0.00     0.181 C
HETATM   29  C21 UNL     1      -9.043  72.826 120.659  1.00  0.00     0.188 C
BRANCH  26  30
HETATM   30  C18 UNL     1      -8.102  71.124 117.816  1.00  0.00     0.198 C
BRANCH  30  31
HETATM   31  O5  UNL     1      -8.297  70.018 117.008  1.00  0.00    -0.398 OA
ATOM     32  H5  UNL     1      -7.460  69.631 116.779  1.00  0.00     0.209 HD
ENDBRANCH  30  31
ENDBRANCH  26  30
BRANCH  27  33
HETATM   33  O6  UNL     1      -9.917  69.651 119.193  1.00  0.00    -0.390 OA
ATOM     34  H6  UNL     1      -9.809  69.259 120.051  1.00  0.00     0.210 HD
ENDBRANCH  27  33
BRANCH  28  35
HETATM   35  O7  UNL     1     -10.746  71.422 121.531  1.00  0.00    -0.390 OA
ATOM     36  H7  UNL     1     -10.653  70.670 122.104  1.00  0.00     0.210 HD
ENDBRANCH  28  35
BRANCH  29  37
HETATM   37  O8  UNL     1      -9.145  73.465 121.888  1.00  0.00    -0.389 OA
ATOM     38  H8  UNL     1      -8.367  73.344 122.420  1.00  0.00     0.210 HD
ENDBRANCH  29  37
ENDBRANCH  23  24
ENDBRANCH   1  23
TORSDOF 16
ENDMDL