MODEL 5
REMARK VINA RESULT: -6.349311676      2.596      6.210
REMARK  16 active torsions:
REMARK  status: ('A' for Active; 'I' for Inactive)
REMARK    1  A    between atoms: C4_4  and  C5_5
REMARK    2  A    between atoms: C5_5  and  C6_6
REMARK    3  A    between atoms: C6_6  and  C7_7
REMARK    4  A    between atoms: C9_9  and  C10_10
REMARK    5  A    between atoms: C10_10  and  O1_11
REMARK    6  A    between atoms: O1_11  and  C11_12
REMARK    7  A    between atoms: C12_13  and  O2_14
REMARK    8  A    between atoms: C13_16  and  C14_17
REMARK    9  A    between atoms: C13_16  and  C15_20
REMARK   10  A    between atoms: C14_17  and  O3_18
REMARK   11  A    between atoms: C15_20  and  O4_21
REMARK   12  A    between atoms: C16_23  and  O5_24
REMARK   13  A    between atoms: C22_31  and  C23_32
REMARK   14  A    between atoms: C22_31  and  O7_35
REMARK   15  A    between atoms: C23_32  and  O6_33
REMARK   16  A    between atoms: O7_35  and  N1_36
ROOT
HETATM    1  C11 UNL     1     -10.259  75.705 117.680  1.00  0.00     0.159 C
HETATM    2  C12 UNL     1     -10.793  76.783 118.680  1.00  0.00     0.162 C
HETATM    3  C13 UNL     1     -10.086  76.732 119.967  1.00  0.00     0.057 C
HETATM    4  C16 UNL     1      -8.872  75.886 120.054  1.00  0.00     0.138 C
HETATM    5  C17 UNL     1      -8.924  74.536 119.404  1.00  0.00     0.025 C
HETATM    6  C18 UNL     1      -8.977  73.456 120.409  1.00  0.00     0.008 C
HETATM    7  C19 UNL     1      -9.426  72.122 119.932  1.00  0.00     0.008 C
HETATM    8  C20 UNL     1     -10.268  72.076 118.729  1.00  0.00     0.021 C
HETATM    9  C21 UNL     1     -11.750  72.169 119.031  1.00  0.00     0.013 C
HETATM   10  C22 UNL     1      -9.946  73.160 117.687  1.00  0.00     0.119 C
HETATM   11  C24 UNL     1     -10.073  74.445 118.413  1.00  0.00     0.063 C
ENDROOT
BRANCH   1  12
HETATM   12  O1  UNL     1      -9.116  76.222 117.131  1.00  0.00    -0.379 OA
BRANCH  12  13
HETATM   13  C10 UNL     1      -9.056  76.433 115.791  1.00  0.00     0.196 C
BRANCH  13  14
HETATM   14  C9  UNL     1      -9.716  77.682 115.390  1.00  0.00     0.001 C
HETATM   15  C7  UNL     1     -10.551  77.797 114.408  1.00  0.00    -0.085 C
HETATM   16  C8  UNL     1     -11.139  79.177 114.136  1.00  0.00     0.043 C
BRANCH  15  17
HETATM   17  C6  UNL     1     -10.980  76.704 113.534  1.00  0.00     0.037 C
BRANCH  17  18
HETATM   18  C5  UNL     1     -12.518  76.668 113.541  1.00  0.00     0.031 C
BRANCH  18  19
HETATM   19  C4  UNL     1     -12.905  75.593 114.486  1.00  0.00    -0.024 C
HETATM   20  C2  UNL     1     -13.569  75.867 115.601  1.00  0.00    -0.091 C
HETATM   21  C1  UNL     1     -13.944  74.755 116.533  1.00  0.00     0.042 C
HETATM   22  C3  UNL     1     -13.948  77.259 115.945  1.00  0.00     0.042 C
ENDBRANCH  18  19
ENDBRANCH  17  18
ENDBRANCH  15  17
ENDBRANCH  13  14
ENDBRANCH  12  13
ENDBRANCH   1  12
BRANCH   2  23
HETATM   23  O2  UNL     1     -12.153  76.515 118.871  1.00  0.00    -0.392 OA
ATOM     24  H2  UNL     1     -12.536  77.299 119.246  1.00  0.00     0.210 HD
ENDBRANCH   2  23
BRANCH   3  25
HETATM   25  C14 UNL     1     -11.027  76.473 121.150  1.00  0.00     0.181 C
BRANCH  25  26
HETATM   26  O3  UNL     1     -11.581  77.634 121.653  1.00  0.00    -0.400 OA
ATOM     27  H3  UNL     1     -11.780  77.572 122.580  1.00  0.00     0.209 HD
ENDBRANCH  25  26
ENDBRANCH   3  25
BRANCH   3  28
HETATM   28  C15 UNL     1      -9.581  78.177 120.232  1.00  0.00     0.181 C
BRANCH  28  29
HETATM   29  O4  UNL     1      -8.918  78.277 121.429  1.00  0.00    -0.400 OA
ATOM     30  H4  UNL     1      -9.141  79.075 121.893  1.00  0.00     0.209 HD
ENDBRANCH  28  29
ENDBRANCH   3  28
BRANCH  10  31
HETATM   31  C23 UNL     1      -8.618  72.806 117.139  1.00  0.00     0.205 C
BRANCH  31  32
HETATM   32  O6  UNL     1      -8.635  71.426 116.814  1.00  0.00    -0.398 OA
ATOM     33  H6  UNL     1      -7.746  71.165 116.604  1.00  0.00     0.209 HD
ENDBRANCH  31  32
ENDBRANCH  10  31
BRANCH  10  34
HETATM   34  O7  UNL     1     -10.923  73.140 116.702  1.00  0.00    -0.273 OA
BRANCH  34  35
HETATM   35  N1  UNL     1     -10.483  73.040 115.454  1.00  0.00    -0.310 N
ATOM     36  H12 UNL     1      -9.872  72.275 115.169  1.00  0.00     0.184 HD
ATOM     37  H11 UNL     1     -10.794  73.771 114.814  1.00  0.00     0.184 HD
ENDBRANCH  34  35
ENDBRANCH  10  34
BRANCH   4  38
HETATM   38  O5  UNL     1      -7.767  76.651 119.610  1.00  0.00    -0.394 OA
ATOM     39  H5  UNL     1      -7.699  76.555 118.668  1.00  0.00     0.210 HD
ENDBRANCH   4  38
TORSDOF 16
ENDMDL