MODEL 5
REMARK VINA RESULT: -6.799565802      2.305      4.988
REMARK  16 active torsions:
REMARK  status: ('A' for Active; 'I' for Inactive)
REMARK    1  A    between atoms: C3_3  and  C4_4
REMARK    2  A    between atoms: C4_4  and  C6_6
REMARK    3  A    between atoms: C4_4  and  O3_16
REMARK    4  A    between atoms: C6_6  and  C7_7
REMARK    5  A    between atoms: C7_7  and  O1_8
REMARK    6  A    between atoms: C7_7  and  C8_10
REMARK    7  A    between atoms: C8_10  and  C9_11
REMARK    8  A    between atoms: C9_11  and  O2_14
REMARK    9  A    between atoms: O3_16  and  O4_17
REMARK   10  A    between atoms: O4_17  and  C12_18
REMARK   11  A    between atoms: C12_18  and  C13_19
REMARK   12  A    between atoms: C15_21  and  O5_22
REMARK   13  A    between atoms: C17_25  and  O6_26
REMARK   14  A    between atoms: C18_28  and  O7_29
REMARK   15  A    between atoms: C20_32  and  O8_33
REMARK   16  A    between atoms: C23_37  and  O9_38
ROOT
HETATM    1  C13 UNL     1     -10.955  72.474 116.332  1.00  0.00     0.044 C
HETATM    2  C14 UNL     1     -11.710  73.022 117.515  1.00  0.00     0.041 C
HETATM    3  C15 UNL     1     -11.455  72.183 118.760  1.00  0.00     0.126 C
HETATM    4  C16 UNL     1      -9.974  72.443 119.071  1.00  0.00     0.059 C
HETATM    5  C17 UNL     1      -9.739  71.870 120.445  1.00  0.00     0.154 C
HETATM    6  C18 UNL     1      -9.941  70.381 120.489  1.00  0.00     0.149 C
HETATM    7  C19 UNL     1      -8.970  69.753 119.529  1.00  0.00     0.067 C
HETATM    8  C20 UNL     1      -9.203  70.235 118.148  1.00  0.00     0.132 C
HETATM    9  C21 UNL     1      -9.180  71.763 118.009  1.00  0.00     0.017 C
HETATM   10  C22 UNL     1      -7.712  72.149 118.252  1.00  0.00     0.021 C
HETATM   11  C23 UNL     1      -9.565  72.082 116.612  1.00  0.00     0.135 C
ENDROOT
BRANCH   1  12
HETATM   12  C12 UNL     1     -11.038  73.537 115.201  1.00  0.00     0.217 C
BRANCH  12  13
HETATM   13  O4  UNL     1     -10.896  74.725 115.796  1.00  0.00    -0.239 OA
BRANCH  13  14
HETATM   14  O3  UNL     1     -10.108  75.568 115.777  1.00  0.00    -0.226 OA
BRANCH  14  15
HETATM   15  C4  UNL     1      -9.841  76.642 116.557  1.00  0.00     0.112 C
HETATM   16  C5  UNL     1      -8.622  77.430 116.015  1.00  0.00     0.054 C
BRANCH  15  17
HETATM   17  C3  UNL     1     -10.937  77.566 116.773  1.00  0.00     0.009 C
HETATM   18  C2  UNL     1     -11.735  78.263 116.020  1.00  0.00    -0.032 C
HETATM   19  C1  UNL     1     -11.769  78.332 114.546  1.00  0.00     0.036 C
ENDBRANCH  15  17
BRANCH  15  20
HETATM   20  C6  UNL     1      -9.284  76.025 117.850  1.00  0.00     0.076 C
BRANCH  20  21
HETATM   21  C7  UNL     1      -9.259  76.776 119.093  1.00  0.00     0.124 C
BRANCH  21  22
HETATM   22  O1  UNL     1      -7.855  76.908 119.474  1.00  0.00    -0.395 OA
ATOM     23  H1  UNL     1      -7.780  77.723 119.957  1.00  0.00     0.210 HD
ENDBRANCH  21  22
BRANCH  21  24
HETATM   24  C8  UNL     1      -9.866  76.132 120.297  1.00  0.00     0.069 C
BRANCH  24  25
HETATM   25  C9  UNL     1     -11.226  76.713 120.660  1.00  0.00     0.053 C
HETATM   26  C10 UNL     1     -12.364  76.164 119.849  1.00  0.00     0.045 C
HETATM   27  C11 UNL     1     -11.134  78.224 120.488  1.00  0.00     0.045 C
BRANCH  25  28
HETATM   28  O2  UNL     1     -11.472  76.468 122.013  1.00  0.00    -0.391 OA
ATOM     29  H2  UNL     1     -12.376  76.194 122.114  1.00  0.00     0.210 HD
ENDBRANCH  25  28
ENDBRANCH  24  25
ENDBRANCH  21  24
ENDBRANCH  20  21
ENDBRANCH  15  20
ENDBRANCH  14  15
ENDBRANCH  13  14
ENDBRANCH  12  13
ENDBRANCH   1  12
BRANCH  11  30
HETATM   30  O9  UNL     1      -8.738  73.152 116.192  1.00  0.00    -0.394 OA
ATOM     31  H9  UNL     1      -7.845  72.826 116.178  1.00  0.00     0.210 HD
ENDBRANCH  11  30
BRANCH   3  32
HETATM   32  O5  UNL     1     -12.260  72.660 119.771  1.00  0.00    -0.395 OA
ATOM     33  H5  UNL     1     -11.768  72.624 120.582  1.00  0.00     0.210 HD
ENDBRANCH   3  32
BRANCH   8  34
HETATM   34  O8  UNL     1      -8.170  69.784 117.294  1.00  0.00    -0.395 OA
ATOM     35  H8  UNL     1      -8.229  70.218 116.452  1.00  0.00     0.210 HD
ENDBRANCH   8  34
BRANCH   5  36
HETATM   36  O6  UNL     1      -8.509  72.191 120.976  1.00  0.00    -0.393 OA
ATOM     37  H6  UNL     1      -7.955  71.436 121.138  1.00  0.00     0.210 HD
ENDBRANCH   5  36
BRANCH   6  38
HETATM   38  O7  UNL     1      -9.682  69.977 121.808  1.00  0.00    -0.393 OA
ATOM     39  H7  UNL     1     -10.261  70.481 122.368  1.00  0.00     0.210 HD
ENDBRANCH   6  38
TORSDOF 16
ENDMDL