MODEL 1
REMARK VINA RESULT: -7.608138099      0.000      0.000
REMARK  14 active torsions:
REMARK  status: ('A' for Active; 'I' for Inactive)
REMARK    1  A    between atoms: C1_2  and  C2_4
REMARK    2  A    between atoms: C3_6  and  O4_7
REMARK    3  A    between atoms: O4_7  and  C4_8
REMARK    4  A    between atoms: C6_10  and  O5_11
REMARK    5  A    between atoms: C7_13  and  O6_14
REMARK    6  A    between atoms: C8_16  and  C9_17
REMARK    7  A    between atoms: C9_17  and  O7_18
REMARK    8  A    between atoms: C10_21  and  C11_22
REMARK    9  A    between atoms: C11_22  and  C12_23
REMARK   10  A    between atoms: C12_23  and  C13_24
REMARK   11  A    between atoms: C13_24  and  C14_25
REMARK   12  A    between atoms: C14_25  and  C15_26
REMARK   13  A    between atoms: C21_32  and  O9_33
REMARK   14  A    between atoms: C22_35  and  O10_36
ROOT
HETATM    1  C2  UNL     1      -9.865  77.304 117.323  1.00  0.00     0.256 C
HETATM    2  O3  UNL     1     -10.774  76.343 117.518  1.00  0.00    -0.342 OA
HETATM    3  C3  UNL     1     -10.910  75.805 118.779  1.00  0.00     0.270 C
HETATM    4  C10 UNL     1     -11.270  76.939 119.684  1.00  0.00     0.072 C
HETATM    5  C21 UNL     1     -10.182  77.994 119.705  1.00  0.00     0.158 C
HETATM    6  C22 UNL     1      -9.262  77.895 118.546  1.00  0.00     0.187 C
ENDROOT
BRANCH   3   7
HETATM    7  O4  UNL     1      -9.780  75.167 119.204  1.00  0.00    -0.331 OA
BRANCH   7   8
HETATM    8  C4  UNL     1      -9.754  73.813 119.181  1.00  0.00     0.266 C
HETATM    9  C5  UNL     1      -8.938  73.098 120.194  1.00  0.00     0.095 C
HETATM   10  C6  UNL     1      -9.443  71.642 120.179  1.00  0.00     0.154 C
HETATM   11  C7  UNL     1      -9.384  71.094 118.797  1.00  0.00     0.178 C
HETATM   12  C8  UNL     1      -9.598  72.052 117.691  1.00  0.00     0.179 C
HETATM   13  O8  UNL     1      -9.310  73.357 117.929  1.00  0.00    -0.351 OA
BRANCH  10  14
HETATM   14  O5  UNL     1     -10.772  71.605 120.615  1.00  0.00    -0.393 OA
ATOM     15  H5  UNL     1     -11.219  70.875 120.204  1.00  0.00     0.210 HD
ENDBRANCH  10  14
BRANCH  11  16
HETATM   16  O6  UNL     1      -8.096  70.532 118.630  1.00  0.00    -0.390 OA
ATOM     17  H6  UNL     1      -7.495  71.054 119.149  1.00  0.00     0.210 HD
ENDBRANCH  11  16
BRANCH  12  18
HETATM   18  C9  UNL     1      -8.849  71.610 116.431  1.00  0.00     0.198 C
BRANCH  18  19
HETATM   19  O7  UNL     1      -7.862  72.501 116.070  1.00  0.00    -0.398 OA
ATOM     20  H7  UNL     1      -7.175  72.563 116.723  1.00  0.00     0.209 HD
ENDBRANCH  18  19
ENDBRANCH  12  18
ENDBRANCH   7   8
ENDBRANCH   3   7
BRANCH   4  21
HETATM   21  C11 UNL     1     -11.586  76.484 121.071  1.00  0.00     0.012 C
BRANCH  21  22
HETATM   22  C12 UNL     1     -12.978  76.871 121.499  1.00  0.00     0.001 C
BRANCH  22  23
HETATM   23  C13 UNL     1     -12.838  78.197 122.252  1.00  0.00     0.000 C
BRANCH  23  24
HETATM   24  C14 UNL     1     -14.233  78.558 122.739  1.00  0.00     0.004 C
BRANCH  24  25
HETATM   25  C15 UNL     1     -14.508  80.026 122.489  1.00  0.00    -0.014 C
HETATM   26  C16 UNL     1     -15.292  80.243 121.235  1.00  0.00     0.004 C
HETATM   27  C17 UNL     1     -16.074  81.536 121.247  1.00  0.00     0.000 C
HETATM   28  C18 UNL     1     -15.376  82.503 122.168  1.00  0.00     0.000 C
HETATM   29  C19 UNL     1     -15.568  82.007 123.591  1.00  0.00     0.000 C
HETATM   30  C20 UNL     1     -15.223  80.556 123.715  1.00  0.00     0.004 C
ENDBRANCH  24  25
ENDBRANCH  23  24
ENDBRANCH  22  23
ENDBRANCH  21  22
ENDBRANCH   4  21
BRANCH   1  31
HETATM   31  C1  UNL     1      -8.698  76.780 116.493  1.00  0.00     0.206 C
HETATM   32  O1  UNL     1      -8.720  75.598 116.094  1.00  0.00    -0.646 OA
HETATM   33  O2  UNL     1      -7.630  77.586 116.180  1.00  0.00    -0.646 OA
ENDBRANCH   1  31
BRANCH   5  34
HETATM   34  O9  UNL     1      -9.423  77.734 120.867  1.00  0.00    -0.392 OA
ATOM     35  H9  UNL     1      -8.668  77.238 120.574  1.00  0.00     0.210 HD
ENDBRANCH   5  34
BRANCH   6  36
HETATM   36  O10 UNL     1      -8.022  77.300 118.837  1.00  0.00    -0.390 OA
ATOM     37  H10 UNL     1      -7.664  77.636 119.650  1.00  0.00     0.210 HD
ENDBRANCH   6  36
TORSDOF 14
ENDMDL