MODEL 2
REMARK VINA RESULT: -7.213814295      0.234      1.076
REMARK  8 active torsions:
REMARK  status: ('A' for Active; 'I' for Inactive)
REMARK    1  A    between atoms: C3_5  and  N2_6
REMARK    2  A    between atoms: C4_11  and  N4_12
REMARK    3  A    between atoms: N4_12  and  C5_14
REMARK    4  A    between atoms: C5_14  and  C6_15
REMARK    5  A    between atoms: C6_15  and  C7_16
REMARK    6  A    between atoms: C7_16  and  C8_17
REMARK    7  A    between atoms: C8_17  and  C9_18
REMARK    8  A    between atoms: C9_18  and  N5_19
ROOT
HETATM    1  C1  UNL     1      36.567  39.692  65.546  1.00  0.00     0.069 C
HETATM    2  C2  UNL     1      36.784  39.262  66.924  1.00  0.00     0.032 A
HETATM    3  N1  UNL     1      36.013  39.710  67.923  1.00  0.00    -0.196 N
ATOM      4  H1  UNL     1      35.257  40.365  67.721  1.00  0.00     0.184 HD
HETATM    5  C3  UNL     1      36.226  39.301  69.211  1.00  0.00     0.677 A
HETATM    6  N3  UNL     1      37.212  38.438  69.522  1.00  0.00    -0.177 N
ATOM      7  H3  UNL     1      37.354  38.145  70.488  1.00  0.00     0.186 HD
HETATM    8  C4  UNL     1      37.995  37.972  68.558  1.00  0.00     0.124 A
HETATM    9  C15 UNL     1      37.784  38.387  67.237  1.00  0.00     0.005 A
HETATM   10  C16 UNL     1      38.664  37.858  66.191  1.00  0.00     0.054 C
ENDROOT
BRANCH   8  11
HETATM   11  N4  UNL     1      38.949  37.143  68.824  1.00  0.00    -0.375 N
ATOM     12  H4  UNL     1      39.858  37.275  68.381  1.00  0.00     0.161 HD
BRANCH  11  13
HETATM   13  C5  UNL     1      38.767  36.041  69.725  1.00  0.00     0.121 C
BRANCH  13  14
HETATM   14  C6  UNL     1      38.583  34.734  68.949  1.00  0.00     0.020 C
BRANCH  14  15
HETATM   15  C7  UNL     1      37.115  34.520  68.826  1.00  0.00     0.003 C
BRANCH  15  16
HETATM   16  C8  UNL     1      36.698  33.099  69.099  1.00  0.00     0.030 C
BRANCH  16  17
HETATM   17  C9  UNL     1      35.588  32.714  68.192  1.00  0.00     0.272 C
BRANCH  17  18
HETATM   18  N5  UNL     1      34.503  32.028  68.851  1.00  0.00     0.088 N
HETATM   19  C10 UNL     1      33.210  32.271  68.262  1.00  0.00     0.272 C
HETATM   20  C11 UNL     1      32.243  31.266  68.795  1.00  0.00     0.030 C
HETATM   21  C12 UNL     1      32.065  31.507  70.276  1.00  0.00     0.003 C
HETATM   22  C13 UNL     1      33.097  32.465  70.771  1.00  0.00     0.030 C
HETATM   23  C14 UNL     1      34.479  32.210  70.274  1.00  0.00     0.272 C
ENDBRANCH  17  18
ENDBRANCH  16  17
ENDBRANCH  15  16
ENDBRANCH  14  15
ENDBRANCH  13  14
ENDBRANCH  11  13
ENDBRANCH   8  11
BRANCH   5  24
HETATM   24  N2  UNL     1      35.448  39.767  70.137  1.00  0.00    -0.234 N
ATOM     25  H22 UNL     1      35.163  40.747  70.125  1.00  0.00     0.174 HD
ATOM     26  H21 UNL     1      35.136  39.130  70.870  1.00  0.00     0.174 HD
ENDBRANCH   5  24
TORSDOF 8
ENDMDL