MODEL 3
REMARK VINA RESULT: -6.542284627      1.067      1.081
REMARK  6 active torsions:
REMARK  status: ('A' for Active; 'I' for Inactive)
REMARK    1  A    between atoms: N1_1  and  C1_5
REMARK    2  A    between atoms: C1_5  and  C2_6
REMARK    3  A    between atoms: C2_6  and  C3_7
REMARK    4  A    between atoms: C10_17  and  C11_18
REMARK    5  A    between atoms: C11_18  and  C12_19
REMARK    6  A    between atoms: C12_19  and  C13_20
ROOT
HETATM    1  C3  UNL     1      35.765  33.447  71.393  1.00  0.00     0.002 C
HETATM    2  C4  UNL     1      34.429  32.746  71.452  1.00  0.00     0.036 C
HETATM    3  C5  UNL     1      34.198  31.777  70.311  1.00  0.00     0.033 C
HETATM    4  C6  UNL     1      33.713  32.356  69.030  1.00  0.00     0.031 C
HETATM    5  C7  UNL     1      32.636  31.273  69.000  1.00  0.00     0.005 C
HETATM    6  C8  UNL     1      32.883  31.078  70.485  1.00  0.00     0.031 C
HETATM    7  N2  UNL     1      35.349  30.860  70.195  1.00  0.00    -0.351 N
ATOM      8  H2  UNL     1      35.228  29.874  69.960  1.00  0.00     0.163 HD
HETATM    9  C9  UNL     1      36.638  31.424  70.429  1.00  0.00     0.222 C
HETATM   10  O1  UNL     1      37.573  30.627  70.667  1.00  0.00    -0.273 OA
HETATM   11  C10 UNL     1      36.699  32.880  70.359  1.00  0.00     0.082 C
ENDROOT
BRANCH  11  12
HETATM   12  C11 UNL     1      38.017  33.511  70.445  1.00  0.00     0.015 C
BRANCH  12  13
HETATM   13  C12 UNL     1      38.461  34.306  69.255  1.00  0.00     0.005 C
BRANCH  13  14
HETATM   14  C13 UNL     1      37.872  35.701  69.232  1.00  0.00    -0.011 C
HETATM   15  C14 UNL     1      38.590  36.450  68.105  1.00  0.00     0.032 C
HETATM   16  C15 UNL     1      37.953  37.820  68.037  1.00  0.00     0.232 C
HETATM   17  N3  UNL     1      38.304  38.567  69.225  1.00  0.00    -0.075 N
HETATM   18  C16 UNL     1      38.875  37.762  70.262  1.00  0.00     0.232 C
ATOM     19  H32 UNL     1      38.921  39.345  68.993  1.00  0.00     0.277 HD
ATOM     20  H31 UNL     1      37.499  39.086  69.576  1.00  0.00     0.277 HD
HETATM   21  C17 UNL     1      38.135  36.465  70.495  1.00  0.00     0.032 C
ENDBRANCH  13  14
ENDBRANCH  12  13
ENDBRANCH  11  12
BRANCH   1  22
HETATM   22  C2  UNL     1      36.319  33.459  72.788  1.00  0.00     0.032 C
BRANCH  22  23
HETATM   23  C1  UNL     1      36.112  34.845  73.390  1.00  0.00     0.230 C
BRANCH  23  24
HETATM   24  N1  UNL     1      35.041  34.727  74.386  1.00  0.00    -0.079 N
ATOM     25  H13 UNL     1      35.123  35.406  75.144  1.00  0.00     0.274 HD
ATOM     26  H12 UNL     1      34.133  35.031  74.035  1.00  0.00     0.274 HD
ATOM     27  H11 UNL     1      35.040  33.761  74.714  1.00  0.00     0.274 HD
ENDBRANCH  23  24
ENDBRANCH  22  23
ENDBRANCH   1  22
TORSDOF 6
ENDMDL