MODEL 5
REMARK VINA RESULT: -6.904553277      1.890      2.044
REMARK  8 active torsions:
REMARK  status: ('A' for Active; 'I' for Inactive)
REMARK    1  A    between atoms: C1_2  and  N2_4
REMARK    2  A    between atoms: N2_4  and  N3_6
REMARK    3  A    between atoms: C2_8  and  C3_9
REMARK    4  A    between atoms: C3_9  and  C4_10
REMARK    5  A    between atoms: C4_10  and  C5_11
REMARK    6  A    between atoms: C8_14  and  C9_15
REMARK    7  A    between atoms: C9_15  and  C10_16
REMARK    8  A    between atoms: C10_16  and  O1_17
ROOT
HETATM    1  C5  UNL     1      36.186  33.112  70.960  1.00  0.00    -0.010 C
HETATM    2  C6  UNL     1      35.749  31.924  71.731  1.00  0.00     0.005 C
HETATM    3  C7  UNL     1      35.032  30.864  71.002  1.00  0.00     0.005 C
HETATM    4  C8  UNL     1      34.131  31.254  69.901  1.00  0.00    -0.008 C
HETATM    5  C11 UNL     1      34.545  32.457  69.149  1.00  0.00    -0.006 C
HETATM    6  C12 UNL     1      35.228  32.120  67.805  1.00  0.00     0.006 C
HETATM    7  C13 UNL     1      36.546  32.146  68.599  1.00  0.00     0.006 C
HETATM    8  C14 UNL     1      35.850  33.085  69.512  1.00  0.00    -0.006 C
ENDROOT
BRANCH   1   9
HETATM    9  C4  UNL     1      37.635  33.485  71.225  1.00  0.00     0.010 C
BRANCH   9  10
HETATM   10  C3  UNL     1      37.954  34.827  70.613  1.00  0.00     0.046 C
BRANCH  10  11
HETATM   11  C2  UNL     1      39.164  34.745  69.750  1.00  0.00     0.080 C
HETATM   12  N3  UNL     1      39.197  35.217  68.536  1.00  0.00    -0.314 N
ATOM     13  H3  UNL     1      40.053  35.136  67.988  1.00  0.00     0.185 HD
BRANCH  12  14
HETATM   14  N2  UNL     1      38.078  35.831  67.977  1.00  0.00    -0.279 N
ATOM     15  H2  UNL     1      37.161  35.389  68.052  1.00  0.00     0.189 HD
BRANCH  14  16
HETATM   16  C1  UNL     1      38.215  37.063  67.309  1.00  0.00     0.199 C
HETATM   17  N1  UNL     1      38.413  37.114  65.918  1.00  0.00    -0.068 NA
HETATM   18  S1  UNL     1      38.141  38.445  68.156  1.00  0.00    -0.043 SA
ENDBRANCH  14  16
ENDBRANCH  12  14
ENDBRANCH  10  11
ENDBRANCH   9  10
ENDBRANCH   1   9
BRANCH   4  19
HETATM   19  C9  UNL     1      32.679  31.320  70.281  1.00  0.00     0.031 C
BRANCH  19  20
HETATM   20  C10 UNL     1      31.701  31.376  69.172  1.00  0.00     0.164 C
BRANCH  20  21
HETATM   21  O1  UNL     1      31.887  30.510  68.129  1.00  0.00    -0.401 OA
ATOM     22  H1  UNL     1      31.128  30.302  67.596  1.00  0.00     0.209 HD
ENDBRANCH  20  21
ENDBRANCH  19  20
ENDBRANCH   4  19
TORSDOF 8
ENDMDL