MODEL 2
REMARK VINA RESULT: -6.305889851      1.108      1.667
REMARK  6 active torsions:
REMARK  status: ('A' for Active; 'I' for Inactive)
REMARK    1  A    between atoms: C2_2  and  N1_3
REMARK    2  A    between atoms: N1_3  and  C3_6
REMARK    3  A    between atoms: C3_6  and  C4_7
REMARK    4  A    between atoms: C3_6  and  C11_20
REMARK       I    between atoms: C4_7  and  N2_9
REMARK    5  A    between atoms: N2_9  and  C5_11
REMARK    6  A    between atoms: C5_11  and  C6_12
ROOT
HETATM    1  C4  UNL     1      37.921  34.201  69.654  1.00  0.00     0.248 C
HETATM    2  O1  UNL     1      38.284  33.607  70.706  1.00  0.00    -0.271 OA
HETATM    3  N2  UNL     1      36.920  33.628  68.840  1.00  0.00    -0.359 N
ATOM      4  H2  UNL     1      36.614  34.101  67.990  1.00  0.00     0.162 HD
ENDROOT
BRANCH   1   5
HETATM    5  C3  UNL     1      38.578  35.493  69.334  1.00  0.00     0.281 C
BRANCH   5   6
HETATM    6  N1  UNL     1      37.675  36.395  68.646  1.00  0.00    -0.062 N
ATOM      7  H12 UNL     1      37.296  37.097  69.282  1.00  0.00     0.278 HD
ATOM      8  H11 UNL     1      36.807  35.926  68.389  1.00  0.00     0.278 HD
BRANCH   6   9
HETATM    9  C2  UNL     1      38.307  37.014  67.489  1.00  0.00     0.229 C
HETATM   10  C1  UNL     1      38.265  38.523  67.770  1.00  0.00     0.034 C
ENDBRANCH   6   9
ENDBRANCH   5   6
BRANCH   5  11
HETATM   11  C11 UNL     1      38.846  36.148  70.706  1.00  0.00     0.025 C
HETATM   12  C12 UNL     1      40.158  36.832  70.621  1.00  0.00     0.007 C
HETATM   13  C13 UNL     1      40.453  37.864  71.670  1.00  0.00     0.000 C
HETATM   14  C14 UNL     1      39.236  38.548  72.208  1.00  0.00     0.000 C
HETATM   15  C15 UNL     1      38.118  37.605  72.512  1.00  0.00     0.000 C
HETATM   16  C16 UNL     1      37.690  37.000  71.159  1.00  0.00     0.007 C
ENDBRANCH   5  11
ENDBRANCH   1   5
BRANCH   3  17
HETATM   17  C5  UNL     1      36.334  32.367  69.224  1.00  0.00     0.127 C
BRANCH  17  18
HETATM   18  C6  UNL     1      34.840  32.502  69.240  1.00  0.00     0.006 C
HETATM   19  C7  UNL     1      34.334  32.113  67.866  1.00  0.00     0.034 C
HETATM   20  C8  UNL     1      32.937  31.587  67.916  1.00  0.00     0.232 C
HETATM   21  N3  UNL     1      32.904  30.375  68.689  1.00  0.00    -0.075 N
HETATM   22  C9  UNL     1      33.996  30.253  69.615  1.00  0.00     0.232 C
ATOM     23  H32 UNL     1      32.010  30.280  69.171  1.00  0.00     0.277 HD
ATOM     24  H31 UNL     1      32.856  29.560  68.079  1.00  0.00     0.277 HD
HETATM   25  C10 UNL     1      34.282  31.579  70.299  1.00  0.00     0.034 C
ENDBRANCH  17  18
ENDBRANCH   3  17
TORSDOF 6
ENDMDL