MODEL 5
REMARK VINA RESULT: -6.218234348      1.185      1.733
REMARK  9 active torsions:
REMARK  status: ('A' for Active; 'I' for Inactive)
REMARK    1  A    between atoms: C2_2  and  C3_3
REMARK    2  A    between atoms: C3_3  and  C4_4
REMARK    3  A    between atoms: C4_4  and  C5_5
REMARK    4  A    between atoms: C5_5  and  N1_6
REMARK    5  A    between atoms: N1_6  and  C6_8
REMARK    6  A    between atoms: C6_8  and  N2_10
REMARK    7  A    between atoms: N2_10  and  C7_12
REMARK    8  A    between atoms: C7_12  and  C8_13
REMARK    9  A    between atoms: C15_20  and  O1_21
ROOT
HETATM    1  N2  UNL     1      36.391  33.318  69.070  1.00  0.00    -0.366 N
ATOM      2  H2  UNL     1      36.107  33.379  68.092  1.00  0.00     0.161 HD
ENDROOT
BRANCH   1   3
HETATM    3  C6  UNL     1      37.494  34.071  69.555  1.00  0.00     0.167 C
HETATM    4  S1  UNL     1      37.511  34.394  71.152  1.00  0.00    -0.041 SA
BRANCH   3   5
HETATM    5  N1  UNL     1      38.506  34.476  68.664  1.00  0.00    -0.367 N
ATOM      6  H1  UNL     1      38.833  33.805  67.969  1.00  0.00     0.161 HD
BRANCH   5   7
HETATM    7  C5  UNL     1      39.105  35.784  68.680  1.00  0.00     0.122 C
BRANCH   7   8
HETATM    8  C4  UNL     1      38.252  36.734  67.888  1.00  0.00     0.020 C
BRANCH   8   9
HETATM    9  C3  UNL     1      38.241  38.125  68.489  1.00  0.00     0.001 C
BRANCH   9  10
HETATM   10  C2  UNL     1      38.026  38.036  69.976  1.00  0.00    -0.004 C
HETATM   11  C1  UNL     1      39.005  38.931  70.688  1.00  0.00     0.005 C
ENDBRANCH   9  10
ENDBRANCH   8   9
ENDBRANCH   7   8
ENDBRANCH   5   7
ENDBRANCH   3   5
ENDBRANCH   1   3
BRANCH   1  12
HETATM   12  C7  UNL     1      35.684  32.469  69.986  1.00  0.00     0.134 C
BRANCH  12  13
HETATM   13  C8  UNL     1      34.273  32.166  69.601  1.00  0.00     0.002 C
HETATM   14  C9  UNL     1      34.211  30.652  69.359  1.00  0.00     0.014 C
HETATM   15  C10 UNL     1      32.796  30.297  69.014  1.00  0.00     0.005 C
HETATM   16  C11 UNL     1      31.889  31.509  69.097  1.00  0.00    -0.012 C
HETATM   17  C12 UNL     1      31.994  32.014  70.531  1.00  0.00     0.005 C
HETATM   18  C14 UNL     1      32.359  32.596  68.148  1.00  0.00     0.037 C
HETATM   19  C13 UNL     1      33.373  32.535  70.755  1.00  0.00     0.014 C
HETATM   20  C15 UNL     1      33.845  32.825  68.316  1.00  0.00     0.128 C
BRANCH  20  21
HETATM   21  O1  UNL     1      34.549  32.202  67.277  1.00  0.00    -0.395 OA
ATOM     22  H1  UNL     1      34.277  32.617  66.466  1.00  0.00     0.210 HD
ENDBRANCH  20  21
ENDBRANCH  12  13
ENDBRANCH   1  12
TORSDOF 9
ENDMDL