MODEL 5
REMARK VINA RESULT: -6.204692474      2.483      4.504
REMARK  6 active torsions:
REMARK  status: ('A' for Active; 'I' for Inactive)
REMARK    1  A    between atoms: C2_2  and  C3_3
REMARK    2  A    between atoms: C3_3  and  C4_4
REMARK    3  A    between atoms: C4_4  and  C5_5
REMARK    4  A    between atoms: C5_5  and  C6_6
REMARK    5  A    between atoms: C8_15  and  C9_16
REMARK    6  A    between atoms: N5_22  and  C14_23
ROOT
HETATM    1  C9  UNL     1      38.255  37.964  68.053  1.00  0.00     0.183 C
HETATM    2  C10 UNL     1      38.210  37.614  66.596  1.00  0.00     0.065 C
HETATM    3  N4  UNL     1      38.195  37.345  65.451  1.00  0.00    -0.197 NA
ENDROOT
BRANCH   1   4
HETATM    4  C8  UNL     1      38.208  36.701  68.839  1.00  0.00     0.063 A
HETATM    5  C6  UNL     1      38.103  36.521  70.182  1.00  0.00     0.062 A
HETATM    6  N1  UNL     1      37.865  35.168  70.342  1.00  0.00    -0.193 N
HETATM    7  C7  UNL     1      37.837  34.566  69.147  1.00  0.00     0.676 A
ATOM      8  H1  UNL     1      37.732  34.698  71.237  1.00  0.00     0.184 HD
HETATM    9  N2  UNL     1      37.635  33.323  68.886  1.00  0.00    -0.234 N
HETATM   10  N3  UNL     1      38.049  35.491  68.211  1.00  0.00    -0.193 N
ATOM     11  H22 UNL     1      37.473  32.615  69.602  1.00  0.00     0.174 HD
ATOM     12  H21 UNL     1      37.614  32.864  67.975  1.00  0.00     0.174 HD
ATOM     13  H3  UNL     1      38.086  35.328  67.205  1.00  0.00     0.184 HD
BRANCH   5  14
HETATM   14  C5  UNL     1      38.386  37.456  71.308  1.00  0.00     0.041 C
HETATM   15  C11 UNL     1      38.192  36.691  72.646  1.00  0.00     0.033 C
HETATM   16  C12 UNL     1      36.714  36.914  72.422  1.00  0.00     0.044 C
HETATM   17  C16 UNL     1      38.423  37.783  73.662  1.00  0.00     0.279 C
HETATM   18  C13 UNL     1      37.200  38.211  71.837  1.00  0.00     0.238 C
HETATM   19  N5  UNL     1      37.786  38.894  72.969  1.00  0.00     0.094 N
BRANCH  14  20
HETATM   20  C4  UNL     1      39.683  38.189  71.308  1.00  0.00     0.018 C
BRANCH  20  21
HETATM   21  C3  UNL     1      40.974  37.518  71.147  1.00  0.00     0.001 C
BRANCH  21  22
HETATM   22  C2  UNL     1      42.067  38.142  72.037  1.00  0.00    -0.005 C
HETATM   23  C1  UNL     1      43.226  38.479  71.144  1.00  0.00     0.005 C
ENDBRANCH  21  22
ENDBRANCH  20  21
ENDBRANCH  14  20
BRANCH  19  24
HETATM   24  C14 UNL     1      36.887  39.634  73.786  1.00  0.00     0.268 C
HETATM   25  C15 UNL     1      37.147  39.250  75.252  1.00  0.00     0.037 C
ENDBRANCH  19  24
ENDBRANCH   5  14
ENDBRANCH   1   4
TORSDOF 6
ENDMDL