MODEL 4
REMARK VINA RESULT: -6.429654451      0.607      1.117
REMARK  6 active torsions:
REMARK  status: ('A' for Active; 'I' for Inactive)
REMARK    1  A    between atoms: C2_2  and  N1_3
REMARK    2  A    between atoms: N1_3  and  C4_5
REMARK    3  A    between atoms: C4_5  and  C5_6
REMARK    4  A    between atoms: C7_8  and  C8_9
REMARK    5  A    between atoms: C8_9  and  C9_10
REMARK    6  A    between atoms: C10_15  and  N4_16
ROOT
HETATM    1  C5  UNL     1      36.074  33.346  70.863  1.00  0.00     0.019 C
HETATM    2  C6  UNL     1      36.948  34.256  70.012  1.00  0.00     0.016 C
HETATM    3  C7  UNL     1      38.014  34.819  70.877  1.00  0.00    -0.033 C
HETATM    4  C11 UNL     1      38.790  33.651  71.474  1.00  0.00     0.015 C
HETATM    5  C12 UNL     1      37.936  32.986  72.502  1.00  0.00    -0.009 C
HETATM    6  C13 UNL     1      37.863  33.890  73.711  1.00  0.00     0.010 C
HETATM    7  C14 UNL     1      36.710  34.582  72.973  1.00  0.00    -0.009 C
HETATM    8  C15 UNL     1      37.361  35.557  72.053  1.00  0.00     0.015 C
HETATM    9  C16 UNL     1      36.472  33.263  72.282  1.00  0.00    -0.001 C
ENDROOT
BRANCH   3  10
HETATM   10  C8  UNL     1      38.981  35.736  70.253  1.00  0.00     0.088 C
BRANCH  10  11
HETATM   11  C9  UNL     1      38.531  36.547  69.125  1.00  0.00     0.113 A
HETATM   12  N2  UNL     1      37.660  37.558  69.064  1.00  0.00    -0.274 N
HETATM   13  N3  UNL     1      37.523  38.007  67.845  1.00  0.00    -0.131 N
ATOM     14  H2  UNL     1      37.162  37.933  69.871  1.00  0.00     0.189 HD
HETATM   15  C10 UNL     1      38.328  37.271  67.080  1.00  0.00     0.691 A
ATOM     16  H3  UNL     1      36.920  38.770  67.539  1.00  0.00     0.205 HD
HETATM   17  N5  UNL     1      38.943  36.381  67.854  1.00  0.00    -0.178 N
ATOM     18  H5  UNL     1      39.618  35.686  67.537  1.00  0.00     0.185 HD
BRANCH  15  19
HETATM   19  N4  UNL     1      38.485  37.405  65.787  1.00  0.00    -0.233 N
ATOM     20  H42 UNL     1      38.935  38.189  65.316  1.00  0.00     0.174 HD
ATOM     21  H41 UNL     1      38.176  36.739  65.079  1.00  0.00     0.174 HD
ENDBRANCH  15  19
ENDBRANCH  10  11
ENDBRANCH   3  10
BRANCH   1  22
HETATM   22  C4  UNL     1      36.078  31.923  70.303  1.00  0.00     0.277 C
BRANCH  22  23
HETATM   23  N1  UNL     1      34.822  31.536  69.784  1.00  0.00     0.084 N
HETATM   24  C3  UNL     1      34.759  31.682  68.363  1.00  0.00     0.309 C
BRANCH  23  25
HETATM   25  C2  UNL     1      34.381  30.239  70.181  1.00  0.00     0.267 C
HETATM   26  C1  UNL     1      35.200  29.597  71.269  1.00  0.00     0.037 C
ENDBRANCH  23  25
ENDBRANCH  22  23
ENDBRANCH   1  22
TORSDOF 6
ENDMDL