MODEL 5
REMARK VINA RESULT: -6.344037267      2.286      3.441
REMARK  6 active torsions:
REMARK  status: ('A' for Active; 'I' for Inactive)
REMARK    1  A    between atoms: C2_2  and  N1_4
REMARK    2  A    between atoms: N1_4  and  C4_6
REMARK    3  A    between atoms: C4_6  and  C5_7
REMARK    4  A    between atoms: C5_7  and  N2_8
REMARK    5  A    between atoms: C5_7  and  C14_24
REMARK    6  A    between atoms: C8_16  and  C9_17
ROOT
HETATM    1  N2  UNL     1      37.898  35.647  71.177  1.00  0.00    -0.220 N
ATOM      2  H2  UNL     1      38.152  36.574  71.519  1.00  0.00     0.178 HD
HETATM    3  C6  UNL     1      36.983  35.059  71.838  1.00  0.00     0.676 A
HETATM    4  N3  UNL     1      36.430  35.761  72.964  1.00  0.00    -0.210 N
ATOM      5  H3  UNL     1      36.777  36.693  73.188  1.00  0.00     0.179 HD
HETATM    6  C7  UNL     1      35.398  35.181  73.785  1.00  0.00     0.263 A
HETATM    7  N4  UNL     1      34.987  33.882  73.361  1.00  0.00    -0.362 N
ATOM      8  H4  UNL     1      34.248  33.435  73.905  1.00  0.00     0.162 HD
HETATM    9  C8  UNL     1      35.446  33.224  72.372  1.00  0.00     0.098 A
HETATM   10  N5  UNL     1      36.463  33.766  71.557  1.00  0.00    -0.181 N
ATOM     11  H5  UNL     1      36.824  33.231  70.768  1.00  0.00     0.185 HD
ENDROOT
BRANCH   1  12
HETATM   12  C5  UNL     1      38.617  35.205  70.038  1.00  0.00     0.120 C
BRANCH  12  13
HETATM   13  C4  UNL     1      37.890  35.552  68.747  1.00  0.00     0.140 C
BRANCH  13  14
HETATM   14  N1  UNL     1      38.708  36.449  67.999  1.00  0.00    -0.416 N
ATOM     15  H1  UNL     1      39.717  36.325  67.913  1.00  0.00     0.153 HD
BRANCH  14  16
HETATM   16  C2  UNL     1      38.016  37.533  67.379  1.00  0.00     0.068 C
HETATM   17  C1  UNL     1      38.407  37.788  65.955  1.00  0.00     0.031 C
HETATM   18  C3  UNL     1      38.305  38.790  68.172  1.00  0.00     0.031 C
ENDBRANCH  14  16
ENDBRANCH  13  14
ENDBRANCH  12  13
BRANCH  12  19
HETATM   19  C14 UNL     1      39.956  35.953  69.953  1.00  0.00     0.002 C
HETATM   20  C15 UNL     1      40.013  37.054  70.994  1.00  0.00     0.011 C
HETATM   21  C16 UNL     1      41.117  35.027  70.224  1.00  0.00     0.011 C
ENDBRANCH  12  19
ENDBRANCH   1  12
BRANCH   9  22
HETATM   22  C9  UNL     1      34.922  31.852  72.027  1.00  0.00     0.054 C
HETATM   23  C10 UNL     1      35.052  31.552  70.563  1.00  0.00     0.012 C
HETATM   24  C11 UNL     1      33.648  31.473  70.004  1.00  0.00     0.001 C
HETATM   25  C12 UNL     1      32.839  32.236  71.017  1.00  0.00     0.001 C
HETATM   26  C13 UNL     1      33.458  31.770  72.335  1.00  0.00     0.012 C
ENDBRANCH   9  22
TORSDOF 6
ENDMDL