MODEL 4
REMARK VINA RESULT: -7.414977865      1.005      1.086
REMARK  7 active torsions:
REMARK  status: ('A' for Active; 'I' for Inactive)
REMARK       I    between atoms: C1_2  and  N1_3
REMARK       I    between atoms: C1_2  and  N2_12
REMARK    1  A    between atoms: N1_3  and  C2_5
REMARK    2  A    between atoms: C2_5  and  C3_6
REMARK    3  A    between atoms: C3_6  and  C4_7
REMARK    4  A    between atoms: C4_7  and  C5_8
REMARK    5  A    between atoms: C5_8  and  C6_9
REMARK    6  A    between atoms: C6_9  and  O2_10
REMARK    7  A    between atoms: N2_12  and  C7_14
ROOT
HETATM    1  O1  UNL     1      37.572  34.119  70.676  1.00  0.00    -0.247 OA
HETATM    2  C1  UNL     1      37.495  33.905  69.443  1.00  0.00     0.316 C
HETATM    3  N1  UNL     1      38.326  34.641  68.592  1.00  0.00    -0.343 N
ATOM      4  H1  UNL     1      38.248  34.457  67.592  1.00  0.00     0.164 HD
HETATM    5  N2  UNL     1      36.597  32.954  68.959  1.00  0.00    -0.334 N
ATOM      6  H2  UNL     1      36.579  32.824  67.948  1.00  0.00     0.165 HD
ENDROOT
BRANCH   5   7
HETATM    7  C7  UNL     1      35.693  32.136  69.723  1.00  0.00     0.035 C
HETATM    8  C8  UNL     1      34.835  32.995  70.639  1.00  0.00     0.035 C
HETATM    9  C9  UNL     1      33.824  32.157  71.350  1.00  0.00    -0.012 C
HETATM   10  C10 UNL     1      34.459  31.043  72.161  1.00  0.00     0.009 C
HETATM   11  C14 UNL     1      32.869  31.513  70.372  1.00  0.00     0.009 C
HETATM   12  C11 UNL     1      35.308  30.235  71.220  1.00  0.00    -0.012 C
HETATM   13  C12 UNL     1      34.406  29.570  70.223  1.00  0.00     0.009 C
HETATM   14  C16 UNL     1      36.368  31.078  70.549  1.00  0.00     0.035 C
HETATM   15  C13 UNL     1      33.674  30.654  69.453  1.00  0.00    -0.012 C
HETATM   16  C15 UNL     1      34.729  31.481  68.756  1.00  0.00     0.035 C
ENDBRANCH   5   7
BRANCH   3  17
HETATM   17  C2  UNL     1      39.286  35.640  69.009  1.00  0.00     0.124 C
BRANCH  17  18
HETATM   18  C3  UNL     1      38.719  37.010  69.087  1.00  0.00     0.020 C
BRANCH  18  19
HETATM   19  C4  UNL     1      37.929  37.318  67.844  1.00  0.00     0.004 C
BRANCH  19  20
HETATM   20  C5  UNL     1      38.278  38.680  67.304  1.00  0.00     0.026 C
BRANCH  20  21
HETATM   21  C6  UNL     1      38.638  38.435  65.823  1.00  0.00     0.164 C
BRANCH  21  22
HETATM   22  O2  UNL     1      38.336  37.097  65.555  1.00  0.00    -0.401 OA
ATOM     23  H2  UNL     1      37.816  36.784  66.286  1.00  0.00     0.209 HD
ENDBRANCH  21  22
ENDBRANCH  20  21
ENDBRANCH  19  20
ENDBRANCH  18  19
ENDBRANCH  17  18
ENDBRANCH   3  17
TORSDOF 7
ENDMDL