MODEL 3
REMARK VINA RESULT: -7.149586419      1.396      1.682
REMARK  6 active torsions:
REMARK  status: ('A' for Active; 'I' for Inactive)
REMARK    1  A    between atoms: C2_2  and  N2_6
REMARK    2  A    between atoms: N2_6  and  C3_8
REMARK    3  A    between atoms: C3_8  and  C4_9
REMARK       I    between atoms: C4_9  and  N3_11
REMARK    4  A    between atoms: N3_11  and  C5_13
REMARK    5  A    between atoms: C5_13  and  C6_14
REMARK    6  A    between atoms: C6_14  and  C7_15
ROOT
HETATM    1  C3  UNL     1      38.182  35.871  69.919  1.00  0.00     0.112 C
HETATM    2  C13 UNL     1      37.593  35.911  71.292  1.00  0.00     0.041 C
HETATM    3  C14 UNL     1      38.476  36.804  72.101  1.00  0.00     0.003 C
HETATM    4  C15 UNL     1      39.804  36.874  71.397  1.00  0.00     0.003 C
HETATM    5  C16 UNL     1      39.641  36.179  70.069  1.00  0.00     0.041 C
ENDROOT
BRANCH   1   6
HETATM    6  N2  UNL     1      37.538  36.790  69.004  1.00  0.00    -0.362 N
ATOM      7  H2  UNL     1      36.525  36.886  69.064  1.00  0.00     0.162 HD
BRANCH   6   8
HETATM    8  C2  UNL     1      38.212  37.566  68.033  1.00  0.00     0.067 C
HETATM    9  C1  UNL     1      38.408  39.016  68.247  1.00  0.00     0.088 C
HETATM   10  N1  UNL     1      38.654  37.011  66.971  1.00  0.00    -0.389 N
ATOM     11  H12 UNL     1      39.140  37.570  66.270  1.00  0.00     0.157 HD
ATOM     12  H11 UNL     1      38.519  36.011  66.823  1.00  0.00     0.157 HD
ENDBRANCH   6   8
ENDBRANCH   1   6
BRANCH   1  13
HETATM   13  C4  UNL     1      37.973  34.488  69.399  1.00  0.00     0.246 C
HETATM   14  O1  UNL     1      38.626  34.086  68.431  1.00  0.00    -0.271 OA
HETATM   15  N3  UNL     1      37.016  33.645  70.029  1.00  0.00    -0.359 N
ATOM     16  H3  UNL     1      36.482  33.985  70.829  1.00  0.00     0.162 HD
BRANCH  15  17
HETATM   17  C5  UNL     1      36.806  32.305  69.534  1.00  0.00     0.123 C
BRANCH  17  18
HETATM   18  C6  UNL     1      35.495  32.260  68.802  1.00  0.00     0.024 C
BRANCH  18  19
HETATM   19  C7  UNL     1      34.415  31.567  69.600  1.00  0.00    -0.013 C
HETATM   20  C8  UNL     1      33.367  30.942  68.748  1.00  0.00     0.005 C
HETATM   21  C9  UNL     1      31.985  31.513  68.964  1.00  0.00     0.000 C
HETATM   22  C10 UNL     1      31.568  31.459  70.413  1.00  0.00     0.000 C
HETATM   23  C11 UNL     1      32.730  31.700  71.349  1.00  0.00     0.000 C
HETATM   24  C12 UNL     1      33.784  32.529  70.608  1.00  0.00     0.005 C
ENDBRANCH  18  19
ENDBRANCH  17  18
ENDBRANCH  15  17
ENDBRANCH   1  13
TORSDOF 6
ENDMDL