MODEL 5
REMARK VINA RESULT: -7.298427490      1.837      2.127
REMARK  4 active torsions:
REMARK  status: ('A' for Active; 'I' for Inactive)
REMARK    1  A    between atoms: C7_7  and  N1_8
REMARK       I    between atoms: N1_8  and  C9_10
REMARK    2  A    between atoms: C9_10  and  C10_12
REMARK    3  A    between atoms: C10_12  and  S1_13
REMARK    4  A    between atoms: S1_13  and  C11_14
ROOT
HETATM    1  C1  UNL     1      50.245  23.629   2.225  1.00  0.00     0.013 C
HETATM    2  C2  UNL     1      50.124  24.746   2.632  1.00  0.00    -0.105 C
HETATM    3  C3  UNL     1      50.005  26.096   3.119  1.00  0.00     0.045 A
HETATM    4  C4  UNL     1      51.229  26.960   2.803  1.00  0.00     0.032 C
HETATM    5  C5  UNL     1      49.553  26.210   4.593  1.00  0.00     0.028 A
HETATM    6  C6  UNL     1      50.352  27.125   5.486  1.00  0.00     0.014 C
HETATM    7  C7  UNL     1      48.762  26.783   3.441  1.00  0.00     0.112 A
ENDROOT
BRANCH   7   8
HETATM    8  N1  UNL     1      47.443  26.266   3.268  1.00  0.00    -0.349 N
HETATM    9  C8  UNL     1      47.086  24.905   3.615  1.00  0.00     0.153 C
HETATM   10  C9  UNL     1      46.426  27.104   2.739  1.00  0.00     0.229 C
HETATM   11  O1  UNL     1      45.262  26.598   2.597  1.00  0.00    -0.273 OA
BRANCH  10  12
HETATM   12  C10 UNL     1      46.612  28.510   2.339  1.00  0.00     0.185 C
BRANCH  12  13
HETATM   13  S1  UNL     1      45.069  29.421   2.373  1.00  0.00    -0.085 SA
BRANCH  13  14
HETATM   14  C11 UNL     1      44.178  29.376   0.854  1.00  0.00     0.147 A
HETATM   15  N2  UNL     1      42.894  29.760   0.783  1.00  0.00    -0.304 N
HETATM   16  C12 UNL     1      42.227  29.725  -0.375  1.00  0.00     0.249 A
ATOM     17  H2  UNL     1      42.419  30.085   1.625  1.00  0.00     0.171 HD
HETATM   18  O2  UNL     1      41.031  30.072  -0.500  1.00  0.00    -0.268 OA
HETATM   19  C13 UNL     1      42.879  29.285  -1.508  1.00  0.00     0.099 A
HETATM   20  C14 UNL     1      44.185  28.891  -1.446  1.00  0.00     0.012 A
HETATM   21  C15 UNL     1      44.859  28.420  -2.686  1.00  0.00     0.068 C
HETATM   22  N3  UNL     1      44.803  28.948  -0.255  1.00  0.00    -0.341 N
ATOM     23  H3  UNL     1      45.779  28.658  -0.191  1.00  0.00     0.167 HD
ENDBRANCH  13  14
ENDBRANCH  12  13
ENDBRANCH  10  12
ENDBRANCH   7   8
TORSDOF 4
ENDMDL