MODEL 2
REMARK VINA RESULT: -7.963601190      0.662      1.279
REMARK  4 active torsions:
REMARK  status: ('A' for Active; 'I' for Inactive)
REMARK       I    between atoms: C1_2  and  N1_3
REMARK    1  A    between atoms: C1_2  and  C8_13
REMARK    2  A    between atoms: N1_3  and  C2_5
REMARK    3  A    between atoms: C2_5  and  C3_6
REMARK    4  A    between atoms: C3_6  and  N2_7
ROOT
HETATM    1  O1  UNL     1      46.756  27.653   2.015  1.00  0.00    -0.273 OA
HETATM    2  C1  UNL     1      45.721  27.839   2.702  1.00  0.00     0.226 C
HETATM    3  N1  UNL     1      45.684  27.282   4.006  1.00  0.00    -0.359 N
ATOM      4  H1  UNL     1      44.839  27.427   4.559  1.00  0.00     0.162 HD
ENDROOT
BRANCH   2   5
HETATM    5  C8  UNL     1      44.587  28.626   2.144  1.00  0.00     0.042 C
HETATM    6  C9  UNL     1      44.472  28.524   0.656  1.00  0.00     0.024 C
HETATM    7  C10 UNL     1      43.259  29.328   0.223  1.00  0.00    -0.013 C
HETATM    8  C11 UNL     1      43.419  30.792   0.588  1.00  0.00     0.009 C
HETATM    9  C15 UNL     1      41.985  28.836   0.880  1.00  0.00     0.009 C
HETATM   10  C12 UNL     1      43.615  30.911   2.063  1.00  0.00    -0.013 C
HETATM   11  C13 UNL     1      42.410  30.373   2.800  1.00  0.00     0.009 C
HETATM   12  C17 UNL     1      44.819  30.088   2.467  1.00  0.00     0.024 C
HETATM   13  C14 UNL     1      42.135  28.961   2.385  1.00  0.00    -0.013 C
HETATM   14  C16 UNL     1      43.327  28.115   2.783  1.00  0.00     0.024 C
ENDBRANCH   2   5
BRANCH   3  15
HETATM   15  C2  UNL     1      46.750  26.527   4.602  1.00  0.00     0.152 C
BRANCH  15  16
HETATM   16  C3  UNL     1      47.895  27.342   5.115  1.00  0.00     0.292 C
BRANCH  16  17
HETATM   17  N2  UNL     1      49.174  26.967   4.590  1.00  0.00     0.091 N
HETATM   18  C4  UNL     1      49.162  25.758   3.804  1.00  0.00     0.282 C
HETATM   19  C5  UNL     1      50.138  26.019   2.646  1.00  0.00     0.104 C
HETATM   20  S1  UNL     1      51.753  26.310   3.433  1.00  0.00    -0.166 SA
HETATM   21  C6  UNL     1      51.584  26.916   5.109  1.00  0.00     0.104 C
HETATM   22  C7  UNL     1      50.180  26.972   5.609  1.00  0.00     0.282 C
ENDBRANCH  16  17
ENDBRANCH  15  16
ENDBRANCH   3  15
TORSDOF 4
ENDMDL