MODEL 1
REMARK VINA RESULT: -8.451469262      0.000      0.000
REMARK  5 active torsions:
REMARK  status: ('A' for Active; 'I' for Inactive)
REMARK    1  A    between atoms: C1_2  and  C2_3
REMARK       I    between atoms: C1_2  and  N1_12
REMARK    2  A    between atoms: C2_3  and  O2_4
REMARK    3  A    between atoms: O2_4  and  C3_5
REMARK    4  A    between atoms: C3_5  and  C4_7
REMARK    5  A    between atoms: N1_12  and  C8_14
ROOT
HETATM    1  O1  UNL     1      47.138  25.819   4.596  1.00  0.00    -0.271 OA
HETATM    2  C1  UNL     1      46.959  27.016   4.253  1.00  0.00     0.242 C
HETATM    3  N1  UNL     1      48.046  27.869   3.911  1.00  0.00    -0.350 N
ATOM      4  H1  UNL     1      47.829  28.829   3.643  1.00  0.00     0.163 HD
ENDROOT
BRANCH   3   5
HETATM    5  C8  UNL     1      49.417  27.477   3.916  1.00  0.00     0.034 C
HETATM    6  C9  UNL     1      49.701  26.365   2.910  1.00  0.00     0.035 C
HETATM    7  C10 UNL     1      51.182  26.092   2.840  1.00  0.00    -0.012 C
HETATM    8  C11 UNL     1      51.903  27.338   2.441  1.00  0.00     0.009 C
HETATM    9  C15 UNL     1      51.642  25.580   4.175  1.00  0.00     0.009 C
HETATM   10  C12 UNL     1      51.738  28.373   3.531  1.00  0.00    -0.012 C
HETATM   11  C13 UNL     1      52.188  27.844   4.886  1.00  0.00     0.009 C
HETATM   12  C17 UNL     1      50.283  28.689   3.635  1.00  0.00     0.035 C
HETATM   13  C14 UNL     1      51.343  26.652   5.200  1.00  0.00    -0.012 C
HETATM   14  C16 UNL     1      49.873  26.937   5.258  1.00  0.00     0.035 C
ENDBRANCH   3   5
BRANCH   2  15
HETATM   15  C2  UNL     1      45.559  27.510   4.217  1.00  0.00     0.281 C
BRANCH  15  16
HETATM   16  O2  UNL     1      45.405  28.823   3.798  1.00  0.00    -0.310 OA
BRANCH  16  17
HETATM   17  C3  UNL     1      45.128  29.247   2.528  1.00  0.00     0.288 C
HETATM   18  O3  UNL     1      45.998  29.158   1.640  1.00  0.00    -0.262 OA
BRANCH  17  19
HETATM   19  C4  UNL     1      43.804  29.809   2.218  1.00  0.00     0.221 C
HETATM   20  C5  UNL     1      43.978  31.262   1.830  1.00  0.00     0.044 C
HETATM   21  C6  UNL     1      42.565  31.795   2.037  1.00  0.00     0.029 C
HETATM   22  C7  UNL     1      41.933  30.699   2.862  1.00  0.00     0.169 C
HETATM   23  O4  UNL     1      42.974  29.899   3.324  1.00  0.00    -0.376 OA
ENDBRANCH  17  19
ENDBRANCH  16  17
ENDBRANCH  15  16
ENDBRANCH   2  15
TORSDOF 5
ENDMDL