MODEL 2
REMARK VINA RESULT: -8.798515383      2.059      6.920
REMARK  3 active torsions:
REMARK  status: ('A' for Active; 'I' for Inactive)
REMARK    1  A    between atoms: C1_2  and  C2_4
REMARK    2  A    between atoms: N2_12  and  C10_13
REMARK    3  A    between atoms: C10_13  and  C11_14
ROOT
HETATM    1  C2  UNL     1      50.415  26.106   2.628  1.00  0.00     0.083 C
HETATM    2  C3  UNL     1      51.657  26.953   2.678  1.00  0.00     0.014 C
HETATM    3  C4  UNL     1      51.616  28.109   3.615  1.00  0.00     0.001 C
HETATM    4  C5  UNL     1      50.994  27.881   4.945  1.00  0.00     0.001 C
HETATM    5  C6  UNL     1      50.082  26.713   4.948  1.00  0.00     0.010 C
HETATM    6  C7  UNL     1      49.386  26.411   3.649  1.00  0.00    -0.025 C
HETATM    7  C8  UNL     1      48.486  27.571   3.214  1.00  0.00     0.040 C
HETATM    8  C9  UNL     1      47.649  27.983   4.378  1.00  0.00     0.273 C
HETATM    9  N2  UNL     1      46.714  26.899   4.689  1.00  0.00     0.091 N
HETATM   10  C16 UNL     1      46.982  25.692   4.013  1.00  0.00     0.273 C
HETATM   11  C17 UNL     1      48.426  25.271   3.906  1.00  0.00     0.040 C
ENDROOT
BRANCH   1  12
HETATM   12  C1  UNL     1      50.884  24.700   2.586  1.00  0.00     0.236 C
HETATM   13  N1  UNL     1      50.098  23.678   2.008  1.00  0.00    -0.062 NA
HETATM   14  O1  UNL     1      51.996  24.405   3.068  1.00  0.00    -0.276 OA
ENDBRANCH   1  12
BRANCH   9  15
HETATM   15  C10 UNL     1      45.393  27.384   4.387  1.00  0.00     0.306 C
BRANCH  15  16
HETATM   16  C11 UNL     1      45.208  28.129   3.122  1.00  0.00     0.173 C
HETATM   17  C12 UNL     1      44.330  27.261   2.203  1.00  0.00     0.201 C
HETATM   18  O2  UNL     1      44.803  27.240   0.915  1.00  0.00    -0.388 OA
HETATM   19  C13 UNL     1      44.907  28.460   0.299  1.00  0.00     0.169 C
HETATM   20  C14 UNL     1      44.052  29.539   0.900  1.00  0.00     0.052 C
HETATM   21  C15 UNL     1      44.671  30.136   2.137  1.00  0.00     0.170 C
HETATM   22  O3  UNL     1      44.529  29.322   3.255  1.00  0.00    -0.382 OA
ENDBRANCH  15  16
ENDBRANCH   9  15
TORSDOF 3
ENDMDL