MODEL 4
REMARK VINA RESULT: -6.541987582      1.095      1.209
REMARK  5 active torsions:
REMARK  status: ('A' for Active; 'I' for Inactive)
REMARK    1  A    between atoms: C2_2  and  O1_3
REMARK    2  A    between atoms: O1_3  and  C3_4
REMARK       I    between atoms: C3_4  and  N1_6
REMARK    3  A    between atoms: N1_6  and  C4_7
REMARK    4  A    between atoms: N1_6  and  C5_9
REMARK    5  A    between atoms: C12_16  and  N2_17
REMARK       I    between atoms: N2_17  and  C13_18
ROOT
HETATM    1  C5  UNL     1      43.088  29.699   0.088  1.00  0.00     0.017 C
HETATM    2  C6  UNL     1      41.693  29.496   0.596  1.00  0.00     0.034 C
HETATM    3  C7  UNL     1      41.112  30.932   0.710  1.00  0.00     0.015 C
HETATM    4  C8  UNL     1      42.014  31.715   1.649  1.00  0.00    -0.012 C
HETATM    5  C9  UNL     1      41.846  31.080   3.012  1.00  0.00     0.016 C
HETATM    6  C10 UNL     1      42.443  29.672   2.949  1.00  0.00     0.048 C
HETATM    7  C11 UNL     1      41.703  28.860   1.946  1.00  0.00     0.022 C
HETATM    8  C12 UNL     1      43.900  29.843   2.517  1.00  0.00     0.080 C
HETATM    9  C15 UNL     1      43.978  30.304   1.083  1.00  0.00     0.093 C
HETATM   10  C16 UNL     1      43.433  31.773   1.179  1.00  0.00     0.022 C
ENDROOT
BRANCH   1  11
HETATM   11  N1  UNL     1      43.503  28.713  -0.824  1.00  0.00    -0.241 N
HETATM   12  C3  UNL     1      43.763  28.998  -2.220  1.00  0.00     0.373 C
HETATM   13  O2  UNL     1      44.104  28.061  -2.956  1.00  0.00    -0.237 OA
BRANCH  12  14
HETATM   14  O1  UNL     1      43.657  30.249  -2.785  1.00  0.00    -0.304 OA
BRANCH  14  15
HETATM   15  C2  UNL     1      42.616  30.621  -3.656  1.00  0.00     0.176 C
HETATM   16  C1  UNL     1      41.255  30.586  -3.037  1.00  0.00     0.034 C
ENDBRANCH  14  15
ENDBRANCH  12  14
BRANCH  11  17
HETATM   17  C4  UNL     1      43.706  27.375  -0.480  1.00  0.00     0.364 C
HETATM   18  O3  UNL     1      44.536  26.916   0.347  1.00  0.00    -0.283 OA
ENDBRANCH  11  17
ENDBRANCH   1  11
BRANCH   8  19
HETATM   19  N2  UNL     1      44.823  29.005   3.007  1.00  0.00    -0.379 NA
HETATM   20  C13 UNL     1      45.761  28.154   3.504  1.00  0.00     0.287 C
HETATM   21  C14 UNL     1      47.097  27.970   2.760  1.00  0.00     0.135 C
HETATM   22  O4  UNL     1      45.732  27.430   4.543  1.00  0.00    -0.258 OA
ENDBRANCH   8  19
TORSDOF 5
ENDMDL