MODEL 4
REMARK VINA RESULT: -6.635874831      1.828      3.620
REMARK  4 active torsions:
REMARK  status: ('A' for Active; 'I' for Inactive)
REMARK    1  A    between atoms: C2_2  and  C3_3
REMARK    2  A    between atoms: C3_3  and  N1_4
REMARK    3  A    between atoms: C3_3  and  C10_15
REMARK       I    between atoms: N1_4  and  C4_6
REMARK       I    between atoms: C4_6  and  N2_8
REMARK    4  A    between atoms: C10_15  and  N4_16
ROOT
HETATM    1  C3  UNL     1      41.439  30.305  -0.797  1.00  0.00     0.113 C
ENDROOT
BRANCH   1   2
HETATM    2  C2  UNL     1      41.703  29.681  -2.072  1.00  0.00     0.023 C
HETATM    3  C1  UNL     1      42.982  29.710  -2.790  1.00  0.00     0.007 C
ENDBRANCH   1   2
BRANCH   1   4
HETATM    4  N1  UNL     1      42.610  29.930   0.083  1.00  0.00    -0.336 N
HETATM    5  C4  UNL     1      42.434  29.061   1.159  1.00  0.00     0.318 C
HETATM    6  O1  UNL     1      41.301  28.582   1.406  1.00  0.00    -0.247 OA
HETATM    7  N2  UNL     1      43.508  28.672   2.030  1.00  0.00    -0.331 N
HETATM    8  C5  UNL     1      44.816  29.215   1.750  1.00  0.00     0.157 C
HETATM    9  C9  UNL     1      43.294  27.781   3.134  1.00  0.00     0.157 C
HETATM   10  C6  UNL     1      45.779  29.136   2.891  1.00  0.00     0.291 C
HETATM   11  N3  UNL     1      45.698  27.867   3.593  1.00  0.00     0.087 N
HETATM   12  C7  UNL     1      46.009  26.758   2.716  1.00  0.00     0.310 C
HETATM   13  C8  UNL     1      44.365  27.745   4.159  1.00  0.00     0.291 C
ATOM     14  H1  UNL     1      43.535  30.315  -0.112  1.00  0.00     0.164 HD
ENDBRANCH   1   4
BRANCH   1  15
HETATM   15  C10 UNL     1      41.127  31.722  -0.525  1.00  0.00     0.047 C
HETATM   16  C13 UNL     1      39.826  31.641   0.318  1.00  0.00     0.033 C
HETATM   17  C14 UNL     1      39.299  32.969   0.711  1.00  0.00     0.002 C
HETATM   18  C15 UNL     1      40.411  33.792   1.322  1.00  0.00     0.000 C
HETATM   19  C16 UNL     1      41.515  32.841   1.732  1.00  0.00     0.002 C
HETATM   20  C17 UNL     1      42.160  32.267   0.522  1.00  0.00     0.033 C
BRANCH  15  21
HETATM   21  N4  UNL     1      41.043  32.616  -1.550  1.00  0.00    -0.410 N
HETATM   22  C11 UNL     1      42.052  33.402  -2.092  1.00  0.00     0.143 C
HETATM   23  C12 UNL     1      39.960  32.445  -2.499  1.00  0.00     0.143 C
ENDBRANCH  15  21
ENDBRANCH   1  15
TORSDOF 4
ENDMDL