MODEL 1
REMARK VINA RESULT: -7.289705976      0.000      0.000
REMARK  4 active torsions:
REMARK  status: ('A' for Active; 'I' for Inactive)
REMARK    1  A    between atoms: C2_2  and  C4_4
REMARK    2  A    between atoms: C4_4  and  N1_5
REMARK    3  A    between atoms: C13_16  and  C14_17
REMARK       I    between atoms: C14_17  and  N3_19
REMARK    4  A    between atoms: N3_19  and  C15_21
ROOT
HETATM    1  N1  UNL     1      43.692  28.759   1.634  1.00  0.00     0.130 N
HETATM    2  C5  UNL     1      44.858  27.919   1.681  1.00  0.00     0.314 C
HETATM    3  C6  UNL     1      45.661  28.409   2.861  1.00  0.00     0.094 C
HETATM    4  C7  UNL     1      45.448  27.622   4.104  1.00  0.00     0.070 C
HETATM    5  C8  UNL     1      46.334  26.423   4.172  1.00  0.00     0.275 C
HETATM    6  N2  UNL     1      47.721  26.809   4.335  1.00  0.00     0.088 N
HETATM    7  C9  UNL     1      47.974  26.953   5.742  1.00  0.00     0.310 C
HETATM    8  C10 UNL     1      48.024  28.055   3.665  1.00  0.00     0.221 C
HETATM    9  C11 UNL     1      49.434  27.898   3.083  1.00  0.00     0.043 C
HETATM   10  C12 UNL     1      47.118  28.323   2.496  1.00  0.00     0.075 C
HETATM   11  O1  UNL     1      45.210  29.733   2.956  1.00  0.00    -0.337 OA
HETATM   12  C13 UNL     1      43.852  29.560   2.840  1.00  0.00     0.453 C
ENDROOT
BRANCH   1  13
HETATM   13  C4  UNL     1      43.627  29.547   0.435  1.00  0.00     0.280 C
BRANCH  13  14
HETATM   14  C2  UNL     1      42.619  28.887  -0.500  1.00  0.00     0.006 C
HETATM   15  C1  UNL     1      41.558  29.901  -0.881  1.00  0.00     0.011 C
HETATM   16  C3  UNL     1      43.293  28.406  -1.773  1.00  0.00     0.011 C
ENDBRANCH  13  14
ENDBRANCH   1  13
BRANCH  12  17
HETATM   17  C14 UNL     1      43.074  30.814   2.716  1.00  0.00     0.277 C
HETATM   18  O2  UNL     1      43.754  31.860   2.507  1.00  0.00    -0.269 OA
HETATM   19  N3  UNL     1      41.688  30.911   2.814  1.00  0.00    -0.353 N
ATOM     20  H3  UNL     1      41.137  30.069   2.982  1.00  0.00     0.163 HD
BRANCH  19  21
HETATM   21  C15 UNL     1      41.017  32.179   2.682  1.00  0.00     0.076 C
HETATM   22  C16 UNL     1      40.368  32.584   4.007  1.00  0.00     0.032 C
HETATM   23  C17 UNL     1      39.985  32.169   1.593  1.00  0.00     0.032 C
ENDBRANCH  19  21
ENDBRANCH  12  17
TORSDOF 4
ENDMDL