MODEL 2
REMARK VINA RESULT: -6.138022890      2.891      5.620
REMARK  5 active torsions:
REMARK  status: ('A' for Active; 'I' for Inactive)
REMARK    1  A    between atoms: C4_4  and  C5_5
REMARK    2  A    between atoms: C5_5  and  C6_6
REMARK    3  A    between atoms: C9_10  and  O2_11
REMARK    4  A    between atoms: N1_16  and  C13_17
REMARK    5  A    between atoms: C13_17  and  C14_18
ROOT
HETATM    1  C6  UNL     1      43.372  28.658   2.358  1.00  0.00     0.082 C
HETATM    2  O1  UNL     1      43.020  29.852   3.043  1.00  0.00    -0.364 OA
HETATM    3  C7  UNL     1      43.358  30.537   1.882  1.00  0.00     0.096 C
HETATM    4  C8  UNL     1      43.996  31.883   2.075  1.00  0.00     0.050 C
HETATM    5  C9  UNL     1      42.204  30.600   0.949  1.00  0.00     0.153 C
HETATM    6  C10 UNL     1      41.267  29.455   1.358  1.00  0.00     0.044 C
HETATM    7  C11 UNL     1      42.173  28.263   1.480  1.00  0.00     0.042 C
HETATM    8  C12 UNL     1      42.549  27.788   0.122  1.00  0.00     0.129 C
HETATM    9  N1  UNL     1      43.949  27.829  -0.051  1.00  0.00    -0.389 N
HETATM   10  C16 UNL     1      44.562  29.078   0.185  1.00  0.00     0.137 C
HETATM   11  C17 UNL     1      44.378  29.420   1.653  1.00  0.00     0.037 C
HETATM   12  C18 UNL     1      45.632  29.825   2.348  1.00  0.00     0.023 C
ENDROOT
BRANCH   1  13
HETATM   13  C5  UNL     1      43.632  27.503   3.252  1.00  0.00     0.067 C
BRANCH  13  14
HETATM   14  C4  UNL     1      44.773  27.656   4.146  1.00  0.00    -0.022 C
HETATM   15  C2  UNL     1      45.944  27.028   3.956  1.00  0.00    -0.091 C
HETATM   16  C1  UNL     1      47.042  27.251   4.926  1.00  0.00     0.042 C
HETATM   17  C3  UNL     1      46.122  26.134   2.802  1.00  0.00     0.042 C
ENDBRANCH  13  14
ENDBRANCH   1  13
BRANCH   5  18
HETATM   18  O2  UNL     1      41.498  31.772   1.239  1.00  0.00    -0.393 OA
ATOM     19  H2  UNL     1      40.755  31.529   1.778  1.00  0.00     0.210 HD
ENDBRANCH   5  18
BRANCH   9  20
HETATM   20  C13 UNL     1      44.557  26.926  -0.938  1.00  0.00     0.092 C
BRANCH  20  21
HETATM   21  C14 UNL     1      44.967  27.489  -2.256  1.00  0.00     0.183 A
HETATM   22  C15 UNL     1      44.773  26.631  -3.447  1.00  0.00     0.206 A
HETATM   23  O3  UNL     1      43.886  27.733  -3.179  1.00  0.00    -0.376 OA
ENDBRANCH  20  21
ENDBRANCH   9  20
TORSDOF 5
ENDMDL