MODEL 3
REMARK VINA RESULT: -6.184366663      2.156      6.791
REMARK  5 active torsions:
REMARK  status: ('A' for Active; 'I' for Inactive)
REMARK    1  A    between atoms: C2_2  and  N1_3
REMARK    2  A    between atoms: N1_3  and  C3_5
REMARK    3  A    between atoms: C4_6  and  C5_7
REMARK       I    between atoms: C5_7  and  N2_9
REMARK    4  A    between atoms: C11_17  and  O2_18
REMARK    5  A    between atoms: C13_20  and  O3_21
ROOT
HETATM    1  C3  UNL     1      44.131  29.057   1.031  1.00  0.00     0.058 A
HETATM    2  C4  UNL     1      42.869  29.553   1.263  1.00  0.00     0.074 A
HETATM    3  C8  UNL     1      42.317  29.413   2.537  1.00  0.00     0.107 A
HETATM    4  N3  UNL     1      43.005  28.806   3.516  1.00  0.00    -0.364 N
ATOM      5  H3  UNL     1      42.578  28.718   4.437  1.00  0.00     0.165 HD
HETATM    6  C9  UNL     1      44.238  28.312   3.322  1.00  0.00     0.047 A
HETATM    7  C10 UNL     1      44.951  27.685   4.326  1.00  0.00     0.070 A
HETATM    8  C11 UNL     1      46.229  27.172   4.127  1.00  0.00     0.103 A
HETATM    9  C13 UNL     1      46.787  27.302   2.880  1.00  0.00     0.102 A
HETATM   10  C15 UNL     1      46.098  27.918   1.871  1.00  0.00     0.055 A
HETATM   11  C16 UNL     1      44.812  28.428   2.095  1.00  0.00     0.021 A
ENDROOT
BRANCH   2  12
HETATM   12  C5  UNL     1      42.051  30.239   0.258  1.00  0.00     0.256 C
HETATM   13  O1  UNL     1      41.215  29.551  -0.427  1.00  0.00    -0.267 OA
HETATM   14  N2  UNL     1      42.177  31.628   0.039  1.00  0.00    -0.357 N
HETATM   15  C6  UNL     1      43.138  32.365   0.835  1.00  0.00     0.152 C
HETATM   16  C7  UNL     1      41.411  32.366  -0.924  1.00  0.00     0.152 C
ENDBRANCH   2  12
BRANCH   1  17
HETATM   17  N1  UNL     1      44.723  29.110  -0.051  1.00  0.00    -0.389 N
ATOM     18  H1  UNL     1      45.539  29.710   0.074  1.00  0.00     0.159 HD
BRANCH  17  19
HETATM   19  C2  UNL     1      44.721  28.683  -1.357  1.00  0.00     0.115 C
HETATM   20  C1  UNL     1      44.426  27.170  -1.506  1.00  0.00     0.026 C
ENDBRANCH  17  19
ENDBRANCH   1  17
BRANCH   9  21
HETATM   21  O3  UNL     1      48.055  26.812   2.621  1.00  0.00    -0.353 OA
HETATM   22  C14 UNL     1      49.226  27.500   2.975  1.00  0.00     0.210 C
ENDBRANCH   9  21
BRANCH   8  23
HETATM   23  O2  UNL     1      46.945  26.550   5.118  1.00  0.00    -0.353 OA
HETATM   24  C12 UNL     1      47.943  27.282   5.802  1.00  0.00     0.210 C
ENDBRANCH   8  23
TORSDOF 5
ENDMDL