MODEL 1
REMARK VINA RESULT: -7.015570436      0.000      0.000
REMARK  13 active torsions:
REMARK  status: ('A' for Active; 'I' for Inactive)
REMARK    1  A    between atoms: N1_1  and  C1_4
REMARK    2  A    between atoms: C1_4  and  C2_5
REMARK    3  A    between atoms: C2_5  and  N2_6
REMARK    4  A    between atoms: N2_6  and  C3_8
REMARK    5  A    between atoms: C6_11  and  N3_12
REMARK    6  A    between atoms: N3_12  and  N4_14
REMARK    7  A    between atoms: N4_14  and  C7_16
REMARK    8  A    between atoms: C7_16  and  C8_17
REMARK    9  A    between atoms: C8_17  and  N5_18
REMARK   10  A    between atoms: C10_25  and  C11_26
REMARK   11  A    between atoms: C11_26  and  N7_27
REMARK   12  A    between atoms: N7_27  and  N8_28
REMARK   13  A    between atoms: N10_33  and  O1_34
ROOT
HETATM    1  C3  UNL     1      29.521  23.262  45.726  1.00  0.00     0.062 A
HETATM    2  C4  UNL     1      30.506  23.484  46.717  1.00  0.00     0.034 A
HETATM    3  C5  UNL     1      31.703  22.828  46.663  1.00  0.00     0.036 A
HETATM    4  C6  UNL     1      32.017  21.933  45.669  1.00  0.00     0.077 A
HETATM    5  C9  UNL     1      31.052  21.693  44.682  1.00  0.00     0.095 A
HETATM    6  N6  UNL     1      31.334  20.813  43.706  1.00  0.00    -0.340 N
ATOM      7  H6  UNL     1      32.238  20.341  43.700  1.00  0.00     0.167 HD
HETATM    8  C10 UNL     1      30.441  20.549  42.739  1.00  0.00     0.115 A
HETATM    9  N9  UNL     1      29.273  21.192  42.798  1.00  0.00    -0.261 N
ATOM     10  H9  UNL     1      28.582  21.001  42.073  1.00  0.00     0.191 HD
HETATM   11  N10 UNL     1      28.960  22.067  43.750  1.00  0.00    -0.158 N
HETATM   12  C12 UNL     1      29.825  22.359  44.728  1.00  0.00     0.136 A
ENDROOT
BRANCH   4  13
HETATM   13  N3  UNL     1      33.286  21.376  45.484  1.00  0.00    -0.303 N
ATOM     14  H3  UNL     1      33.225  20.505  44.956  1.00  0.00     0.186 HD
BRANCH  13  15
HETATM   15  N4  UNL     1      34.544  21.650  45.796  1.00  0.00    -0.334 N
ATOM     16  H4  UNL     1      35.233  21.747  45.050  1.00  0.00     0.180 HD
BRANCH  15  17
HETATM   17  C7  UNL     1      34.952  21.810  47.138  1.00  0.00     0.166 C
BRANCH  17  18
HETATM   18  C8  UNL     1      35.247  23.308  47.414  1.00  0.00     0.250 C
BRANCH  18  19
HETATM   19  N5  UNL     1      35.243  24.159  46.291  1.00  0.00    -0.078 N
ATOM     20  H53 UNL     1      34.456  23.928  45.685  1.00  0.00     0.274 HD
ATOM     21  H52 UNL     1      34.986  25.104  46.575  1.00  0.00     0.274 HD
ATOM     22  H51 UNL     1      36.104  24.185  45.744  1.00  0.00     0.274 HD
ENDBRANCH  18  19
ENDBRANCH  17  18
ENDBRANCH  15  17
ENDBRANCH  13  15
ENDBRANCH   4  13
BRANCH   1  23
HETATM   23  N2  UNL     1      28.380  24.100  45.731  1.00  0.00    -0.383 N
ATOM     24  H2  UNL     1      27.748  24.099  44.929  1.00  0.00     0.160 HD
BRANCH  23  25
HETATM   25  C2  UNL     1      28.098  24.965  46.874  1.00  0.00     0.163 C
BRANCH  25  26
HETATM   26  C1  UNL     1      26.665  24.795  47.275  1.00  0.00     0.072 C
BRANCH  26  27
HETATM   27  N1  UNL     1      26.266  25.127  48.474  1.00  0.00    -0.410 N
ATOM     28  H12 UNL     1      26.409  26.086  48.791  1.00  0.00     0.155 HD
ATOM     29  H11 UNL     1      25.821  24.440  49.082  1.00  0.00     0.155 HD
ENDBRANCH  26  27
ENDBRANCH  25  26
ENDBRANCH  23  25
ENDBRANCH   1  23
BRANCH   8  30
HETATM   30  C11 UNL     1      30.759  19.561  41.653  1.00  0.00     0.212 C
BRANCH  30  31
HETATM   31  N7  UNL     1      31.848  20.076  40.890  1.00  0.00    -0.141 NA
BRANCH  31  32
HETATM   32  N8  UNL     1      33.061  19.457  41.235  1.00  0.00    -0.348 N
ATOM     33  H82 UNL     1      33.115  18.563  41.725  1.00  0.00     0.172 HD
ATOM     34  H81 UNL     1      33.864  20.011  40.937  1.00  0.00     0.172 HD
ENDBRANCH  31  32
ENDBRANCH  30  31
ENDBRANCH   8  30
BRANCH  11  35
HETATM   35  O1  UNL     1      27.722  22.655  43.729  1.00  0.00    -0.267 OA
ATOM     36  H1  UNL     1      27.164  22.579  44.493  1.00  0.00     0.247 HD
ENDBRANCH  11  35
TORSDOF 13
ENDMDL