MODEL 3
REMARK VINA RESULT: -7.096703110      2.977      6.791
REMARK  13 active torsions:
REMARK  status: ('A' for Active; 'I' for Inactive)
REMARK    1  A    between atoms: N1_1  and  C1_4
REMARK    2  A    between atoms: C2_7  and  N3_8
REMARK    3  A    between atoms: N3_8  and  C3_10
REMARK    4  A    between atoms: C3_10  and  C4_11
REMARK    5  A    between atoms: C4_11  and  C5_12
REMARK    6  A    between atoms: C5_12  and  N4_13
REMARK    7  A    between atoms: N4_13  and  C6_15
REMARK    8  A    between atoms: C6_15  and  C7_16
REMARK    9  A    between atoms: C7_16  and  C8_17
REMARK   10  A    between atoms: C8_17  and  N5_18
REMARK   11  A    between atoms: N6_22  and  N7_23
REMARK   12  A    between atoms: C10_29  and  N9_30
REMARK   13  A    between atoms: N10_32  and  N11_34
ROOT
HETATM    1  C1  UNL     1      30.446  19.125  46.988  1.00  0.00     0.146 A
HETATM    2  N2  UNL     1      30.584  18.618  45.744  1.00  0.00    -0.173 N
ATOM      3  H2  UNL     1      29.851  18.000  45.397  1.00  0.00     0.186 HD
HETATM    4  C2  UNL     1      31.619  18.874  44.939  1.00  0.00     0.702 A
HETATM    5  N6  UNL     1      32.608  19.697  45.393  1.00  0.00    -0.073 N
HETATM    6  C9  UNL     1      32.513  20.225  46.625  1.00  0.00     0.191 A
HETATM    7  N8  UNL     1      33.311  21.052  47.337  1.00  0.00    -0.170 N
ATOM      8  H8  UNL     1      34.194  21.437  47.003  1.00  0.00     0.186 HD
HETATM    9  C10 UNL     1      32.772  21.299  48.559  1.00  0.00     0.700 A
HETATM   10  N12 UNL     1      31.634  20.624  48.609  1.00  0.00    -0.183 N
ATOM     11  H12 UNL     1      30.996  20.612  49.405  1.00  0.00     0.184 HD
HETATM   12  C11 UNL     1      31.439  19.955  47.450  1.00  0.00     0.140 A
ENDROOT
BRANCH   4  13
HETATM   13  N3  UNL     1      31.753  18.398  43.730  1.00  0.00    -0.224 N
ATOM     14  H3  UNL     1      32.615  17.923  43.461  1.00  0.00     0.177 HD
BRANCH  13  15
HETATM   15  C3  UNL     1      30.687  18.543  42.779  1.00  0.00     0.139 C
BRANCH  15  16
HETATM   16  C4  UNL     1      30.773  19.973  42.213  1.00  0.00     0.039 C
BRANCH  16  17
HETATM   17  C5  UNL     1      29.346  20.537  42.186  1.00  0.00     0.115 C
BRANCH  17  18
HETATM   18  N4  UNL     1      28.995  20.962  43.480  1.00  0.00    -0.421 N
ATOM     19  H4  UNL     1      28.208  20.556  43.986  1.00  0.00     0.153 HD
BRANCH  18  20
HETATM   20  C6  UNL     1      29.807  21.998  44.046  1.00  0.00     0.115 C
BRANCH  20  21
HETATM   21  C7  UNL     1      29.371  22.345  45.457  1.00  0.00     0.046 C
BRANCH  21  22
HETATM   22  C8  UNL     1      30.263  23.324  46.149  1.00  0.00     0.231 C
BRANCH  22  23
HETATM   23  N5  UNL     1      29.388  24.400  46.647  1.00  0.00    -0.079 N
ATOM     24  H53 UNL     1      29.329  25.198  46.016  1.00  0.00     0.274 HD
ATOM     25  H52 UNL     1      28.398  24.155  46.633  1.00  0.00     0.274 HD
ATOM     26  H51 UNL     1      29.733  24.642  47.576  1.00  0.00     0.274 HD
ENDBRANCH  22  23
ENDBRANCH  21  22
ENDBRANCH  20  21
ENDBRANCH  18  20
ENDBRANCH  17  18
ENDBRANCH  16  17
ENDBRANCH  15  16
ENDBRANCH  13  15
ENDBRANCH   4  13
BRANCH   5  27
HETATM   27  N7  UNL     1      33.734  20.010  44.606  1.00  0.00    -0.322 N
ATOM     28  H72 UNL     1      34.597  19.489  44.756  1.00  0.00     0.178 HD
ATOM     29  H71 UNL     1      33.706  20.739  43.894  1.00  0.00     0.178 HD
ENDBRANCH   5  27
BRANCH   1  30
HETATM   30  N1  UNL     1      29.426  18.827  47.682  1.00  0.00    -0.383 N
ATOM     31  H12 UNL     1      28.521  18.612  47.263  1.00  0.00     0.157 HD
ATOM     32  H11 UNL     1      29.495  18.797  48.699  1.00  0.00     0.157 HD
ENDBRANCH   1  30
BRANCH   9  33
HETATM   33  N9  UNL     1      33.382  22.138  49.548  1.00  0.00    -0.118 N
HETATM   34  N10 UNL     1      33.332  23.376  49.581  1.00  0.00    -0.235 N
ATOM     35  H10 UNL     1      33.815  23.836  50.352  1.00  0.00     0.208 HD
ATOM     36  H9  UNL     1      33.904  21.675  50.292  1.00  0.00     0.207 HD
BRANCH  34  37
HETATM   37  N11 UNL     1      32.690  24.187  48.679  1.00  0.00    -0.330 N
ATOM     38 2H11 UNL     1      32.666  23.847  47.717  1.00  0.00     0.178 HD
ATOM     39 1H11 UNL     1      32.244  25.081  48.882  1.00  0.00     0.178 HD
ENDBRANCH  34  37
ENDBRANCH   9  33
TORSDOF 13
ENDMDL