MODEL 2
REMARK VINA RESULT: -7.350283445      3.074      8.338
REMARK  12 active torsions:
REMARK  status: ('A' for Active; 'I' for Inactive)
REMARK    1  A    between atoms: N1_1  and  C1_4
REMARK    2  A    between atoms: C3_8  and  N3_9
REMARK    3  A    between atoms: N3_9  and  C4_11
REMARK    4  A    between atoms: C4_11  and  N4_12
REMARK    5  A    between atoms: C4_11  and  C5_16
REMARK    6  A    between atoms: C5_16  and  C6_17
REMARK    7  A    between atoms: C6_17  and  N5_18
REMARK    8  A    between atoms: N5_18  and  C7_21
REMARK    9  A    between atoms: C7_21  and  O1_22
REMARK   10  A    between atoms: C7_21  and  N6_24
REMARK   11  A    between atoms: N6_24  and  C8_27
REMARK   12  A    between atoms: C8_27  and  C9_28
ROOT
HETATM    1  C5  UNL     1      31.486  19.732  44.932  1.00  0.00     0.081 C
ENDROOT
BRANCH   1   2
HETATM    2  C4  UNL     1      32.920  20.112  44.873  1.00  0.00     0.283 C
BRANCH   2   3
HETATM    3  N3  UNL     1      33.518  20.124  46.205  1.00  0.00    -0.360 N
ATOM      4  H3  UNL     1      34.012  19.306  46.563  1.00  0.00     0.161 HD
BRANCH   3   5
HETATM    5  C3  UNL     1      33.398  21.293  46.984  1.00  0.00     0.061 A
HETATM    6  C2  UNL     1      33.118  21.187  48.351  1.00  0.00     0.136 A
HETATM    7  N2  UNL     1      32.986  22.278  49.122  1.00  0.00    -0.200 N
HETATM    8  C1  UNL     1      33.120  23.508  48.605  1.00  0.00     0.675 A
ATOM      9  H2  UNL     1      32.781  22.170  50.116  1.00  0.00     0.183 HD
HETATM   10  N9  UNL     1      33.388  23.634  47.295  1.00  0.00    -0.200 N
HETATM   11  C13 UNL     1      33.530  22.550  46.475  1.00  0.00     0.136 A
ATOM     12  H9  UNL     1      33.489  24.569  46.900  1.00  0.00     0.183 HD
BRANCH   8  13
HETATM   13  N1  UNL     1      33.003  24.587  49.301  1.00  0.00    -0.234 N
ATOM     14  H12 UNL     1      32.888  24.492  50.310  1.00  0.00     0.174 HD
ATOM     15  H11 UNL     1      33.020  25.523  48.894  1.00  0.00     0.174 HD
ENDBRANCH   8  13
ENDBRANCH   3   5
ENDBRANCH   2   3
BRANCH   2  16
HETATM   16  N4  UNL     1      33.722  19.355  44.004  1.00  0.00    -0.058 N
ATOM     17  H43 UNL     1      34.648  19.178  44.391  1.00  0.00     0.276 HD
ATOM     18  H42 UNL     1      33.406  18.387  43.934  1.00  0.00     0.276 HD
ATOM     19  H41 UNL     1      33.766  19.813  43.094  1.00  0.00     0.276 HD
ENDBRANCH   2  16
ENDBRANCH   1   2
BRANCH   1  20
HETATM   20  C6  UNL     1      30.623  20.606  44.101  1.00  0.00     0.241 C
BRANCH  20  21
HETATM   21  N5  UNL     1      29.790  21.459  44.865  1.00  0.00    -0.023 N
ATOM     22  H52 UNL     1      28.829  21.455  44.523  1.00  0.00     0.282 HD
ATOM     23  H51 UNL     1      29.621  21.086  45.799  1.00  0.00     0.282 HD
BRANCH  21  24
HETATM   24  C7  UNL     1      30.335  22.793  44.913  1.00  0.00     0.522 C
BRANCH  24  25
HETATM   25  O1  UNL     1      30.111  23.359  43.648  1.00  0.00    -0.349 OA
ATOM     26  H1  UNL     1      30.343  24.278  43.720  1.00  0.00     0.213 HD
ENDBRANCH  24  25
BRANCH  24  27
HETATM   27  N6  UNL     1      29.702  23.532  45.952  1.00  0.00    -0.016 N
ATOM     28  H62 UNL     1      30.017  23.228  46.874  1.00  0.00     0.282 HD
ATOM     29  H61 UNL     1      30.033  24.495  45.983  1.00  0.00     0.282 HD
BRANCH  27  30
HETATM   30  C8  UNL     1      28.285  23.470  45.838  1.00  0.00     0.313 C
BRANCH  30  31
HETATM   31  C9  UNL     1      27.709  24.775  46.286  1.00  0.00     0.107 A
HETATM   32  N7  UNL     1      26.662  24.833  47.133  1.00  0.00    -0.354 N
HETATM   33  C10 UNL     1      26.158  26.016  47.527  1.00  0.00     0.090 A
ATOM     34  H7  UNL     1      26.247  23.968  47.479  1.00  0.00     0.166 HD
HETATM   35  C11 UNL     1      26.673  27.221  47.097  1.00  0.00     0.034 A
HETATM   36  C12 UNL     1      27.751  27.147  46.225  1.00  0.00     0.090 A
HETATM   37  N8  UNL     1      28.223  25.940  45.857  1.00  0.00    -0.354 N
ATOM     38  H8  UNL     1      29.017  25.909  45.216  1.00  0.00     0.166 HD
ENDBRANCH  30  31
ENDBRANCH  27  30
ENDBRANCH  24  27
ENDBRANCH  21  24
ENDBRANCH  20  21
ENDBRANCH   1  20
TORSDOF 12
ENDMDL