MODEL 2
REMARK VINA RESULT: -7.106732772      3.928      5.952
REMARK  11 active torsions:
REMARK  status: ('A' for Active; 'I' for Inactive)
REMARK    1  A    between atoms: C2_3  and  N2_4
REMARK    2  A    between atoms: C2_3  and  C3_8
REMARK    3  A    between atoms: N3_9  and  C4_11
REMARK    4  A    between atoms: C5_12  and  N4_13
REMARK    5  A    between atoms: N4_13  and  C6_15
REMARK    6  A    between atoms: C6_15  and  C7_16
REMARK    7  A    between atoms: C6_15  and  C8_19
REMARK    8  A    between atoms: C7_16  and  O1_17
REMARK    9  A    between atoms: C8_19  and  O2_20
REMARK   10  A    between atoms: C10_23  and  N5_24
REMARK   11  A    between atoms: N5_24  and  C11_26
ROOT
HETATM    1  N1  UNL     1      33.267  24.165  47.216  1.00  0.00    -0.195 NA
HETATM    2  C1  UNL     1      33.702  23.267  46.603  1.00  0.00     0.098 C
HETATM    3  C2  UNL     1      34.248  22.142  45.861  1.00  0.00     0.327 C
ENDROOT
BRANCH   3   4
HETATM    4  N2  UNL     1      34.923  21.232  46.772  1.00  0.00    -0.058 N
ATOM      5  H23 UNL     1      34.819  20.257  46.488  1.00  0.00     0.276 HD
ATOM      6  H22 UNL     1      35.938  21.299  46.698  1.00  0.00     0.276 HD
ATOM      7  H21 UNL     1      34.597  21.391  47.725  1.00  0.00     0.276 HD
ENDBRANCH   3   4
BRANCH   3   8
HETATM    8  C3  UNL     1      33.147  21.371  45.220  1.00  0.00     0.108 C
HETATM    9  N3  UNL     1      33.338  20.231  44.671  1.00  0.00    -0.362 N
ATOM     10  H3  UNL     1      34.263  19.804  44.651  1.00  0.00     0.165 HD
BRANCH   9  11
HETATM   11  C4  UNL     1      32.207  19.574  44.083  1.00  0.00     0.102 A
HETATM   12  C5  UNL     1      31.239  18.998  44.883  1.00  0.00     0.062 A
HETATM   13  C9  UNL     1      30.188  18.387  44.281  1.00  0.00     0.080 A
HETATM   14  C10 UNL     1      30.106  18.355  42.891  1.00  0.00     0.105 A
HETATM   15  N6  UNL     1      31.051  18.918  42.123  1.00  0.00    -0.327 N
HETATM   16  C14 UNL     1      32.095  19.524  42.717  1.00  0.00     0.130 A
ATOM     17  H6  UNL     1      30.978  18.888  41.106  1.00  0.00     0.169 HD
HETATM   18  N7  UNL     1      32.993  20.060  41.945  1.00  0.00    -0.384 N
ATOM     19  H72 UNL     1      33.786  20.519  42.395  1.00  0.00     0.157 HD
ATOM     20  H71 UNL     1      32.910  20.023  40.929  1.00  0.00     0.157 HD
BRANCH  12  21
HETATM   21  N4  UNL     1      31.406  19.061  46.298  1.00  0.00    -0.379 N
ATOM     22  H4  UNL     1      32.174  18.524  46.702  1.00  0.00     0.160 HD
BRANCH  21  23
HETATM   23  C6  UNL     1      30.588  19.812  47.195  1.00  0.00     0.129 C
BRANCH  23  24
HETATM   24  C7  UNL     1      29.771  18.837  48.065  1.00  0.00     0.191 C
BRANCH  24  25
HETATM   25  O1  UNL     1      29.809  19.210  49.394  1.00  0.00    -0.399 OA
ATOM     26  H1  UNL     1      30.585  19.727  49.580  1.00  0.00     0.209 HD
ENDBRANCH  24  25
ENDBRANCH  23  24
BRANCH  23  27
HETATM   27  C8  UNL     1      31.411  20.637  48.174  1.00  0.00     0.191 C
BRANCH  27  28
HETATM   28  O2  UNL     1      32.656  20.041  48.384  1.00  0.00    -0.399 OA
ATOM     29  H2  UNL     1      33.214  20.615  48.897  1.00  0.00     0.209 HD
ENDBRANCH  27  28
ENDBRANCH  23  27
ENDBRANCH  21  23
ENDBRANCH  12  21
BRANCH  14  30
HETATM   30  N5  UNL     1      28.966  17.706  42.347  1.00  0.00    -0.372 N
ATOM     31  H5  UNL     1      28.880  16.691  42.396  1.00  0.00     0.161 HD
BRANCH  30  32
HETATM   32  C11 UNL     1      27.936  18.493  41.727  1.00  0.00     0.083 A
HETATM   33  C12 UNL     1      27.387  18.080  40.373  1.00  0.00     0.027 A
HETATM   34  C13 UNL     1      26.550  17.961  41.608  1.00  0.00     0.027 A
ENDBRANCH  30  32
ENDBRANCH  14  30
ENDBRANCH   9  11
ENDBRANCH   3   8
TORSDOF 11
ENDMDL