MODEL 1
REMARK VINA RESULT: -7.591239097      0.000      0.000
REMARK  9 active torsions:
REMARK  status: ('A' for Active; 'I' for Inactive)
REMARK       I    between atoms: N1_1  and  C1_5
REMARK       I    between atoms: C1_5  and  N2_6
REMARK       I    between atoms: C1_5  and  N3_10
REMARK    1  A    between atoms: N3_10  and  C2_13
REMARK    2  A    between atoms: C2_13  and  C3_14
REMARK    3  A    between atoms: C3_14  and  C4_15
REMARK    4  A    between atoms: C4_15  and  N4_16
REMARK    5  A    between atoms: C4_15  and  C8_31
REMARK    6  A    between atoms: N4_16  and  C5_19
REMARK    7  A    between atoms: C5_19  and  O1_20
REMARK    8  A    between atoms: C5_19  and  C6_22
REMARK    9  A    between atoms: N5_24  and  O2_25
ROOT
HETATM    1  C4  UNL     1      30.024  23.473  45.523  1.00  0.00     0.224 C
ENDROOT
BRANCH   1   2
HETATM    2  C3  UNL     1      30.975  23.267  46.654  1.00  0.00     0.065 C
BRANCH   2   3
HETATM    3  C2  UNL     1      32.386  22.933  46.244  1.00  0.00     0.239 C
BRANCH   3   4
HETATM    4  N3  UNL     1      33.221  23.183  47.415  1.00  0.00    -0.022 N
HETATM    5  C1  UNL     1      34.630  23.065  47.091  1.00  0.00     0.575 C
HETATM    6  N1  UNL     1      34.982  21.766  46.595  1.00  0.00    -0.026 N
HETATM    7  N2  UNL     1      35.023  24.108  46.177  1.00  0.00    -0.026 N
ATOM      8  H13 UNL     1      34.601  21.607  45.662  1.00  0.00     0.278 HD
ATOM      9  H12 UNL     1      35.977  21.710  46.372  1.00  0.00     0.278 HD
ATOM     10  H11 UNL     1      34.704  21.028  47.241  1.00  0.00     0.278 HD
ATOM     11  H23 UNL     1      36.017  24.051  45.954  1.00  0.00     0.278 HD
ATOM     12  H22 UNL     1      34.642  23.949  45.244  1.00  0.00     0.278 HD
ATOM     13  H21 UNL     1      34.773  25.032  46.529  1.00  0.00     0.278 HD
ATOM     14  H32 UNL     1      32.964  22.579  48.195  1.00  0.00     0.281 HD
ATOM     15  H31 UNL     1      33.008  24.085  47.840  1.00  0.00     0.281 HD
ENDBRANCH   3   4
ENDBRANCH   2   3
ENDBRANCH   1   2
BRANCH   1  16
HETATM   16  N4  UNL     1      29.389  22.240  45.085  1.00  0.00    -0.035 N
ATOM     17  H42 UNL     1      29.730  21.448  45.631  1.00  0.00     0.281 HD
ATOM     18  H41 UNL     1      28.407  22.228  45.359  1.00  0.00     0.281 HD
BRANCH  16  19
HETATM   19  C5  UNL     1      29.523  21.980  43.687  1.00  0.00     0.373 C
BRANCH  19  20
HETATM   20  O1  UNL     1      28.367  22.417  43.039  1.00  0.00    -0.365 OA
ATOM     21  H1  UNL     1      27.916  21.662  42.683  1.00  0.00     0.212 HD
ENDBRANCH  19  20
BRANCH  19  22
HETATM   22  C6  UNL     1      29.527  20.485  43.534  1.00  0.00     0.102 A
HETATM   23  C7  UNL     1      30.499  19.612  43.950  1.00  0.00     0.175 A
HETATM   24  N5  UNL     1      30.101  18.391  43.618  1.00  0.00    -0.158 N
HETATM   25  N6  UNL     1      28.924  18.519  43.020  1.00  0.00    -0.216 N
HETATM   26  N7  UNL     1      28.559  19.774  42.958  1.00  0.00    -0.283 N
ATOM     27  H6  UNL     1      28.376  17.740  42.656  1.00  0.00     0.211 HD
ATOM     28  H7  UNL     1      27.699  20.137  42.548  1.00  0.00     0.188 HD
BRANCH  24  29
HETATM   29  O2  UNL     1      30.741  17.194  43.828  1.00  0.00    -0.267 OA
ATOM     30  H2  UNL     1      30.480  16.326  43.547  1.00  0.00     0.247 HD
ENDBRANCH  24  29
ENDBRANCH  19  22
ENDBRANCH  16  19
ENDBRANCH   1  16
BRANCH   1  31
HETATM   31  C8  UNL     1      28.869  24.357  45.905  1.00  0.00    -0.028 A
HETATM   32  C9  UNL     1      27.640  23.770  46.225  1.00  0.00     0.009 A
HETATM   33  C10 UNL     1      26.551  24.485  46.613  1.00  0.00     0.001 A
HETATM   34  C11 UNL     1      26.641  25.858  46.701  1.00  0.00     0.000 A
HETATM   35  C12 UNL     1      27.839  26.463  46.391  1.00  0.00     0.001 A
HETATM   36  C13 UNL     1      28.952  25.716  45.995  1.00  0.00     0.009 A
ENDBRANCH   1  31
TORSDOF 9
ENDMDL