MODEL 5
REMARK VINA RESULT: -7.427141054      1.880      2.025
REMARK  11 active torsions:
REMARK  status: ('A' for Active; 'I' for Inactive)
REMARK    1  A    between atoms: N1_1  and  C1_4
REMARK    2  A    between atoms: C2_7  and  N3_8
REMARK    3  A    between atoms: N3_8  and  C3_10
REMARK    4  A    between atoms: C3_10  and  C4_11
REMARK    5  A    between atoms: C4_11  and  N4_12
REMARK    6  A    between atoms: N4_12  and  C5_15
REMARK    7  A    between atoms: C5_15  and  C6_16
REMARK    8  A    between atoms: C6_16  and  C7_17
REMARK    9  A    between atoms: C7_17  and  N5_18
REMARK   10  A    between atoms: C9_25  and  N7_26
REMARK   11  A    between atoms: N7_26  and  O1_30
ROOT
HETATM    1  C1  UNL     1      29.839  19.922  44.041  1.00  0.00     0.678 A
HETATM    2  N2  UNL     1      29.366  21.053  44.585  1.00  0.00    -0.175 N
ATOM      3  H2  UNL     1      28.363  21.234  44.536  1.00  0.00     0.186 HD
HETATM    4  C2  UNL     1      30.152  21.957  45.189  1.00  0.00     0.146 A
HETATM    5  C8  UNL     1      31.520  21.686  45.242  1.00  0.00     0.124 A
HETATM    6  N6  UNL     1      32.317  22.582  45.844  1.00  0.00    -0.182 N
ATOM      7  H6  UNL     1      31.902  23.424  46.241  1.00  0.00     0.184 HD
HETATM    8  C9  UNL     1      33.646  22.400  45.940  1.00  0.00     0.726 A
HETATM    9  N9  UNL     1      34.144  21.282  45.406  1.00  0.00    -0.171 N
ATOM     10  H9  UNL     1      35.151  21.130  45.470  1.00  0.00     0.186 HD
HETATM   11  C10 UNL     1      33.393  20.327  44.778  1.00  0.00     0.144 A
HETATM   12  N10 UNL     1      33.919  19.289  44.292  1.00  0.00    -0.383 N
ATOM     13 1H10 UNL     1      33.359  18.577  43.824  1.00  0.00     0.157 HD
ATOM     14 2H10 UNL     1      34.927  19.148  44.363  1.00  0.00     0.157 HD
HETATM   15  C11 UNL     1      32.027  20.518  44.683  1.00  0.00     0.124 A
HETATM   16  N11 UNL     1      31.180  19.664  44.096  1.00  0.00    -0.186 N
ATOM     17  H11 UNL     1      31.542  18.804  43.683  1.00  0.00     0.184 HD
ENDROOT
BRANCH   4  18
HETATM   18  N3  UNL     1      29.750  23.032  45.717  1.00  0.00    -0.372 N
ATOM     19  H3  UNL     1      30.487  23.616  46.110  1.00  0.00     0.161 HD
BRANCH  18  20
HETATM   20  C3  UNL     1      28.439  23.558  45.853  1.00  0.00     0.148 C
BRANCH  20  21
HETATM   21  C4  UNL     1      28.504  24.766  46.786  1.00  0.00     0.251 C
BRANCH  21  22
HETATM   22  N4  UNL     1      27.548  25.778  46.493  1.00  0.00    -0.074 N
ATOM     23  H42 UNL     1      26.929  25.480  45.740  1.00  0.00     0.277 HD
ATOM     24  H41 UNL     1      26.869  25.860  47.251  1.00  0.00     0.277 HD
BRANCH  22  25
HETATM   25  C5  UNL     1      28.131  27.061  46.193  1.00  0.00     0.234 C
BRANCH  25  26
HETATM   26  C6  UNL     1      27.101  28.127  46.513  1.00  0.00     0.055 C
BRANCH  26  27
HETATM   27  C7  UNL     1      25.909  27.534  47.241  1.00  0.00     0.231 C
BRANCH  27  28
HETATM   28  N5  UNL     1      24.689  27.737  46.485  1.00  0.00    -0.079 N
ATOM     29  H53 UNL     1      24.874  27.828  45.487  1.00  0.00     0.274 HD
ATOM     30  H52 UNL     1      24.117  26.893  46.459  1.00  0.00     0.274 HD
ATOM     31  H51 UNL     1      24.166  28.535  46.846  1.00  0.00     0.274 HD
ENDBRANCH  27  28
ENDBRANCH  26  27
ENDBRANCH  25  26
ENDBRANCH  22  25
ENDBRANCH  21  22
ENDBRANCH  20  21
ENDBRANCH  18  20
ENDBRANCH   4  18
BRANCH   1  32
HETATM   32  N1  UNL     1      29.064  19.049  43.456  1.00  0.00    -0.234 N
ATOM     33  H12 UNL     1      29.160  18.067  43.713  1.00  0.00     0.174 HD
ATOM     34  H11 UNL     1      28.372  19.317  42.757  1.00  0.00     0.174 HD
ENDBRANCH   1  32
BRANCH   8  35
HETATM   35  N7  UNL     1      34.487  23.367  46.587  1.00  0.00     0.009 N
HETATM   36  N8  UNL     1      34.460  23.570  47.831  1.00  0.00    -0.304 N
ATOM     37  H82 UNL     1      33.819  23.029  48.411  1.00  0.00     0.180 HD
ATOM     38  H81 UNL     1      35.057  24.257  48.291  1.00  0.00     0.180 HD
BRANCH  35  39
HETATM   39  O1  UNL     1      35.342  24.089  45.813  1.00  0.00    -0.255 OA
ATOM     40  H1  UNL     1      35.943  24.683  46.248  1.00  0.00     0.247 HD
ENDBRANCH  35  39
ENDBRANCH   8  35
TORSDOF 11
ENDMDL