MODEL 5
REMARK VINA RESULT: -7.665837844      1.130      1.298
REMARK  10 active torsions:
REMARK  status: ('A' for Active; 'I' for Inactive)
REMARK    1  A    between atoms: N1_1  and  C1_5
REMARK    2  A    between atoms: C1_5  and  C2_6
REMARK    3  A    between atoms: C2_6  and  C3_7
REMARK    4  A    between atoms: C3_7  and  C4_8
REMARK    5  A    between atoms: C4_8  and  N2_9
REMARK    6  A    between atoms: C4_8  and  C6_20
REMARK       I    between atoms: N2_9  and  C5_11
REMARK       I    between atoms: C5_11  and  N3_12
REMARK       I    between atoms: C5_11  and  N4_16
REMARK    7  A    between atoms: C6_20  and  O1_21
REMARK    8  A    between atoms: C6_20  and  N5_23
REMARK    9  A    between atoms: N5_23  and  C7_25
REMARK   10  A    between atoms: C10_28  and  N6_29
ROOT
HETATM    1  C4  UNL     1      27.066  25.544  45.792  1.00  0.00     0.128 C
ENDROOT
BRANCH   1   2
HETATM    2  C3  UNL     1      26.268  24.826  44.728  1.00  0.00     0.031 C
BRANCH   2   3
HETATM    3  C2  UNL     1      25.425  25.835  43.979  1.00  0.00     0.029 C
BRANCH   3   4
HETATM    4  C1  UNL     1      26.283  26.630  42.998  1.00  0.00     0.230 C
BRANCH   4   5
HETATM    5  N1  UNL     1      26.264  26.010  41.688  1.00  0.00    -0.079 N
ATOM      6  H13 UNL     1      25.328  25.700  41.428  1.00  0.00     0.274 HD
ATOM      7  H12 UNL     1      26.411  26.691  40.943  1.00  0.00     0.274 HD
ATOM      8  H11 UNL     1      26.942  25.249  41.643  1.00  0.00     0.274 HD
ENDBRANCH   4   5
ENDBRANCH   3   4
ENDBRANCH   2   3
ENDBRANCH   1   2
BRANCH   1   9
HETATM    9  N2  UNL     1      26.386  25.860  46.955  1.00  0.00    -0.366 N
HETATM   10  C5  UNL     1      26.364  27.128  47.535  1.00  0.00     0.476 C
HETATM   11  N3  UNL     1      25.672  26.980  48.843  1.00  0.00    -0.033 N
HETATM   12  N4  UNL     1      25.624  28.162  46.861  1.00  0.00    -0.033 N
ATOM     13  H33 UNL     1      24.748  26.555  48.766  1.00  0.00     0.278 HD
ATOM     14  H32 UNL     1      26.089  26.268  49.443  1.00  0.00     0.278 HD
ATOM     15  H31 UNL     1      25.656  27.908  49.268  1.00  0.00     0.278 HD
ATOM     16  H43 UNL     1      25.954  28.239  45.899  1.00  0.00     0.278 HD
ATOM     17  H42 UNL     1      24.666  27.846  46.711  1.00  0.00     0.278 HD
ATOM     18  H41 UNL     1      25.608  29.090  47.286  1.00  0.00     0.278 HD
ATOM     19  H2  UNL     1      25.865  25.115  47.419  1.00  0.00     0.157 HD
ENDBRANCH   1   9
BRANCH   1  20
HETATM   20  C6  UNL     1      28.318  24.739  46.029  1.00  0.00     0.240 C
BRANCH  20  21
HETATM   21  O1  UNL     1      29.378  25.272  45.330  1.00  0.00    -0.375 OA
ATOM     22  H1  UNL     1      30.184  25.185  45.826  1.00  0.00     0.212 HD
ENDBRANCH  20  21
BRANCH  20  23
HETATM   23  N5  UNL     1      28.149  23.346  45.661  1.00  0.00    -0.362 N
ATOM     24  H5  UNL     1      27.212  22.946  45.706  1.00  0.00     0.162 HD
BRANCH  23  25
HETATM   25  C7  UNL     1      29.210  22.514  45.244  1.00  0.00     0.030 A
HETATM   26  C8  UNL     1      30.207  22.025  46.031  1.00  0.00     0.031 A
HETATM   27  C9  UNL     1      31.221  21.225  45.517  1.00  0.00     0.034 A
HETATM   28  C10 UNL     1      31.270  20.888  44.191  1.00  0.00     0.059 A
HETATM   29  C12 UNL     1      30.266  21.377  43.387  1.00  0.00     0.034 A
HETATM   30  C13 UNL     1      29.260  22.167  43.882  1.00  0.00     0.031 A
BRANCH  28  31
HETATM   31  N6  UNL     1      32.319  20.060  43.654  1.00  0.00    -0.235 N
HETATM   32  C11 UNL     1      32.348  19.487  42.455  1.00  0.00     0.226 A
HETATM   33  N7  UNL     1      33.515  18.811  42.384  1.00  0.00    -0.279 N
HETATM   34  N8  UNL     1      34.176  18.968  43.506  1.00  0.00    -0.227 N
ATOM     35  H7  UNL     1      33.833  18.264  41.584  1.00  0.00     0.189 HD
HETATM   36  N9  UNL     1      33.439  19.735  44.282  1.00  0.00    -0.220 N
ATOM     37  H8  UNL     1      35.089  18.572  43.734  1.00  0.00     0.210 HD
ATOM     38  H9  UNL     1      33.693  20.033  45.224  1.00  0.00     0.210 HD
ENDBRANCH  28  31
ENDBRANCH  23  25
ENDBRANCH  20  23
ENDBRANCH   1  20
TORSDOF 10
ENDMDL