MODEL 5
REMARK VINA RESULT: -7.722759884      1.961      2.371
REMARK  11 active torsions:
REMARK  status: ('A' for Active; 'I' for Inactive)
REMARK    1  A    between atoms: N1_1  and  C1_4
REMARK    2  A    between atoms: C4_14  and  C5_15
REMARK    3  A    between atoms: C5_15  and  N5_16
REMARK    4  A    between atoms: N6_20  and  N7_21
REMARK    5  A    between atoms: N7_21  and  C6_23
REMARK    6  A    between atoms: N8_24  and  C7_26
REMARK    7  A    between atoms: C7_26  and  C8_27
REMARK    8  A    between atoms: C8_27  and  C9_28
REMARK    9  A    between atoms: C9_28  and  C10_29
REMARK   10  A    between atoms: C10_29  and  N9_30
REMARK   11  A    between atoms: N9_30  and  O1_31
ROOT
HETATM    1  C1  UNL     1      29.912  19.961  41.220  1.00  0.00     0.679 A
HETATM    2  N2  UNL     1      31.130  19.587  40.847  1.00  0.00    -0.175 N
ATOM      3  H2  UNL     1      31.300  19.190  39.923  1.00  0.00     0.186 HD
HETATM    4  C2  UNL     1      32.123  19.747  41.723  1.00  0.00     0.145 A
HETATM    5  N3  UNL     1      33.330  19.384  41.377  1.00  0.00    -0.383 N
ATOM      6  H31 UNL     1      34.089  19.506  42.046  1.00  0.00     0.157 HD
ATOM      7  H32 UNL     1      33.476  18.989  40.448  1.00  0.00     0.157 HD
HETATM    8  C3  UNL     1      31.927  20.277  42.969  1.00  0.00     0.125 A
HETATM    9  N4  UNL     1      32.705  20.547  44.020  1.00  0.00    -0.337 N
ATOM     10  H4  UNL     1      33.711  20.383  44.082  1.00  0.00     0.167 HD
HETATM   11  C4  UNL     1      31.932  21.071  44.978  1.00  0.00     0.132 A
HETATM   12  N6  UNL     1      30.638  21.146  44.558  1.00  0.00    -0.222 N
HETATM   13  C11 UNL     1      30.624  20.656  43.313  1.00  0.00     0.174 A
HETATM   14  N10 UNL     1      29.638  20.488  42.422  1.00  0.00    -0.173 N
ATOM     15  H10 UNL     1      28.683  20.761  42.657  1.00  0.00     0.186 HD
ENDROOT
BRANCH  12  16
HETATM   16  N7  UNL     1      29.617  21.645  45.335  1.00  0.00    -0.287 N
ATOM     17  H7  UNL     1      28.974  20.964  45.739  1.00  0.00     0.188 HD
BRANCH  16  18
HETATM   18  C6  UNL     1      29.369  23.001  45.630  1.00  0.00     0.193 C
HETATM   19  N8  UNL     1      28.177  23.425  45.794  1.00  0.00    -0.385 N
ATOM     20  H8  UNL     1      27.414  22.754  45.706  1.00  0.00     0.160 HD
BRANCH  19  21
HETATM   21  C7  UNL     1      27.842  24.791  46.095  1.00  0.00     0.120 C
BRANCH  21  22
HETATM   22  C8  UNL     1      26.635  25.208  45.272  1.00  0.00     0.021 C
BRANCH  22  23
HETATM   23  C9  UNL     1      26.305  26.621  45.627  1.00  0.00     0.020 C
BRANCH  23  24
HETATM   24  C10 UNL     1      26.027  27.485  44.424  1.00  0.00     0.142 C
BRANCH  24  25
HETATM   25  N9  UNL     1      26.282  28.887  44.689  1.00  0.00    -0.104 NA
BRANCH  25  26
HETATM   26  O1  UNL     1      26.270  29.512  43.471  1.00  0.00    -0.296 OA
ATOM     27  H1  UNL     1      26.974  30.149  43.495  1.00  0.00     0.238 HD
ENDBRANCH  25  26
ENDBRANCH  24  25
ENDBRANCH  23  24
ENDBRANCH  22  23
ENDBRANCH  21  22
ENDBRANCH  19  21
ENDBRANCH  16  18
ENDBRANCH  12  16
BRANCH  11  28
HETATM   28  C5  UNL     1      32.464  21.495  46.302  1.00  0.00     0.307 C
BRANCH  28  29
HETATM   29  N5  UNL     1      33.786  21.004  46.542  1.00  0.00    -0.073 N
ATOM     30  H53 UNL     1      34.180  21.412  47.390  1.00  0.00     0.274 HD
ATOM     31  H52 UNL     1      33.769  20.025  46.824  1.00  0.00     0.274 HD
ATOM     32  H51 UNL     1      34.404  21.146  45.743  1.00  0.00     0.274 HD
ENDBRANCH  28  29
ENDBRANCH  11  28
BRANCH   1  33
HETATM   33  N1  UNL     1      28.944  19.814  40.390  1.00  0.00    -0.234 N
ATOM     34  H12 UNL     1      28.511  18.894  40.318  1.00  0.00     0.174 HD
ATOM     35  H11 UNL     1      28.647  20.619  39.839  1.00  0.00     0.174 HD
ENDBRANCH   1  33
TORSDOF 11
ENDMDL