MODEL 4
REMARK VINA RESULT: -7.413561733      1.118      1.132
REMARK  10 active torsions:
REMARK  status: ('A' for Active; 'I' for Inactive)
REMARK    1  A    between atoms: N1_1  and  C1_5
REMARK    2  A    between atoms: C3_9  and  N3_10
REMARK    3  A    between atoms: N3_10  and  C4_12
REMARK    4  A    between atoms: C6_16  and  C7_17
REMARK    5  A    between atoms: C7_17  and  N5_18
REMARK    6  A    between atoms: N5_18  and  C8_21
REMARK    7  A    between atoms: C8_21  and  C9_22
REMARK    8  A    between atoms: C9_22  and  C10_23
REMARK    9  A    between atoms: C10_23  and  C11_24
REMARK   10  A    between atoms: C11_24  and  N6_25
REMARK       I    between atoms: N6_25  and  C12_28
REMARK       I    between atoms: C12_28  and  N7_29
REMARK       I    between atoms: C12_28  and  N8_33
ROOT
HETATM    1  C7  UNL     1      30.616  20.134  45.414  1.00  0.00     0.298 C
ENDROOT
BRANCH   1   2
HETATM    2  C6  UNL     1      30.326  21.591  45.405  1.00  0.00     0.098 A
HETATM    3  C5  UNL     1      30.460  22.453  44.342  1.00  0.00     0.126 A
HETATM    4  N4  UNL     1      30.102  23.697  44.723  1.00  0.00    -0.329 N
HETATM    5  C4  UNL     1      29.757  23.583  45.999  1.00  0.00     0.231 A
ATOM      6  H4  UNL     1      30.097  24.543  44.152  1.00  0.00     0.168 HD
HETATM    7  O1  UNL     1      29.885  22.341  46.412  1.00  0.00    -0.281 OA
BRANCH   5   8
HETATM    8  N3  UNL     1      29.340  24.555  46.786  1.00  0.00    -0.288 N
ATOM      9  H3  UNL     1      29.901  24.861  47.580  1.00  0.00     0.173 HD
BRANCH   8  10
HETATM   10  C3  UNL     1      28.071  25.175  46.496  1.00  0.00     0.222 C
HETATM   11  N2  UNL     1      27.131  25.188  47.378  1.00  0.00    -0.354 N
HETATM   12  C2  UNL     1      25.826  25.780  47.187  1.00  0.00     0.158 C
ATOM     13  H2  UNL     1      27.323  24.747  48.277  1.00  0.00     0.163 HD
HETATM   14  C1  UNL     1      26.031  26.995  46.314  1.00  0.00     0.225 C
HETATM   15  C13 UNL     1      26.651  26.481  45.020  1.00  0.00     0.213 C
HETATM   16  O2  UNL     1      27.828  25.767  45.269  1.00  0.00    -0.320 OA
BRANCH  14  17
HETATM   17  N1  UNL     1      24.832  27.725  46.044  1.00  0.00    -0.071 N
ATOM     18  H13 UNL     1      24.120  27.110  45.650  1.00  0.00     0.274 HD
ATOM     19  H12 UNL     1      24.369  27.989  46.914  1.00  0.00     0.274 HD
ATOM     20  H11 UNL     1      24.969  28.542  45.449  1.00  0.00     0.274 HD
ENDBRANCH  14  17
ENDBRANCH   8  10
ENDBRANCH   5   8
ENDBRANCH   1   2
BRANCH   1  21
HETATM   21  N5  UNL     1      31.976  19.849  45.049  1.00  0.00    -0.069 N
ATOM     22  H52 UNL     1      32.150  18.844  45.042  1.00  0.00     0.277 HD
ATOM     23  H51 UNL     1      32.140  20.053  44.064  1.00  0.00     0.277 HD
BRANCH  21  24
HETATM   24  C8  UNL     1      32.931  20.532  45.883  1.00  0.00     0.232 C
BRANCH  24  25
HETATM   25  C9  UNL     1      32.927  20.023  47.291  1.00  0.00     0.029 C
BRANCH  25  26
HETATM   26  C10 UNL     1      32.795  21.115  48.332  1.00  0.00     0.029 C
BRANCH  26  27
HETATM   27  C11 UNL     1      33.140  22.465  47.796  1.00  0.00     0.237 C
BRANCH  27  28
HETATM   28  N6  UNL     1      34.374  22.923  48.372  1.00  0.00    -0.022 N
HETATM   29  C12 UNL     1      35.435  22.946  47.390  1.00  0.00     0.575 C
HETATM   30  N7  UNL     1      35.078  23.850  46.307  1.00  0.00    -0.026 N
HETATM   31  N8  UNL     1      36.696  23.390  48.014  1.00  0.00    -0.026 N
ATOM     32  H73 UNL     1      34.175  23.616  45.893  1.00  0.00     0.278 HD
ATOM     33  H72 UNL     1      34.846  24.784  46.645  1.00  0.00     0.278 HD
ATOM     34  H71 UNL     1      35.826  23.866  45.614  1.00  0.00     0.278 HD
ATOM     35  H83 UNL     1      36.592  24.289  48.485  1.00  0.00     0.278 HD
ATOM     36  H82 UNL     1      36.940  22.822  48.826  1.00  0.00     0.278 HD
ATOM     37  H81 UNL     1      37.445  23.406  47.322  1.00  0.00     0.278 HD
ATOM     38  H62 UNL     1      34.262  23.831  48.824  1.00  0.00     0.281 HD
ATOM     39  H61 UNL     1      34.632  22.371  49.191  1.00  0.00     0.281 HD
ENDBRANCH  27  28
ENDBRANCH  26  27
ENDBRANCH  25  26
ENDBRANCH  24  25
ENDBRANCH  21  24
ENDBRANCH   1  21
TORSDOF 10
ENDMDL