MODEL 3
REMARK VINA RESULT: -7.091350420      1.142      1.713
REMARK  10 active torsions:
REMARK  status: ('A' for Active; 'I' for Inactive)
REMARK    1  A    between atoms: C2_2  and  C3_3
REMARK    2  A    between atoms: C3_3  and  N1_4
REMARK    3  A    between atoms: C4_9  and  C5_10
REMARK    4  A    between atoms: C5_10  and  N4_11
REMARK    5  A    between atoms: N4_11  and  C6_13
REMARK    6  A    between atoms: C6_13  and  C7_14
REMARK    7  A    between atoms: C7_14  and  C8_15
REMARK    8  A    between atoms: C8_15  and  N5_16
REMARK    9  A    between atoms: N5_16  and  C9_18
REMARK   10  A    between atoms: C10_21  and  N7_22
ROOT
HETATM    1  C8  UNL     1      32.098  19.878  44.600  1.00  0.00     0.128 C
ENDROOT
BRANCH   1   2
HETATM    2  C7  UNL     1      31.495  20.629  43.431  1.00  0.00     0.064 C
BRANCH   2   3
HETATM    3  C6  UNL     1      30.701  21.748  43.995  1.00  0.00     0.057 C
BRANCH   3   4
HETATM    4  N4  UNL     1      30.302  21.847  45.299  1.00  0.00    -0.395 N
ATOM      5  H4  UNL     1      29.829  21.060  45.742  1.00  0.00     0.159 HD
BRANCH   4   6
HETATM    6  C5  UNL     1      30.536  23.029  46.043  1.00  0.00     0.198 C
BRANCH   6   7
HETATM    7  C4  UNL     1      29.315  23.800  46.205  1.00  0.00     0.131 A
HETATM    8  N3  UNL     1      28.000  23.173  45.689  1.00  0.00    -0.271 N
HETATM    9  N2  UNL     1      27.131  24.034  46.049  1.00  0.00    -0.225 N
ATOM     10  H3  UNL     1      27.863  22.295  45.188  1.00  0.00     0.190 HD
HETATM   11  N1  UNL     1      27.607  25.101  46.698  1.00  0.00    -0.218 N
ATOM     12  H2  UNL     1      26.137  23.916  45.855  1.00  0.00     0.210 HD
HETATM   13  N11 UNL     1      28.826  24.821  46.707  1.00  0.00    -0.269 N
ATOM     14  H11 UNL     1      29.462  25.478  47.159  1.00  0.00     0.190 HD
BRANCH  11  15
HETATM   15  C3  UNL     1      26.791  26.183  47.250  1.00  0.00     0.171 C
BRANCH  15  16
HETATM   16  C2  UNL     1      27.356  27.424  46.579  1.00  0.00     0.019 C
HETATM   17  C1  UNL     1      26.629  27.850  45.359  1.00  0.00     0.007 C
ENDBRANCH  15  16
ENDBRANCH  11  15
ENDBRANCH   6   7
ENDBRANCH   4   6
ENDBRANCH   3   4
ENDBRANCH   2   3
ENDBRANCH   1   2
BRANCH   1  18
HETATM   18  N5  UNL     1      33.499  20.066  44.783  1.00  0.00    -0.361 N
ATOM     19  H5  UNL     1      34.200  19.608  44.201  1.00  0.00     0.162 HD
BRANCH  18  20
HETATM   20  C9  UNL     1      33.824  20.925  45.821  1.00  0.00     0.208 A
HETATM   21  N6  UNL     1      33.205  20.581  47.014  1.00  0.00    -0.160 N
HETATM   22  C10 UNL     1      33.374  21.631  47.988  1.00  0.00     0.693 A
ATOM     23  H6  UNL     1      32.703  19.709  47.179  1.00  0.00     0.187 HD
HETATM   24  N8  UNL     1      34.035  22.734  47.758  1.00  0.00    -0.023 N
HETATM   25  C11 UNL     1      34.607  22.989  46.575  1.00  0.00     0.693 A
ATOM     26  H8  UNL     1      34.117  23.424  48.505  1.00  0.00     0.203 HD
HETATM   27  N9  UNL     1      35.194  24.026  46.209  1.00  0.00    -0.234 N
HETATM   28  N10 UNL     1      34.429  21.953  45.637  1.00  0.00    -0.160 N
ATOM     29  H92 UNL     1      35.323  24.776  46.889  1.00  0.00     0.174 HD
ATOM     30  H91 UNL     1      35.630  24.220  45.307  1.00  0.00     0.174 HD
ATOM     31  H10 UNL     1      34.851  22.083  44.717  1.00  0.00     0.187 HD
BRANCH  22  32
HETATM   32  N7  UNL     1      32.847  21.422  49.078  1.00  0.00    -0.234 N
ATOM     33  H72 UNL     1      31.832  21.413  49.180  1.00  0.00     0.174 HD
ATOM     34  H71 UNL     1      33.495  21.263  49.850  1.00  0.00     0.174 HD
ENDBRANCH  22  32
ENDBRANCH  18  20
ENDBRANCH   1  18
TORSDOF 10
ENDMDL