MODEL 4
REMARK VINA RESULT: -6.385097988      2.289      5.707
REMARK  9 active torsions:
REMARK  status: ('A' for Active; 'I' for Inactive)
REMARK    1  A    between atoms: C2_2  and  C3_3
REMARK    2  A    between atoms: C3_3  and  C4_4
REMARK    3  A    between atoms: C4_4  and  C5_5
REMARK    4  A    between atoms: C10_16  and  C11_17
REMARK    5  A    between atoms: C11_17  and  C12_18
REMARK    6  A    between atoms: C15_23  and  O3_24
REMARK    7  A    between atoms: C16_26  and  C17_27
REMARK    8  A    between atoms: C21_34  and  C22_35
REMARK    9  A    between atoms: C25_40  and  O5_41
ROOT
HETATM    1  C5  UNL     1       6.120 -31.034   7.278  1.00  0.00     0.082 C
HETATM    2  N1  UNL     1       6.129 -31.603   5.971  1.00  0.00    -0.322 N
ATOM      3  H1  UNL     1       5.435 -31.201   5.341  1.00  0.00     0.169 HD
HETATM    4  C6  UNL     1       6.903 -32.603   5.391  1.00  0.00     0.244 C
HETATM    5  O1  UNL     1       7.239 -32.441   4.159  1.00  0.00    -0.271 OA
HETATM    6  C7  UNL     1       7.423 -33.863   5.973  1.00  0.00     0.172 C
HETATM    7  C8  UNL     1       8.833 -34.069   5.383  1.00  0.00     0.042 C
HETATM    8  N2  UNL     1       6.629 -34.994   5.537  1.00  0.00    -0.346 N
ATOM      9  H2  UNL     1       6.037 -34.832   4.723  1.00  0.00     0.163 HD
HETATM   10  C9  UNL     1       6.571 -36.273   6.088  1.00  0.00     0.241 C
HETATM   11  O2  UNL     1       6.578 -37.262   5.304  1.00  0.00    -0.271 OA
HETATM   12  C10 UNL     1       6.496 -36.598   7.562  1.00  0.00     0.176 C
HETATM   13  N3  UNL     1       5.613 -35.655   8.184  1.00  0.00    -0.356 N
ATOM     14  H3  UNL     1       5.423 -34.828   7.619  1.00  0.00     0.162 HD
HETATM   15  C15 UNL     1       4.960 -35.660   9.429  1.00  0.00     0.160 C
HETATM   16  C16 UNL     1       5.491 -35.504  10.779  1.00  0.00     0.066 C
HETATM   17  N4  UNL     1       6.083 -34.515  11.277  1.00  0.00    -0.325 N
ATOM     18  H4  UNL     1       6.315 -34.761  12.240  1.00  0.00     0.169 HD
HETATM   19  C20 UNL     1       6.543 -33.254  11.069  1.00  0.00     0.245 C
HETATM   20  O4  UNL     1       6.199 -32.162  11.618  1.00  0.00    -0.271 OA
HETATM   21  C21 UNL     1       7.606 -33.030  10.070  1.00  0.00     0.179 C
HETATM   22  N5  UNL     1       7.586 -31.801   9.343  1.00  0.00    -0.355 N
ATOM     23  H5  UNL     1       7.838 -31.028   9.959  1.00  0.00     0.162 HD
HETATM   24  C25 UNL     1       7.336 -31.329   8.083  1.00  0.00     0.163 C
ENDROOT
BRANCH   1  25
HETATM   25  C4  UNL     1       4.861 -30.825   7.991  1.00  0.00     0.007 C
BRANCH  25  26
HETATM   26  C3  UNL     1       4.646 -29.762   8.972  1.00  0.00     0.029 C
BRANCH  26  27
HETATM   27  C2  UNL     1       3.735 -30.147  10.089  1.00  0.00    -0.001 C
HETATM   28  C1  UNL     1       2.287 -29.806   9.808  1.00  0.00     0.005 C
ENDBRANCH  26  27
ENDBRANCH  25  26
ENDBRANCH   1  25
BRANCH  24  29
HETATM   29  O5  UNL     1       8.377 -31.045   7.352  1.00  0.00    -0.345 OA
ATOM     30  H5  UNL     1       9.102 -30.860   7.938  1.00  0.00     0.219 HD
ENDBRANCH  24  29
BRANCH  21  31
HETATM   31  C22 UNL     1       8.953 -33.054  10.847  1.00  0.00     0.009 C
HETATM   32  C23 UNL     1       9.898 -34.069  10.315  1.00  0.00     0.012 C
HETATM   33  C24 UNL     1       9.572 -31.682  10.755  1.00  0.00     0.012 C
ENDBRANCH  21  31
BRANCH  12  34
HETATM   34  C11 UNL     1       7.879 -36.679   8.108  1.00  0.00     0.038 C
BRANCH  34  35
HETATM   35  C12 UNL     1       8.217 -38.116   8.491  1.00  0.00    -0.020 C
HETATM   36  C13 UNL     1       8.504 -38.065  10.004  1.00  0.00     0.009 C
HETATM   37  C14 UNL     1       7.066 -39.049   8.307  1.00  0.00     0.009 C
ENDBRANCH  34  35
ENDBRANCH  12  34
BRANCH  16  38
HETATM   38  C17 UNL     1       5.251 -36.650  11.728  1.00  0.00     0.032 C
HETATM   39  C18 UNL     1       4.188 -36.469  12.722  1.00  0.00     0.016 C
HETATM   40  C19 UNL     1       5.023 -37.967  11.036  1.00  0.00     0.016 C
ENDBRANCH  16  38
BRANCH  15  41
HETATM   41  O3  UNL     1       3.651 -35.826   9.447  1.00  0.00    -0.345 OA
ATOM     42  H3  UNL     1       3.112 -35.195   8.984  1.00  0.00     0.219 HD
ENDBRANCH  15  41
TORSDOF 9
ENDMDL