MODEL 2
REMARK VINA RESULT: -6.780955975      2.119      6.744
REMARK  8 active torsions:
REMARK  status: ('A' for Active; 'I' for Inactive)
REMARK    1  A    between atoms: C2_2  and  C3_3
REMARK    2  A    between atoms: C3_3  and  C4_4
REMARK    3  A    between atoms: C4_4  and  C5_5
REMARK    4  A    between atoms: C7_10  and  C8_11
REMARK    5  A    between atoms: C12_18  and  C13_19
REMARK    6  A    between atoms: C13_19  and  C14_20
REMARK    7  A    between atoms: N4_26  and  C19_28
REMARK    8  A    between atoms: C25_39  and  O4_40
ROOT
HETATM    1  C5  UNL     1       7.529 -32.394  11.484  1.00  0.00     0.062 C
HETATM    2  N1  UNL     1       8.497 -32.739  10.477  1.00  0.00    -0.325 N
ATOM      3  H1  UNL     1       9.052 -33.557  10.729  1.00  0.00     0.169 HD
HETATM    4  C6  UNL     1       8.847 -32.219   9.252  1.00  0.00     0.245 C
HETATM    5  O1  UNL     1       8.761 -33.027   8.252  1.00  0.00    -0.271 OA
HETATM    6  C7  UNL     1       9.322 -30.863   8.866  1.00  0.00     0.180 C
HETATM    7  N2  UNL     1       9.275 -30.750   7.413  1.00  0.00    -0.342 N
ATOM      8  H2  UNL     1       9.982 -31.286   6.910  1.00  0.00     0.163 HD
HETATM    9  C11 UNL     1       8.406 -30.016   6.615  1.00  0.00     0.269 C
HETATM   10  O2  UNL     1       7.848 -30.632   5.673  1.00  0.00    -0.266 OA
HETATM   11  C12 UNL     1       8.028 -28.567   6.711  1.00  0.00     0.115 C
HETATM   12  N3  UNL     1       6.741 -28.274   7.169  1.00  0.00    -0.182 N
HETATM   13  C17 UNL     1       6.657 -27.126   8.112  1.00  0.00     0.175 C
HETATM   14  C18 UNL     1       5.463 -28.900   6.896  1.00  0.00     0.683 C
HETATM   15  N4  UNL     1       4.532 -28.060   6.553  1.00  0.00    -0.222 N
ATOM     16  H4  UNL     1       4.831 -27.085   6.525  1.00  0.00     0.178 HD
HETATM   17  N5  UNL     1       5.101 -30.247   6.949  1.00  0.00    -0.158 N
ATOM     18  H5  UNL     1       4.712 -30.609   6.078  1.00  0.00     0.187 HD
HETATM   19  C22 UNL     1       5.178 -31.212   8.003  1.00  0.00     0.258 C
HETATM   20  O3  UNL     1       5.531 -32.372   7.627  1.00  0.00    -0.270 OA
HETATM   21  C23 UNL     1       4.902 -31.027   9.434  1.00  0.00     0.172 C
HETATM   22  C24 UNL     1       3.821 -29.944   9.657  1.00  0.00     0.042 C
HETATM   23  N6  UNL     1       6.027 -30.675  10.224  1.00  0.00    -0.356 N
ATOM     24  H6  UNL     1       6.445 -29.795   9.921  1.00  0.00     0.162 HD
HETATM   25  C25 UNL     1       6.701 -31.222  11.300  1.00  0.00     0.159 C
ENDROOT
BRANCH  15  26
HETATM   26  C19 UNL     1       3.190 -28.263   6.215  1.00  0.00     0.091 C
HETATM   27  C20 UNL     1       2.795 -27.772   4.845  1.00  0.00     0.032 C
HETATM   28  C21 UNL     1       2.321 -27.535   7.249  1.00  0.00     0.032 C
ENDBRANCH  15  26
BRANCH  11  29
HETATM   29  C13 UNL     1       8.572 -27.904   5.499  1.00  0.00     0.013 C
BRANCH  29  30
HETATM   30  C14 UNL     1       9.802 -27.150   5.420  1.00  0.00     0.002 C
HETATM   31  C15 UNL     1      11.039 -27.584   6.097  1.00  0.00     0.013 C
HETATM   32  C16 UNL     1       9.452 -25.781   6.080  1.00  0.00     0.013 C
ENDBRANCH  29  30
ENDBRANCH  11  29
BRANCH   6  33
HETATM   33  C8  UNL     1      10.799 -30.703   9.300  1.00  0.00     0.009 C
HETATM   34  C9  UNL     1      11.732 -31.258   8.288  1.00  0.00     0.012 C
HETATM   35  C10 UNL     1      11.007 -29.291   9.694  1.00  0.00     0.012 C
ENDBRANCH   6  33
BRANCH  25  36
HETATM   36  O4  UNL     1       6.542 -30.495  12.390  1.00  0.00    -0.345 OA
ATOM     37  H4  UNL     1       5.800 -29.903  12.358  1.00  0.00     0.219 HD
ENDBRANCH  25  36
BRANCH   1  38
HETATM   38  C4  UNL     1       6.843 -33.628  12.046  1.00  0.00     0.062 C
BRANCH  38  39
HETATM   39  C3  UNL     1       5.964 -34.344  11.071  1.00  0.00     0.006 C
BRANCH  39  40
HETATM   40  C2  UNL     1       6.083 -35.842  11.403  1.00  0.00    -0.004 C
HETATM   41  C1  UNL     1       4.956 -36.132  12.392  1.00  0.00     0.005 C
ENDBRANCH  39  40
ENDBRANCH  38  39
ENDBRANCH   1  38
TORSDOF 8
ENDMDL