MODEL 3
REMARK VINA RESULT: -6.859494871      5.997      9.571
REMARK  8 active torsions:
REMARK  status: ('A' for Active; 'I' for Inactive)
REMARK    1  A    between atoms: C2_2  and  C3_3
REMARK    2  A    between atoms: C3_3  and  C4_4
REMARK    3  A    between atoms: C9_15  and  C10_16
REMARK    4  A    between atoms: C10_16  and  C11_17
REMARK    5  A    between atoms: C14_20  and  O3_21
REMARK    6  A    between atoms: C19_32  and  C20_33
REMARK    7  A    between atoms: C20_33  and  N5_34
REMARK    8  A    between atoms: C24_38  and  C25_39
ROOT
HETATM    1  C4  UNL     1       7.763 -35.954   2.882  1.00  0.00     0.102 C
HETATM    2  C5  UNL     1       6.597 -36.380   3.716  1.00  0.00     0.224 C
HETATM    3  O1  UNL     1       5.529 -35.710   3.587  1.00  0.00    -0.273 OA
HETATM    4  N1  UNL     1       6.621 -37.470   4.623  1.00  0.00    -0.348 N
ATOM      5  H1  UNL     1       5.762 -38.006   4.749  1.00  0.00     0.163 HD
HETATM    6  C6  UNL     1       7.773 -37.865   5.371  1.00  0.00     0.172 C
HETATM    7  C7  UNL     1       8.307 -39.122   4.654  1.00  0.00     0.042 C
HETATM    8  C8  UNL     1       7.514 -38.257   6.770  1.00  0.00     0.240 C
HETATM    9  O2  UNL     1       6.751 -39.288   6.865  1.00  0.00    -0.271 OA
HETATM   10  N2  UNL     1       7.964 -37.693   7.961  1.00  0.00    -0.347 N
ATOM     11  H2  UNL     1       8.514 -38.309   8.559  1.00  0.00     0.163 HD
HETATM   12  C9  UNL     1       7.752 -36.321   8.480  1.00  0.00     0.159 C
HETATM   13  C14 UNL     1       6.772 -35.596   7.668  1.00  0.00     0.135 C
HETATM   14  N3  UNL     1       6.872 -34.460   6.892  1.00  0.00    -0.355 N
ATOM     15  H3  UNL     1       5.975 -34.161   6.510  1.00  0.00     0.162 HD
HETATM   16  C15 UNL     1       7.944 -33.613   6.506  1.00  0.00     0.105 C
HETATM   17  C16 UNL     1       9.325 -34.178   6.542  1.00  0.00     0.048 C
HETATM   18  C17 UNL     1       7.999 -32.414   7.485  1.00  0.00     0.048 C
HETATM   19  C18 UNL     1       7.709 -33.022   5.146  1.00  0.00     0.245 C
HETATM   20  O4  UNL     1       7.670 -31.738   5.044  1.00  0.00    -0.271 OA
HETATM   21  N4  UNL     1       7.521 -33.727   3.947  1.00  0.00    -0.352 N
ATOM     22  H4  UNL     1       6.644 -33.538   3.460  1.00  0.00     0.163 HD
HETATM   23  C19 UNL     1       8.396 -34.681   3.306  1.00  0.00     0.126 C
ENDROOT
BRANCH  23  24
HETATM   24  C20 UNL     1       9.021 -33.919   2.131  1.00  0.00     0.298 C
BRANCH  24  25
HETATM   25  N5  UNL     1      10.419 -34.068   2.040  1.00  0.00     0.095 N
HETATM   26  C21 UNL     1      10.972 -35.081   2.909  1.00  0.00     0.273 C
HETATM   27  C22 UNL     1      12.410 -35.168   2.521  1.00  0.00     0.032 C
HETATM   28  C23 UNL     1      12.435 -34.619   1.100  1.00  0.00     0.037 C
HETATM   29  C24 UNL     1      10.998 -34.270   0.750  1.00  0.00     0.223 C
BRANCH  29  30
HETATM   30  C25 UNL     1      10.428 -35.331  -0.107  1.00  0.00     0.031 C
HETATM   31  C26 UNL     1       9.562 -34.911  -1.241  1.00  0.00     0.007 C
ENDBRANCH  29  30
ENDBRANCH  24  25
ENDBRANCH  23  24
BRANCH   1  32
HETATM   32  C3  UNL     1       7.227 -35.982   1.463  1.00  0.00     0.016 C
BRANCH  32  33
HETATM   33  C2  UNL     1       7.513 -37.417   0.974  1.00  0.00    -0.004 C
HETATM   34  C1  UNL     1       6.350 -37.998   0.244  1.00  0.00     0.005 C
ENDBRANCH  32  33
ENDBRANCH   1  32
BRANCH  13  35
HETATM   35  O3  UNL     1       5.590 -36.148   7.699  1.00  0.00    -0.348 OA
ATOM     36  H3  UNL     1       5.092 -35.987   6.906  1.00  0.00     0.219 HD
ENDBRANCH  13  35
BRANCH  12  37
HETATM   37  C10 UNL     1       7.334 -36.526   9.892  1.00  0.00     0.037 C
BRANCH  37  38
HETATM   38  C11 UNL     1       7.430 -35.498  10.903  1.00  0.00    -0.020 C
HETATM   39  C12 UNL     1       8.467 -34.438  10.706  1.00  0.00     0.009 C
HETATM   40  C13 UNL     1       6.123 -34.854  11.252  1.00  0.00     0.009 C
ENDBRANCH  37  38
ENDBRANCH  12  37
TORSDOF 8
ENDMDL