MODEL 5
REMARK VINA RESULT: -8.535992211     13.545     16.385
REMARK  8 active torsions:
REMARK  status: ('A' for Active; 'I' for Inactive)
REMARK       I    between atoms: C1_4  and  N3_6
REMARK    1  A    between atoms: C2_8  and  N4_9
REMARK    2  A    between atoms: C2_8  and  C18_32
REMARK    3  A    between atoms: N4_9  and  C3_11
REMARK    4  A    between atoms: C3_11  and  C4_12
REMARK       I    between atoms: C4_12  and  N5_14
REMARK    5  A    between atoms: N5_14  and  S1_16
REMARK    6  A    between atoms: S1_16  and  C5_19
REMARK    7  A    between atoms: C10_24  and  C11_25
REMARK    8  A    between atoms: C20_34  and  C21_35
ROOT
HETATM    1  C3  UNL     1       3.682 -30.429   8.297  1.00  0.00     0.120 C
HETATM    2  C8  UNL     1       4.204 -29.342   9.189  1.00  0.00     0.069 C
HETATM    3  C9  UNL     1       5.279 -30.017   9.992  1.00  0.00    -0.021 C
HETATM    4  C10 UNL     1       5.061 -31.315  10.060  1.00  0.00    -0.077 C
HETATM    5  C17 UNL     1       3.814 -31.604   9.317  1.00  0.00     0.075 C
ENDROOT
BRANCH   1   6
HETATM    6  N4  UNL     1       4.436 -30.788   7.170  1.00  0.00    -0.361 N
ATOM      7  H4  UNL     1       4.190 -31.703   6.791  1.00  0.00     0.162 HD
BRANCH   6   8
HETATM    8  C2  UNL     1       5.465 -30.142   6.455  1.00  0.00     0.085 C
HETATM    9  N3  UNL     1       5.185 -29.165   5.685  1.00  0.00    -0.320 N
HETATM   10  C1  UNL     1       4.007 -28.528   5.351  1.00  0.00     0.187 C
ATOM     11  H3  UNL     1       6.002 -28.771   5.220  1.00  0.00     0.169 HD
HETATM   12  N1  UNL     1       3.973 -27.220   5.518  1.00  0.00    -0.373 N
HETATM   13  N2  UNL     1       2.846 -29.175   4.835  1.00  0.00    -0.064 NA
ATOM     14  H12 UNL     1       3.103 -26.749   5.271  1.00  0.00     0.158 HD
ATOM     15  H11 UNL     1       4.804 -26.756   5.888  1.00  0.00     0.158 HD
BRANCH   8  16
HETATM   16  C18 UNL     1       6.844 -30.675   6.540  1.00  0.00     0.058 C
HETATM   17  C19 UNL     1       7.464 -31.028   5.195  1.00  0.00     0.031 C
HETATM   18  C20 UNL     1       8.002 -32.392   5.534  1.00  0.00     0.040 C
HETATM   19  C22 UNL     1       8.343 -32.356   7.027  1.00  0.00     0.024 C
HETATM   20  C24 UNL     1       6.696 -33.052   6.012  1.00  0.00     0.024 C
HETATM   21  C23 UNL     1       6.863 -32.052   7.168  1.00  0.00    -0.001 C
BRANCH  18  22
HETATM   22  C21 UNL     1       8.863 -33.066   4.650  1.00  0.00     0.239 C
HETATM   23  N6  UNL     1      10.127 -33.583   5.023  1.00  0.00    -0.061 NA
HETATM   24  O4  UNL     1       8.508 -33.238   3.430  1.00  0.00    -0.276 OA
ENDBRANCH  18  22
ENDBRANCH   8  16
ENDBRANCH   6   8
ENDBRANCH   1   6
BRANCH   1  25
HETATM   25  C4  UNL     1       2.204 -30.306   8.084  1.00  0.00     0.260 C
HETATM   26  O1  UNL     1       1.566 -31.359   8.258  1.00  0.00    -0.270 OA
HETATM   27  N5  UNL     1       1.554 -29.132   7.724  1.00  0.00    -0.252 N
ATOM     28  H5  UNL     1       2.196 -28.347   7.613  1.00  0.00     0.181 HD
BRANCH  27  29
HETATM   29  S1  UNL     1      -0.035 -28.708   7.431  1.00  0.00     0.237 S
HETATM   30  O2  UNL     1      -0.004 -27.695   6.256  1.00  0.00    -0.205 OA
HETATM   31  O3  UNL     1      -0.596 -27.846   8.586  1.00  0.00    -0.205 OA
BRANCH  29  32
HETATM   32  C5  UNL     1      -1.256 -29.859   7.052  1.00  0.00     0.130 A
HETATM   33  C6  UNL     1      -1.793 -30.938   7.885  1.00  0.00     0.023 A
HETATM   34  C7  UNL     1      -2.665 -29.821   7.431  1.00  0.00     0.023 A
ENDBRANCH  29  32
ENDBRANCH  27  29
ENDBRANCH   1  25
BRANCH   4  35
HETATM   35  C11 UNL     1       5.885 -32.347  10.756  1.00  0.00     0.014 C
HETATM   36  C12 UNL     1       5.651 -33.717  10.148  1.00  0.00     0.009 C
HETATM   37  C13 UNL     1       6.277 -34.724  11.081  1.00  0.00     0.001 C
HETATM   38  C14 UNL     1       7.714 -34.459  11.400  1.00  0.00     0.000 C
HETATM   39  C15 UNL     1       8.014 -33.024  11.698  1.00  0.00     0.001 C
HETATM   40  C16 UNL     1       7.346 -32.062  10.743  1.00  0.00     0.009 C
ENDBRANCH   4  35
TORSDOF 8
ENDMDL