MODEL 4
REMARK VINA RESULT: -7.239497473      0.970      1.436
REMARK  8 active torsions:
REMARK  status: ('A' for Active; 'I' for Inactive)
REMARK    1  A    between atoms: C7_13  and  C8_14
REMARK    2  A    between atoms: C8_14  and  C9_15
REMARK    3  A    between atoms: C10_18  and  C11_19
REMARK       I    between atoms: C11_19  and  N2_21
REMARK    4  A    between atoms: N2_21  and  C12_23
REMARK    5  A    between atoms: C12_23  and  C13_24
REMARK    6  A    between atoms: C13_24  and  N3_25
REMARK    7  A    between atoms: N4_29  and  C14_30
REMARK    8  A    between atoms: C14_30  and  C15_31
ROOT
HETATM    1  N1  UNL     1       4.093 -28.189   5.404  1.00  0.00    -0.388 N
ATOM      2  H11 UNL     1       4.783 -28.616   4.786  1.00  0.00     0.157 HD
ATOM      3  H12 UNL     1       3.361 -27.557   5.080  1.00  0.00     0.157 HD
HETATM    4  C1  UNL     1       4.187 -28.489   6.657  1.00  0.00     0.087 C
HETATM    5  C2  UNL     1       3.182 -27.869   7.557  1.00  0.00     0.216 C
HETATM    6  S1  UNL     1       2.271 -29.313   8.023  1.00  0.00     0.153 S
HETATM    7  O1  UNL     1       1.214 -29.502   6.928  1.00  0.00    -0.227 OA
HETATM    8  O2  UNL     1       1.512 -29.222   9.268  1.00  0.00    -0.227 OA
HETATM    9  C3  UNL     1       3.374 -30.645   7.825  1.00  0.00     0.172 C
HETATM   10  C4  UNL     1       4.868 -30.291   8.166  1.00  0.00     0.059 C
HETATM   11  C5  UNL     1       4.764 -29.715   9.550  1.00  0.00     0.033 C
HETATM   12  C6  UNL     1       5.596 -30.558  10.494  1.00  0.00     0.008 C
HETATM   13  C7  UNL     1       6.208 -31.649   9.696  1.00  0.00     0.011 C
HETATM   14  C10 UNL     1       5.472 -31.603   8.361  1.00  0.00     0.111 C
HETATM   15  N4  UNL     1       5.242 -29.401   7.124  1.00  0.00    -0.358 N
ENDROOT
BRANCH  14  16
HETATM   16  C11 UNL     1       6.317 -32.264   7.405  1.00  0.00     0.224 C
HETATM   17  O5  UNL     1       7.566 -32.219   7.486  1.00  0.00    -0.273 OA
HETATM   18  N2  UNL     1       5.815 -33.013   6.303  1.00  0.00    -0.359 N
ATOM     19  H2  UNL     1       4.805 -33.090   6.179  1.00  0.00     0.162 HD
BRANCH  18  20
HETATM   20  C12 UNL     1       6.700 -33.679   5.339  1.00  0.00     0.150 C
BRANCH  20  21
HETATM   21  C13 UNL     1       6.903 -32.801   4.135  1.00  0.00     0.249 C
BRANCH  21  22
HETATM   22  N3  UNL     1       5.650 -32.788   3.365  1.00  0.00    -0.078 N
ATOM     23  H33 UNL     1       5.798 -32.600   2.374  1.00  0.00     0.274 HD
ATOM     24  H32 UNL     1       5.238 -33.716   3.268  1.00  0.00     0.274 HD
ATOM     25  H31 UNL     1       5.018 -32.118   3.803  1.00  0.00     0.274 HD
ENDBRANCH  21  22
ENDBRANCH  20  21
ENDBRANCH  18  20
ENDBRANCH  14  16
BRANCH  15  26
HETATM   26  C14 UNL     1       6.431 -29.115   6.401  1.00  0.00     0.134 C
BRANCH  26  27
HETATM   27  C15 UNL     1       7.548 -28.336   7.014  1.00  0.00    -0.023 C
HETATM   28  C16 UNL     1       8.503 -28.096   5.808  1.00  0.00     0.015 C
HETATM   29  C17 UNL     1       9.645 -27.213   6.145  1.00  0.00    -0.013 C
HETATM   30  C18 UNL     1       9.127 -25.858   6.533  1.00  0.00     0.009 C
HETATM   31  C22 UNL     1      10.432 -27.869   7.262  1.00  0.00     0.009 C
HETATM   32  C19 UNL     1       8.254 -26.067   7.748  1.00  0.00    -0.013 C
HETATM   33  C20 UNL     1       9.036 -26.666   8.895  1.00  0.00     0.009 C
HETATM   34  C24 UNL     1       7.057 -26.933   7.435  1.00  0.00     0.015 C
HETATM   35  C21 UNL     1       9.526 -28.030   8.432  1.00  0.00    -0.013 C
HETATM   36  C23 UNL     1       8.283 -28.849   8.162  1.00  0.00     0.015 C
ENDBRANCH  26  27
ENDBRANCH  15  26
BRANCH  13  37
HETATM   37  C8  UNL     1       6.149 -33.010  10.336  1.00  0.00     0.118 C
BRANCH  37  38
HETATM   38  C9  UNL     1       6.919 -33.066  11.607  1.00  0.00     0.172 C
HETATM   39  O3  UNL     1       6.378 -33.564  12.623  1.00  0.00    -0.648 OA
HETATM   40  O4  UNL     1       8.207 -32.589  11.706  1.00  0.00    -0.648 OA
ENDBRANCH  37  38
ENDBRANCH  13  37
TORSDOF 8
ENDMDL