MODEL 5
REMARK VINA RESULT: -7.591214411      4.033      6.697
REMARK  8 active torsions:
REMARK  status: ('A' for Active; 'I' for Inactive)
REMARK    1  A    between atoms: C3_3  and  O1_4
REMARK    2  A    between atoms: C6_8  and  N1_9
REMARK       I    between atoms: N1_9  and  C7_11
REMARK    3  A    between atoms: C7_11  and  C8_13
REMARK       I    between atoms: N2_17  and  C12_18
REMARK       I    between atoms: C12_18  and  N3_20
REMARK    4  A    between atoms: C16_24  and  C17_25
REMARK       I    between atoms: C17_25  and  N4_27
REMARK    5  A    between atoms: N4_27  and  C18_29
REMARK    6  A    between atoms: C18_29  and  C19_30
REMARK    7  A    between atoms: C18_29  and  C26_37
REMARK    8  A    between atoms: C19_30  and  C20_31
ROOT
HETATM    1  C8  UNL     1       5.005 -30.302   8.717  1.00  0.00     0.181 C
HETATM    2  C9  UNL     1       4.690 -30.744  10.138  1.00  0.00     0.037 C
HETATM    3  C10 UNL     1       6.038 -31.169  10.635  1.00  0.00     0.022 C
HETATM    4  C11 UNL     1       6.693 -31.757   9.383  1.00  0.00     0.129 C
HETATM    5  N2  UNL     1       6.002 -31.188   8.261  1.00  0.00    -0.321 N
HETATM    6  C12 UNL     1       6.351 -31.449   6.908  1.00  0.00     0.322 C
HETATM    7  O3  UNL     1       5.801 -30.795   5.951  1.00  0.00    -0.247 OA
HETATM    8  N3  UNL     1       7.298 -32.418   6.464  1.00  0.00    -0.321 N
HETATM    9  C13 UNL     1       8.134 -33.338   7.194  1.00  0.00     0.129 C
HETATM   10  C14 UNL     1       9.217 -33.841   6.252  1.00  0.00     0.022 C
HETATM   11  C15 UNL     1       9.078 -32.943   5.036  1.00  0.00     0.037 C
HETATM   12  C16 UNL     1       7.596 -32.692   5.035  1.00  0.00     0.181 C
ENDROOT
BRANCH  12  13
HETATM   13  C17 UNL     1       6.925 -33.947   4.618  1.00  0.00     0.241 C
HETATM   14  O4  UNL     1       5.774 -34.229   5.041  1.00  0.00    -0.271 OA
HETATM   15  N4  UNL     1       7.546 -34.862   3.740  1.00  0.00    -0.345 N
ATOM     16  H4  UNL     1       8.479 -34.666   3.377  1.00  0.00     0.163 HD
BRANCH  15  17
HETATM   17  C18 UNL     1       6.834 -36.128   3.339  1.00  0.00     0.186 C
BRANCH  17  18
HETATM   18  C19 UNL     1       7.276 -36.341   1.941  1.00  0.00     0.041 C
BRANCH  18  19
HETATM   19  C20 UNL     1       8.516 -35.726   1.434  1.00  0.00    -0.012 C
HETATM   20  C21 UNL     1       8.387 -35.078   0.112  1.00  0.00     0.005 C
HETATM   21  C22 UNL     1       9.627 -35.339  -0.765  1.00  0.00     0.000 C
HETATM   22  C23 UNL     1      10.830 -35.102   0.123  1.00  0.00     0.000 C
HETATM   23  C24 UNL     1      10.922 -36.299   1.045  1.00  0.00     0.000 C
HETATM   24  C25 UNL     1       9.583 -36.828   1.435  1.00  0.00     0.005 C
ENDBRANCH  18  19
ENDBRANCH  17  18
BRANCH  17  25
HETATM   25  C26 UNL     1       7.289 -37.187   4.254  1.00  0.00     0.196 C
HETATM   26  O5  UNL     1       7.255 -38.370   3.828  1.00  0.00    -0.646 OA
HETATM   27  O6  UNL     1       7.748 -36.964   5.531  1.00  0.00    -0.646 OA
ENDBRANCH  17  25
ENDBRANCH  15  17
ENDBRANCH  12  13
BRANCH   1  28
HETATM   28  C7  UNL     1       3.742 -30.243   7.945  1.00  0.00     0.241 C
HETATM   29  N1  UNL     1       3.486 -29.176   7.055  1.00  0.00    -0.351 N
ATOM     30  H1  UNL     1       4.201 -28.453   6.968  1.00  0.00     0.163 HD
HETATM   31  O2  UNL     1       2.897 -31.134   8.075  1.00  0.00    -0.271 OA
BRANCH  29  32
HETATM   32  C6  UNL     1       2.293 -29.029   6.262  1.00  0.00     0.115 C
HETATM   33  C2  UNL     1       1.588 -27.791   6.767  1.00  0.00    -0.038 C
HETATM   34  C1  UNL     1       0.547 -27.754   7.574  1.00  0.00     0.019 C
HETATM   35  C3  UNL     1       2.271 -26.604   6.194  1.00  0.00     0.148 C
HETATM   36  C4  UNL     1       2.982 -27.128   4.945  1.00  0.00     0.039 C
HETATM   37  C5  UNL     1       2.590 -28.589   4.846  1.00  0.00     0.033 C
BRANCH  35  38
HETATM   38  O1  UNL     1       3.190 -26.066   7.093  1.00  0.00    -0.391 OA
ATOM     39  H1  UNL     1       3.232 -25.120   7.017  1.00  0.00     0.210 HD
ENDBRANCH  35  38
ENDBRANCH  29  32
ENDBRANCH   1  28
TORSDOF 8
ENDMDL