MODEL 4
REMARK VINA RESULT: -9.315754661      2.330      7.530
REMARK  8 active torsions:
REMARK  status: ('A' for Active; 'I' for Inactive)
REMARK    1  A    between atoms: C1_4  and  C2_5
REMARK    2  A    between atoms: C1_4  and  N2_14
REMARK    3  A    between atoms: C6_9  and  C7_10
REMARK    4  A    between atoms: C9_15  and  C10_16
REMARK       I    between atoms: C10_16  and  N3_18
REMARK    5  A    between atoms: N3_18  and  C11_20
REMARK    6  A    between atoms: C11_20  and  C12_21
REMARK    7  A    between atoms: C17_26  and  C18_27
REMARK       I    between atoms: C18_27  and  N4_29
REMARK    8  A    between atoms: N4_29  and  C19_31
ROOT
HETATM    1  C10 UNL     1      -6.221 -39.506   5.103  1.00  0.00     0.240 C
HETATM    2  O3  UNL     1      -5.408 -39.247   6.063  1.00  0.00    -0.271 OA
HETATM    3  N3  UNL     1      -6.253 -40.849   4.664  1.00  0.00    -0.359 N
ATOM      4  H3  UNL     1      -6.876 -41.126   3.904  1.00  0.00     0.162 HD
ENDROOT
BRANCH   1   5
HETATM    5  C9  UNL     1      -7.017 -38.406   4.571  1.00  0.00     0.182 C
HETATM    6  N2  UNL     1      -8.172 -38.025   5.347  1.00  0.00    -0.328 N
HETATM    7  C27 UNL     1      -9.249 -38.914   4.954  1.00  0.00     0.255 A
HETATM    8  C26 UNL     1      -8.977 -39.176   3.543  1.00  0.00     0.175 A
HETATM    9  O5  UNL     1      -9.001 -40.180   4.486  1.00  0.00    -0.354 OA
HETATM   10  C25 UNL     1      -7.573 -38.721   3.186  1.00  0.00     0.071 C
BRANCH   6  11
HETATM   11  C1  UNL     1      -8.195 -36.957   6.284  1.00  0.00     0.080 C
HETATM   12  N1  UNL     1      -9.352 -36.404   6.558  1.00  0.00    -0.389 N
ATOM     13  H12 UNL     1      -9.369 -35.637   7.230  1.00  0.00     0.157 HD
ATOM     14  H11 UNL     1     -10.183 -36.768   6.090  1.00  0.00     0.157 HD
BRANCH  11  15
HETATM   15  C2  UNL     1      -7.001 -36.433   6.957  1.00  0.00     0.054 C
HETATM   16  C3  UNL     1      -6.962 -34.947   7.127  1.00  0.00     0.012 C
HETATM   17  C4  UNL     1      -5.618 -34.600   7.744  1.00  0.00     0.002 C
HETATM   18  C5  UNL     1      -5.608 -35.163   9.134  1.00  0.00     0.015 C
HETATM   19  C6  UNL     1      -5.629 -36.668   9.043  1.00  0.00     0.087 C
HETATM   20  C8  UNL     1      -6.802 -37.182   8.249  1.00  0.00     0.027 C
BRANCH  19  21
HETATM   21  C7  UNL     1      -5.759 -37.195  10.429  1.00  0.00     0.177 C
HETATM   22  O1  UNL     1      -5.487 -36.526  11.459  1.00  0.00    -0.648 OA
HETATM   23  O2  UNL     1      -6.206 -38.495  10.635  1.00  0.00    -0.648 OA
ENDBRANCH  19  21
ENDBRANCH  11  15
ENDBRANCH   6  11
ENDBRANCH   1   5
BRANCH   3  24
HETATM   24  C11 UNL     1      -5.390 -41.840   5.302  1.00  0.00     0.128 C
BRANCH  24  25
HETATM   25  C12 UNL     1      -4.020 -41.849   4.665  1.00  0.00     0.016 C
HETATM   26  C13 UNL     1      -4.068 -42.037   3.189  1.00  0.00     0.007 C
HETATM   27  C14 UNL     1      -4.542 -43.436   2.811  1.00  0.00     0.000 C
HETATM   28  C15 UNL     1      -3.829 -44.461   3.686  1.00  0.00     0.001 C
HETATM   29  C16 UNL     1      -2.604 -43.823   4.316  1.00  0.00     0.014 C
HETATM   30  C17 UNL     1      -3.088 -42.808   5.325  1.00  0.00     0.083 C
BRANCH  30  31
HETATM   31  C18 UNL     1      -1.972 -42.151   6.024  1.00  0.00     0.222 C
HETATM   32  O4  UNL     1      -1.665 -40.972   5.758  1.00  0.00    -0.273 OA
HETATM   33  N4  UNL     1      -1.232 -42.848   7.006  1.00  0.00    -0.356 N
ATOM     34  H4  UNL     1      -1.486 -43.812   7.223  1.00  0.00     0.162 HD
BRANCH  33  35
HETATM   35  C19 UNL     1      -0.118 -42.233   7.722  1.00  0.00     0.084 C
HETATM   36  C20 UNL     1       0.835 -43.282   8.174  1.00  0.00     0.025 C
HETATM   37  C21 UNL     1       1.696 -42.729   9.313  1.00  0.00     0.002 C
HETATM   38  C22 UNL     1       0.907 -42.466  10.552  1.00  0.00     0.000 C
HETATM   39  C23 UNL     1      -0.499 -42.111  10.196  1.00  0.00     0.002 C
HETATM   40  C24 UNL     1      -0.593 -41.392   8.885  1.00  0.00     0.025 C
ENDBRANCH  33  35
ENDBRANCH  30  31
ENDBRANCH  24  25
ENDBRANCH   3  24
TORSDOF 8
ENDMDL