MODEL 5
REMARK VINA RESULT: -6.484193456      4.084      6.875
REMARK  9 active torsions:
REMARK  status: ('A' for Active; 'I' for Inactive)
REMARK    1  A    between atoms: C2_2  and  C3_4
REMARK    2  A    between atoms: C3_4  and  C4_5
REMARK    3  A    between atoms: C6_10  and  C7_11
REMARK    4  A    between atoms: C7_11  and  C8_12
REMARK    5  A    between atoms: C11_15  and  C12_16
REMARK       I    between atoms: C12_16  and  N2_18
REMARK    6  A    between atoms: N2_18  and  C13_20
REMARK    7  A    between atoms: C18_28  and  N4_29
REMARK       I    between atoms: N4_29  and  C19_30
REMARK    8  A    between atoms: N4_29  and  C23_37
REMARK       I    between atoms: C19_30  and  N5_32
REMARK    9  A    between atoms: N5_32  and  C20_34
ROOT
HETATM    1  C4  UNL     1       8.118 -27.549   9.417  1.00  0.00     0.147 C
HETATM    2  N1  UNL     1       7.292 -28.729   9.685  1.00  0.00    -0.350 N
ATOM      3  H1  UNL     1       7.633 -29.258  10.488  1.00  0.00     0.163 HD
HETATM    4  C5  UNL     1       6.139 -29.322   9.111  1.00  0.00     0.228 C
HETATM    5  O2  UNL     1       6.324 -30.605   9.018  1.00  0.00    -0.273 OA
HETATM    6  C6  UNL     1       4.786 -28.898   8.578  1.00  0.00     0.134 C
HETATM    7  C11 UNL     1       5.041 -28.291   7.255  1.00  0.00     0.093 C
HETATM    8  N3  UNL     1       5.907 -27.130   7.189  1.00  0.00    -0.320 N
ATOM      9  H3  UNL     1       5.329 -26.310   7.004  1.00  0.00     0.169 HD
HETATM   10  C17 UNL     1       7.258 -26.707   7.286  1.00  0.00     0.271 C
HETATM   11  O4  UNL     1       7.487 -25.612   6.703  1.00  0.00    -0.266 OA
HETATM   12  C18 UNL     1       8.401 -27.349   7.963  1.00  0.00     0.107 C
ENDROOT
BRANCH  12  13
HETATM   13  N4  UNL     1       9.701 -26.920   7.590  1.00  0.00    -0.292 N
HETATM   14  C19 UNL     1      10.375 -25.723   7.972  1.00  0.00     0.323 C
HETATM   15  O5  UNL     1       9.858 -24.736   8.546  1.00  0.00    -0.247 OA
HETATM   16  N5  UNL     1      11.795 -25.506   7.723  1.00  0.00    -0.339 N
ATOM     17  H5  UNL     1      12.320 -26.253   7.267  1.00  0.00     0.164 HD
BRANCH  16  18
HETATM   18  C20 UNL     1      12.497 -24.315   8.075  1.00  0.00     0.078 C
HETATM   19  C21 UNL     1      13.723 -24.541   8.916  1.00  0.00     0.032 C
HETATM   20  C22 UNL     1      12.900 -23.422   6.936  1.00  0.00     0.032 C
ENDBRANCH  16  18
BRANCH  13  21
HETATM   21  C23 UNL     1      10.421 -27.761   6.599  1.00  0.00     0.086 C
HETATM   22  C24 UNL     1      10.147 -27.109   5.214  1.00  0.00     0.032 C
HETATM   23  C25 UNL     1       9.782 -29.120   6.611  1.00  0.00     0.032 C
ENDBRANCH  13  21
ENDBRANCH  12  13
BRANCH   1  24
HETATM   24  C3  UNL     1       7.648 -26.411  10.234  1.00  0.00     0.109 C
BRANCH  24  25
HETATM   25  C2  UNL     1       8.477 -26.307  11.478  1.00  0.00     0.125 C
HETATM   26  C1  UNL     1       8.777 -24.990  12.130  1.00  0.00     0.091 C
HETATM   27  O1  UNL     1       8.967 -27.278  12.049  1.00  0.00    -0.298 OA
ENDBRANCH  24  25
ENDBRANCH   1  24
BRANCH   7  28
HETATM   28  C12 UNL     1       4.037 -28.245   6.207  1.00  0.00     0.265 C
HETATM   29  O3  UNL     1       4.085 -28.904   5.146  1.00  0.00    -0.266 OA
HETATM   30  N2  UNL     1       2.888 -27.364   6.337  1.00  0.00    -0.348 N
ATOM     31  H2  UNL     1       2.807 -26.788   7.175  1.00  0.00     0.163 HD
BRANCH  30  32
HETATM   32  C13 UNL     1       1.856 -27.268   5.331  1.00  0.00     0.022 C
HETATM   33  C14 UNL     1       2.247 -26.472   4.128  1.00  0.00     0.037 C
HETATM   34  C15 UNL     1       1.169 -28.555   5.065  1.00  0.00     0.037 C
HETATM   35  C16 UNL     1       0.762 -26.351   5.994  1.00  0.00     0.037 C
ENDBRANCH  30  32
ENDBRANCH   7  28
BRANCH   6  36
HETATM   36  C7  UNL     1       4.033 -30.208   8.362  1.00  0.00     0.024 C
BRANCH  36  37
HETATM   37  C8  UNL     1       2.720 -30.348   9.015  1.00  0.00    -0.022 C
HETATM   38  C9  UNL     1       2.066 -28.992   9.354  1.00  0.00     0.009 C
HETATM   39  C10 UNL     1       1.696 -31.161   8.257  1.00  0.00     0.009 C
ENDBRANCH  36  37
ENDBRANCH   6  36
TORSDOF 9
ENDMDL