MODEL 1
REMARK VINA RESULT: -9.781472955      0.000      0.000
REMARK  9 active torsions:
REMARK  status: ('A' for Active; 'I' for Inactive)
REMARK       I    between atoms: N1_5  and  C5_6
REMARK    1  A    between atoms: C5_6  and  C6_8
REMARK    2  A    between atoms: C6_8  and  N2_9
REMARK    3  A    between atoms: C9_15  and  N3_16
REMARK       I    between atoms: N3_16  and  C10_18
REMARK    4  A    between atoms: C10_18  and  C11_20
REMARK    5  A    between atoms: C11_20  and  N4_21
REMARK    6  A    between atoms: C11_20  and  C22_38
REMARK       I    between atoms: N4_21  and  C12_23
REMARK    7  A    between atoms: C12_23  and  C13_25
REMARK    8  A    between atoms: C17_29  and  C18_30
REMARK    9  A    between atoms: C18_30  and  N6_34
ROOT
HETATM    1  N3  UNL     1      -1.945 -32.870   8.555  1.00  0.00    -0.355 N
ATOM      2  H3  UNL     1      -1.112 -33.374   8.252  1.00  0.00     0.162 HD
HETATM    3  C10 UNL     1      -3.051 -33.620   9.014  1.00  0.00     0.241 C
HETATM    4  O2  UNL     1      -4.051 -32.897   9.369  1.00  0.00    -0.271 OA
ENDROOT
BRANCH   3   5
HETATM    5  C11 UNL     1      -3.187 -35.053   9.130  1.00  0.00     0.180 C
BRANCH   5   6
HETATM    6  N4  UNL     1      -4.320 -35.499   8.319  1.00  0.00    -0.347 N
HETATM    7  C12 UNL     1      -4.422 -36.848   7.897  1.00  0.00     0.222 C
HETATM    8  O3  UNL     1      -3.539 -37.656   8.228  1.00  0.00    -0.273 OA
ATOM      9  H4  UNL     1      -5.044 -34.831   8.054  1.00  0.00     0.163 HD
BRANCH   7  10
HETATM   10  C13 UNL     1      -5.558 -37.283   7.074  1.00  0.00     0.078 C
HETATM   11  C14 UNL     1      -6.833 -37.445   7.882  1.00  0.00     0.014 C
HETATM   12  C15 UNL     1      -7.962 -37.519   6.843  1.00  0.00     0.002 C
HETATM   13  C16 UNL     1      -7.764 -38.801   6.074  1.00  0.00     0.012 C
HETATM   14  C17 UNL     1      -6.385 -38.934   5.477  1.00  0.00     0.053 C
HETATM   15  C21 UNL     1      -5.287 -38.680   6.483  1.00  0.00     0.026 C
BRANCH  14  16
HETATM   16  C18 UNL     1      -6.265 -40.258   4.835  1.00  0.00     0.076 C
HETATM   17  N5  UNL     1      -6.884 -41.283   5.292  1.00  0.00    -0.389 N
ATOM     18  H52 UNL     1      -7.475 -41.196   6.119  1.00  0.00     0.157 HD
ATOM     19  H51 UNL     1      -6.801 -42.198   4.847  1.00  0.00     0.157 HD
BRANCH  16  20
HETATM   20  N6  UNL     1      -5.444 -40.379   3.686  1.00  0.00    -0.380 N
HETATM   21  C19 UNL     1      -5.987 -40.088   2.367  1.00  0.00     0.150 C
HETATM   22  C20 UNL     1      -4.063 -40.786   3.760  1.00  0.00     0.150 C
ENDBRANCH  16  20
ENDBRANCH  14  16
ENDBRANCH   7  10
ENDBRANCH   5   6
BRANCH   5  23
HETATM   23  C22 UNL     1      -3.330 -35.622  10.509  1.00  0.00     0.009 C
HETATM   24  C23 UNL     1      -4.717 -35.748  11.022  1.00  0.00     0.012 C
HETATM   25  C24 UNL     1      -2.403 -34.971  11.505  1.00  0.00     0.012 C
ENDBRANCH   5  23
ENDBRANCH   3   5
BRANCH   1  26
HETATM   26  C9  UNL     1      -1.931 -31.408   8.492  1.00  0.00     0.087 C
HETATM   27  C8  UNL     1      -3.026 -30.833   7.665  1.00  0.00     0.028 C
HETATM   28  C7  UNL     1      -2.421 -29.898   6.669  1.00  0.00     0.051 C
HETATM   29  C6  UNL     1      -1.038 -29.675   7.158  1.00  0.00     0.205 C
HETATM   30  C25 UNL     1      -0.649 -30.892   7.921  1.00  0.00     0.074 C
BRANCH  29  31
HETATM   31  C5  UNL     1      -0.066 -29.237   6.143  1.00  0.00     0.256 C
HETATM   32  N1  UNL     1       1.333 -29.170   6.261  1.00  0.00    -0.350 N
HETATM   33  C4  UNL     1       2.119 -29.510   7.408  1.00  0.00     0.126 C
HETATM   34  C26 UNL     1       2.087 -28.719   5.085  1.00  0.00     0.126 C
HETATM   35  C3  UNL     1       2.843 -28.237   7.867  1.00  0.00     0.024 C
HETATM   36  C2  UNL     1       3.707 -27.777   6.743  1.00  0.00    -0.015 C
HETATM   37  C1  UNL     1       4.337 -26.440   7.145  1.00  0.00     0.010 C
HETATM   38  C27 UNL     1       2.932 -27.530   5.470  1.00  0.00     0.024 C
HETATM   39  O1  UNL     1      -0.578 -28.874   5.013  1.00  0.00    -0.271 OA
ENDBRANCH  29  31
BRANCH  29  40
HETATM   40  N2  UNL     1      -1.143 -28.594   8.169  1.00  0.00    -0.061 N
ATOM     41  H23 UNL     1      -0.272 -28.078   8.293  1.00  0.00     0.275 HD
ATOM     42  H22 UNL     1      -1.718 -27.811   7.857  1.00  0.00     0.275 HD
ATOM     43  H21 UNL     1      -1.482 -29.016   9.034  1.00  0.00     0.275 HD
ENDBRANCH  29  40
ENDBRANCH   1  26
TORSDOF 9
ENDMDL