MODEL 4
REMARK VINA RESULT: -6.377309681      2.740      7.506
REMARK  10 active torsions:
REMARK  status: ('A' for Active; 'I' for Inactive)
REMARK    1  A    between atoms: C2_2  and  C3_3
REMARK    2  A    between atoms: C3_3  and  N1_5
REMARK       I    between atoms: N1_5  and  C5_7
REMARK    3  A    between atoms: C5_7  and  C6_9
REMARK    4  A    between atoms: C8_13  and  O2_14
REMARK    5  A    between atoms: C9_16  and  C10_17
REMARK    6  A    between atoms: C10_17  and  C11_18
REMARK    7  A    between atoms: C15_23  and  O3_24
REMARK    8  A    between atoms: C16_26  and  C17_27
REMARK    9  A    between atoms: C21_34  and  C22_35
REMARK   10  A    between atoms: C22_35  and  C23_36
ROOT
HETATM    1  C6  UNL     1       5.326 -28.480   6.706  1.00  0.00     0.188 C
HETATM    2  C7  UNL     1       5.132 -28.017   8.089  1.00  0.00     0.156 C
HETATM    3  N2  UNL     1       6.046 -27.080   8.653  1.00  0.00    -0.367 N
ATOM      4  H2  UNL     1       5.567 -26.231   8.955  1.00  0.00     0.161 HD
HETATM    5  C8  UNL     1       7.417 -27.003   8.906  1.00  0.00     0.159 C
HETATM    6  C9  UNL     1       8.599 -26.871   8.068  1.00  0.00     0.064 C
HETATM    7  N3  UNL     1       9.553 -27.921   7.875  1.00  0.00    -0.330 N
HETATM    8  C14 UNL     1      10.958 -27.380   7.663  1.00  0.00     0.158 C
HETATM    9  C15 UNL     1       9.528 -29.310   7.784  1.00  0.00     0.166 C
HETATM   10  C16 UNL     1       9.340 -30.497   8.634  1.00  0.00     0.067 C
HETATM   11  N4  UNL     1       8.577 -31.497   7.954  1.00  0.00    -0.325 N
ATOM     12  H4  UNL     1       8.952 -32.440   8.058  1.00  0.00     0.169 HD
HETATM   13  C20 UNL     1       7.425 -31.435   7.181  1.00  0.00     0.244 C
HETATM   14  O4  UNL     1       7.375 -32.052   6.087  1.00  0.00    -0.271 OA
HETATM   15  C21 UNL     1       6.173 -30.669   7.530  1.00  0.00     0.171 C
HETATM   16  N5  UNL     1       5.840 -29.742   6.513  1.00  0.00    -0.396 N
ATOM     17  H5  UNL     1       5.995 -30.037   5.549  1.00  0.00     0.155 HD
ENDROOT
BRANCH   1  18
HETATM   18  C5  UNL     1       3.962 -28.465   6.017  1.00  0.00     0.242 C
HETATM   19  N1  UNL     1       2.956 -27.715   6.658  1.00  0.00    -0.355 N
ATOM     20  H1  UNL     1       3.184 -27.231   7.527  1.00  0.00     0.162 HD
HETATM   21  O1  UNL     1       3.749 -29.081   4.949  1.00  0.00    -0.271 OA
BRANCH  19  22
HETATM   22  C3  UNL     1       1.602 -27.603   6.126  1.00  0.00     0.080 C
HETATM   23  C4  UNL     1       1.290 -26.184   5.728  1.00  0.00     0.032 C
BRANCH  22  24
HETATM   24  C2  UNL     1       0.671 -28.120   7.189  1.00  0.00     0.020 C
HETATM   25  C1  UNL     1       1.325 -28.164   8.546  1.00  0.00     0.007 C
ENDBRANCH  22  24
ENDBRANCH  19  22
ENDBRANCH   1  18
BRANCH  15  26
HETATM   26  C22 UNL     1       4.970 -31.551   7.676  1.00  0.00     0.043 C
BRANCH  26  27
HETATM   27  C23 UNL     1       4.373 -31.804   8.980  1.00  0.00    -0.049 C
HETATM   28  C24 UNL     1       4.458 -33.199   9.499  1.00  0.00     0.014 C
HETATM   29  C25 UNL     1       5.209 -30.985  10.047  1.00  0.00     0.014 C
HETATM   30  C26 UNL     1       2.995 -31.254   9.151  1.00  0.00     0.014 C
ENDBRANCH  26  27
ENDBRANCH  15  26
BRANCH   5  31
HETATM   31  O2  UNL     1       7.693 -27.057  10.202  1.00  0.00    -0.345 OA
ATOM     32  H2  UNL     1       7.339 -26.314  10.677  1.00  0.00     0.219 HD
ENDBRANCH   5  31
BRANCH   6  33
HETATM   33  C10 UNL     1       8.395 -26.003   6.830  1.00  0.00     0.065 C
BRANCH  33  34
HETATM   34  C11 UNL     1       8.893 -24.572   7.084  1.00  0.00    -0.017 C
HETATM   35  C12 UNL     1       9.326 -24.341   8.488  1.00  0.00     0.010 C
HETATM   36  C13 UNL     1       9.920 -24.164   6.084  1.00  0.00     0.010 C
ENDBRANCH  33  34
ENDBRANCH   6  33
BRANCH  10  37
HETATM   37  C17 UNL     1       9.040 -30.327  10.073  1.00  0.00     0.032 C
HETATM   38  C18 UNL     1       8.767 -31.741  10.627  1.00  0.00     0.016 C
HETATM   39  C19 UNL     1      10.205 -29.805  10.833  1.00  0.00     0.016 C
ENDBRANCH  10  37
BRANCH   9  40
HETATM   40  O3  UNL     1       9.743 -29.756   6.540  1.00  0.00    -0.344 OA
ATOM     41  H3  UNL     1      10.666 -29.844   6.331  1.00  0.00     0.219 HD
ENDBRANCH   9  40
TORSDOF 10
ENDMDL