MODEL 4
REMARK VINA RESULT: -8.254451633      1.723      6.310
REMARK  5 active torsions:
REMARK  status: ('A' for Active; 'I' for Inactive)
REMARK    1  A    between atoms: C2_2  and  C3_3
REMARK    2  A    between atoms: C5_5  and  C6_6
REMARK    3  A    between atoms: C14_14  and  C15_15
REMARK    4  A    between atoms: C15_15  and  N1_16
REMARK    5  A    between atoms: C19_23  and  N2_24
ROOT
HETATM    1  C6  UNL     1     -13.443  13.283  40.941  1.00  0.00    -0.069 C
HETATM    2  C7  UNL     1     -13.024  11.878  41.181  1.00  0.00     0.035 C
HETATM    3  C8  UNL     1     -11.849  11.577  40.276  1.00  0.00     0.009 C
HETATM    4  C9  UNL     1     -10.764  12.629  40.417  1.00  0.00    -0.013 C
HETATM    5  C10 UNL     1     -11.332  13.910  39.908  1.00  0.00     0.014 C
HETATM    6  C11 UNL     1     -12.414  14.334  40.914  1.00  0.00     0.020 C
HETATM    7  C12 UNL     1     -11.749  14.783  42.127  1.00  0.00     0.005 A
HETATM    8  C13 UNL     1     -11.693  14.181  43.440  1.00  0.00     0.017 A
HETATM    9  C14 UNL     1     -10.472  14.058  42.488  1.00  0.00    -0.012 A
HETATM   10  C16 UNL     1     -10.298  12.742  41.838  1.00  0.00     0.016 C
ENDROOT
BRANCH   1  11
HETATM   11  C5  UNL     1     -14.671  13.672  41.715  1.00  0.00    -0.059 C
HETATM   12  C4  UNL     1     -15.991  13.413  41.057  1.00  0.00     0.045 C
HETATM   13  C3  UNL     1     -17.150  13.471  41.949  1.00  0.00     0.020 C
HETATM   14  C19 UNL     1     -16.877  13.507  43.409  1.00  0.00     0.191 C
HETATM   15  C18 UNL     1     -15.854  14.603  43.678  1.00  0.00     0.061 C
HETATM   16  C17 UNL     1     -14.630  14.216  42.910  1.00  0.00    -0.017 C
BRANCH  13  17
HETATM   17  C2  UNL     1     -18.053  12.259  41.683  1.00  0.00     0.002 C
HETATM   18  C1  UNL     1     -17.254  10.985  41.626  1.00  0.00     0.005 C
ENDBRANCH  13  17
BRANCH  14  19
HETATM   19  N2  UNL     1     -18.099  13.855  44.106  1.00  0.00    -0.074 N
ATOM     20  H23 UNL     1     -18.672  13.038  44.318  1.00  0.00     0.274 HD
ATOM     21  H22 UNL     1     -17.928  14.162  45.063  1.00  0.00     0.274 HD
ATOM     22  H21 UNL     1     -18.604  14.552  43.558  1.00  0.00     0.274 HD
ENDBRANCH  14  19
ENDBRANCH   1  11
BRANCH   9  23
HETATM   23  C15 UNL     1      -9.268  14.819  42.923  1.00  0.00     0.239 C
BRANCH  23  24
HETATM   24  N1  UNL     1      -8.135  14.401  42.130  1.00  0.00    -0.079 N
ATOM     25  H13 UNL     1      -7.326  14.163  42.704  1.00  0.00     0.274 HD
ATOM     26  H12 UNL     1      -8.279  13.488  41.700  1.00  0.00     0.274 HD
ATOM     27  H11 UNL     1      -7.924  15.125  41.444  1.00  0.00     0.274 HD
ENDBRANCH  23  24
ENDBRANCH   9  23
TORSDOF 5
ENDMDL