MODEL 4
REMARK VINA RESULT: -6.831121563      1.450      2.030
REMARK  4 active torsions:
REMARK  status: ('A' for Active; 'I' for Inactive)
REMARK    1  A    between atoms: N1_2  and  C2_5
REMARK    2  A    between atoms: C2_5  and  C3_6
REMARK    3  A    between atoms: C3_6  and  N2_8
REMARK    4  A    between atoms: N2_8  and  C4_10
ROOT
HETATM    1  C4  UNL     1     -13.358  15.521  42.878  1.00  0.00     0.031 C
HETATM    2  C5  UNL     1     -12.616  14.404  42.189  1.00  0.00     0.031 C
HETATM    3  C6  UNL     1     -13.422  13.593  41.214  1.00  0.00     0.003 C
HETATM    4  C7  UNL     1     -14.552  12.815  41.747  1.00  0.00     0.009 C
HETATM    5  C8  UNL     1     -15.837  13.489  41.993  1.00  0.00    -0.043 C
HETATM    6  C9  UNL     1     -16.972  12.524  41.602  1.00  0.00     0.015 C
HETATM    7  C10 UNL     1     -16.042  13.647  43.476  1.00  0.00     0.014 C
HETATM    8  C11 UNL     1     -15.513  14.905  44.052  1.00  0.00    -0.011 C
HETATM    9  C12 UNL     1     -16.155  16.079  43.325  1.00  0.00     0.009 C
HETATM   10  C13 UNL     1     -15.645  15.985  41.915  1.00  0.00    -0.011 C
HETATM   11  C14 UNL     1     -16.097  14.744  41.232  1.00  0.00     0.014 C
HETATM   12  C15 UNL     1     -14.193  16.262  41.910  1.00  0.00     0.035 C
HETATM   13  C16 UNL     1     -14.028  15.014  44.116  1.00  0.00     0.035 C
ENDROOT
BRANCH   1  14
HETATM   14  N2  UNL     1     -12.304  16.416  43.338  1.00  0.00    -0.374 N
ATOM     15  H2  UNL     1     -11.413  16.365  42.842  1.00  0.00     0.161 HD
BRANCH  14  16
HETATM   16  C3  UNL     1     -12.384  17.333  44.381  1.00  0.00     0.099 C
HETATM   17  S1  UNL     1     -11.476  17.340  45.730  1.00  0.00    -0.064 SA
BRANCH  16  18
HETATM   18  C2  UNL     1     -13.407  18.425  44.281  1.00  0.00     0.300 C
BRANCH  18  19
HETATM   19  N1  UNL     1     -12.889  19.597  43.650  1.00  0.00    -0.073 N
HETATM   20  C1  UNL     1     -13.774  20.718  44.035  1.00  0.00     0.267 C
ATOM     21  H12 UNL     1     -12.784  19.498  42.640  1.00  0.00     0.277 HD
ATOM     22  H11 UNL     1     -11.907  19.768  43.865  1.00  0.00     0.277 HD
ENDBRANCH  18  19
ENDBRANCH  16  18
ENDBRANCH  14  16
ENDBRANCH   1  14
TORSDOF 4
ENDMDL