MODEL 5
REMARK VINA RESULT: -7.508929035      1.370      2.573
REMARK  4 active torsions:
REMARK  status: ('A' for Active; 'I' for Inactive)
REMARK       I    between atoms: C1_2  and  N1_3
REMARK    1  A    between atoms: C1_2  and  C9_12
REMARK    2  A    between atoms: N1_3  and  C2_5
REMARK    3  A    between atoms: C2_5  and  C3_6
REMARK    4  A    between atoms: C15_18  and  O2_19
ROOT
HETATM    1  C9  UNL     1     -16.007  13.933  42.247  1.00  0.00     0.044 C
HETATM    2  C10 UNL     1     -16.318  14.687  43.507  1.00  0.00     0.024 C
HETATM    3  C11 UNL     1     -17.504  14.105  44.218  1.00  0.00    -0.010 C
HETATM    4  C12 UNL     1     -17.346  12.597  44.436  1.00  0.00     0.012 C
HETATM    5  C13 UNL     1     -17.301  12.133  42.976  1.00  0.00     0.022 C
HETATM    6  C14 UNL     1     -15.869  12.429  42.523  1.00  0.00     0.027 C
HETATM    7  C15 UNL     1     -18.171  13.097  42.210  1.00  0.00     0.063 C
HETATM    8  C16 UNL     1     -18.691  14.104  43.245  1.00  0.00     0.043 C
HETATM    9  C17 UNL     1     -17.212  13.910  41.325  1.00  0.00     0.057 C
ENDROOT
BRANCH   1  10
HETATM   10  C1  UNL     1     -14.780  14.370  41.603  1.00  0.00     0.226 C
HETATM   11  O1  UNL     1     -14.575  15.582  41.381  1.00  0.00    -0.273 OA
HETATM   12  N1  UNL     1     -13.809  13.425  41.223  1.00  0.00    -0.360 N
ATOM     13  H1  UNL     1     -14.010  12.445  41.417  1.00  0.00     0.162 HD
BRANCH  12  14
HETATM   14  C2  UNL     1     -12.554  13.725  40.584  1.00  0.00     0.127 C
BRANCH  14  15
HETATM   15  C3  UNL     1     -11.441  13.417  41.548  1.00  0.00     0.003 C
HETATM   16  C4  UNL     1     -10.145  14.050  41.069  1.00  0.00     0.006 C
HETATM   17  C5  UNL     1      -9.140  13.858  42.214  1.00  0.00     0.000 C
HETATM   18  C6  UNL     1      -9.488  14.935  43.237  1.00  0.00     0.000 C
HETATM   19  C7  UNL     1     -10.979  15.223  43.224  1.00  0.00     0.000 C
HETATM   20  C8  UNL     1     -11.780  13.977  42.918  1.00  0.00     0.006 C
ENDBRANCH  14  15
ENDBRANCH  12  14
ENDBRANCH   1  10
BRANCH   7  21
HETATM   21  O2  UNL     1     -19.171  12.509  41.495  1.00  0.00    -0.389 OA
ATOM     22  H2  UNL     1     -20.047  12.739  41.781  1.00  0.00     0.210 HD
ENDBRANCH   7  21
TORSDOF 4
ENDMDL