MODEL 2
REMARK VINA RESULT: -7.936091470      1.100      3.110
REMARK  3 active torsions:
REMARK  status: ('A' for Active; 'I' for Inactive)
REMARK    1  A    between atoms: C9_9  and  C10_10
REMARK    2  A    between atoms: C10_10  and  N1_11
REMARK    3  A    between atoms: N1_11  and  N2_13
ROOT
HETATM    1  C10 UNL     1     -14.531  14.722  43.227  1.00  0.00     0.149 C
ENDROOT
BRANCH   1   2
HETATM    2  C9  UNL     1     -15.608  13.862  42.613  1.00  0.00    -0.022 C
HETATM    3  C8  UNL     1     -16.508  13.272  43.648  1.00  0.00     0.015 C
HETATM    4  C6  UNL     1     -17.504  12.367  42.953  1.00  0.00    -0.013 C
HETATM    5  C5  UNL     1     -18.379  13.262  42.093  1.00  0.00     0.009 C
HETATM    6  C7  UNL     1     -16.830  11.291  42.158  1.00  0.00     0.014 C
HETATM    7  C4  UNL     1     -17.499  13.851  41.015  1.00  0.00    -0.013 C
HETATM    8  C3  UNL     1     -16.864  12.757  40.201  1.00  0.00     0.014 C
HETATM    9  C16 UNL     1     -16.425  14.684  41.637  1.00  0.00     0.015 C
HETATM   10  C2  UNL     1     -15.970  11.940  41.078  1.00  0.00    -0.043 C
HETATM   11  C1  UNL     1     -15.218  10.887  40.289  1.00  0.00     0.015 C
HETATM   12  C17 UNL     1     -14.932  12.775  41.808  1.00  0.00     0.020 C
ENDBRANCH   1   2
BRANCH   1  13
HETATM   13  N1  UNL     1     -13.590  15.169  42.230  1.00  0.00    -0.334 N
ATOM     14  H1  UNL     1     -13.906  15.397  41.287  1.00  0.00     0.180 HD
BRANCH  13  15
HETATM   15  N2  UNL     1     -12.252  15.286  42.569  1.00  0.00    -0.294 N
HETATM   16  C11 UNL     1     -11.362  14.525  42.056  1.00  0.00     0.091 C
HETATM   17  C12 UNL     1      -9.947  14.708  42.469  1.00  0.00     0.077 C
HETATM   18  N3  UNL     1     -11.729  13.537  41.125  1.00  0.00    -0.379 N
HETATM   19  C13 UNL     1      -9.230  13.444  41.973  1.00  0.00     0.009 C
HETATM   20  C14 UNL     1      -9.420  13.457  40.472  1.00  0.00     0.020 C
HETATM   21  C15 UNL     1     -10.820  13.140  40.073  1.00  0.00     0.121 C
ATOM     22  H3  UNL     1     -12.646  13.095  41.193  1.00  0.00     0.160 HD
ATOM     23  H2  UNL     1     -11.970  15.996  43.245  1.00  0.00     0.188 HD
ENDBRANCH  13  15
ENDBRANCH   1  13
TORSDOF 3
ENDMDL