MODEL 4
REMARK VINA RESULT: -7.208653284      2.158      2.703
REMARK  3 active torsions:
REMARK  status: ('A' for Active; 'I' for Inactive)
REMARK    1  A    between atoms: C1_2  and  C2_4
REMARK    2  A    between atoms: C2_4  and  C3_5
REMARK       I    between atoms: N1_10  and  C8_11
REMARK       I    between atoms: C8_11  and  N2_13
REMARK    3  A    between atoms: N2_13  and  C9_15
ROOT
HETATM    1  C3  UNL     1     -13.013  13.897  41.511  1.00  0.00     0.013 C
HETATM    2  C4  UNL     1     -14.095  13.147  40.820  1.00  0.00     0.007 C
HETATM    3  C5  UNL     1     -15.217  12.715  41.698  1.00  0.00     0.002 C
HETATM    4  C6  UNL     1     -15.762  13.753  42.619  1.00  0.00     0.020 C
HETATM    5  C7  UNL     1     -15.772  15.084  41.903  1.00  0.00     0.127 C
HETATM    6  N1  UNL     1     -14.501  15.737  42.233  1.00  0.00    -0.334 N
HETATM    7  C8  UNL     1     -14.602  16.749  43.202  1.00  0.00     0.318 C
HETATM    8  O3  UNL     1     -15.767  16.976  43.686  1.00  0.00    -0.247 OA
HETATM    9  N2  UNL     1     -13.566  17.548  43.709  1.00  0.00    -0.338 N
ATOM     10  H2  UNL     1     -12.625  17.395  43.347  1.00  0.00     0.164 HD
HETATM   11  C15 UNL     1     -13.247  15.387  41.626  1.00  0.00     0.132 C
ENDROOT
BRANCH   9  12
HETATM   12  C9  UNL     1     -13.744  18.572  44.709  1.00  0.00     0.086 C
HETATM   13  C10 UNL     1     -12.617  18.594  45.718  1.00  0.00     0.025 C
HETATM   14  C11 UNL     1     -13.114  19.408  46.897  1.00  0.00     0.002 C
HETATM   15  C12 UNL     1     -13.526  20.797  46.492  1.00  0.00     0.000 C
HETATM   16  C13 UNL     1     -14.334  20.865  45.246  1.00  0.00     0.002 C
HETATM   17  C14 UNL     1     -13.854  19.955  44.137  1.00  0.00     0.025 C
ENDBRANCH   9  12
BRANCH   1  18
HETATM   18  C2  UNL     1     -11.738  13.718  40.705  1.00  0.00     0.119 C
BRANCH  18  19
HETATM   19  C1  UNL     1     -10.545  13.856  41.579  1.00  0.00     0.172 C
HETATM   20  O1  UNL     1     -10.612  13.974  42.828  1.00  0.00    -0.648 OA
HETATM   21  O2  UNL     1      -9.280  13.859  41.010  1.00  0.00    -0.648 OA
ENDBRANCH  18  19
ENDBRANCH   1  18
TORSDOF 3
ENDMDL