MODEL 1
REMARK VINA RESULT: -7.806898813      0.000      0.000
REMARK  3 active torsions:
REMARK  status: ('A' for Active; 'I' for Inactive)
REMARK       I    between atoms: C2_5  and  N3_6
REMARK       I    between atoms: C2_5  and  N4_13
REMARK    1  A    between atoms: N3_6  and  C3_8
REMARK    2  A    between atoms: C3_8  and  C4_9
REMARK    3  A    between atoms: N4_13  and  C8_15
ROOT
HETATM    1  N1  UNL     1     -12.951  17.852  44.181  1.00  0.00    -0.171 NA
HETATM    2  C1  UNL     1     -13.350  16.862  43.702  1.00  0.00     0.196 C
HETATM    3  N2  UNL     1     -13.819  15.693  43.115  1.00  0.00    -0.126 N
ATOM      4  H2  UNL     1     -14.730  15.720  42.658  1.00  0.00     0.197 HD
HETATM    5  C2  UNL     1     -13.174  14.579  43.111  1.00  0.00     0.683 C
HETATM    6  N3  UNL     1     -11.899  14.489  43.735  1.00  0.00    -0.225 N
ATOM      7  H3  UNL     1     -11.814  14.088  44.669  1.00  0.00     0.177 HD
HETATM    8  N4  UNL     1     -13.788  13.469  42.469  1.00  0.00    -0.216 N
ATOM      9  H4  UNL     1     -13.183  12.705  42.164  1.00  0.00     0.178 HD
ENDROOT
BRANCH   6  10
HETATM   10  C3  UNL     1     -10.742  14.959  43.053  1.00  0.00     0.142 C
BRANCH  10  11
HETATM   11  C4  UNL     1      -9.976  13.899  42.328  1.00  0.00     0.004 C
HETATM   12  C5  UNL     1     -10.329  13.748  40.859  1.00  0.00     0.006 C
HETATM   13  C6  UNL     1      -8.842  13.458  40.615  1.00  0.00     0.001 C
HETATM   14  C7  UNL     1      -8.576  14.206  41.926  1.00  0.00     0.006 C
ENDBRANCH  10  11
ENDBRANCH   6  10
BRANCH   8  15
HETATM   15  C8  UNL     1     -15.194  13.344  42.219  1.00  0.00     0.048 C
HETATM   16  C9  UNL     1     -15.918  12.933  43.492  1.00  0.00     0.036 C
HETATM   17  C10 UNL     1     -17.371  12.687  43.242  1.00  0.00    -0.012 C
HETATM   18  C11 UNL     1     -17.500  11.473  42.343  1.00  0.00     0.009 C
HETATM   19  C15 UNL     1     -17.980  13.906  42.616  1.00  0.00     0.009 C
HETATM   20  C12 UNL     1     -16.809  11.813  41.043  1.00  0.00    -0.012 C
HETATM   21  C13 UNL     1     -17.474  13.009  40.381  1.00  0.00     0.009 C
HETATM   22  C17 UNL     1     -15.370  12.157  41.256  1.00  0.00     0.036 C
HETATM   23  C14 UNL     1     -17.290  14.184  41.315  1.00  0.00    -0.012 C
HETATM   24  C16 UNL     1     -15.823  14.513  41.528  1.00  0.00     0.036 C
ENDBRANCH   8  15
TORSDOF 3
ENDMDL