MODEL 5
REMARK VINA RESULT: -6.872384161      2.163      3.127
REMARK  5 active torsions:
REMARK  status: ('A' for Active; 'I' for Inactive)
REMARK    1  A    between atoms: C2_2  and  C3_3
REMARK    2  A    between atoms: N1_5  and  N2_7
REMARK    3  A    between atoms: N2_7  and  C5_9
REMARK    4  A    between atoms: C5_9  and  N3_11
REMARK    5  A    between atoms: N3_11  and  C6_13
ROOT
HETATM    1  N3  UNL     1     -14.969  14.687  43.564  1.00  0.00    -0.339 N
ATOM      2  H3  UNL     1     -14.879  14.572  44.574  1.00  0.00     0.168 HD
ENDROOT
BRANCH   1   3
HETATM    3  C5  UNL     1     -14.373  15.846  43.122  1.00  0.00     0.190 C
HETATM    4  S1  UNL     1     -14.851  17.315  43.552  1.00  0.00    -0.039 SA
BRANCH   3   5
HETATM    5  N2  UNL     1     -13.266  15.787  42.211  1.00  0.00    -0.276 N
ATOM      6  H2  UNL     1     -13.431  16.000  41.227  1.00  0.00     0.189 HD
BRANCH   5   7
HETATM    7  N1  UNL     1     -11.977  15.451  42.616  1.00  0.00    -0.307 N
HETATM    8  C3  UNL     1     -11.311  14.552  41.967  1.00  0.00    -0.001 C
HETATM    9  C4  UNL     1     -11.845  13.833  40.785  1.00  0.00     0.065 C
ATOM     10  H1  UNL     1     -11.558  15.912  43.423  1.00  0.00     0.186 HD
BRANCH   8  11
HETATM   11  C2  UNL     1      -9.930  14.194  42.403  1.00  0.00     0.049 C
HETATM   12  C1  UNL     1      -9.126  13.632  41.250  1.00  0.00     0.011 C
ENDBRANCH   8  11
ENDBRANCH   5   7
ENDBRANCH   3   5
ENDBRANCH   1   3
BRANCH   1  13
HETATM   13  C6  UNL     1     -15.670  13.620  42.972  1.00  0.00    -0.003 C
HETATM   14  C7  UNL     1     -16.980  13.198  43.555  1.00  0.00     0.032 C
HETATM   15  C8  UNL     1     -17.017  11.652  43.288  1.00  0.00     0.015 C
HETATM   16  C12 UNL     1     -18.219  13.720  42.924  1.00  0.00     0.015 C
HETATM   17  C9  UNL     1     -16.921  11.454  41.811  1.00  0.00    -0.013 C
HETATM   18  C10 UNL     1     -18.177  12.012  41.169  1.00  0.00     0.009 C
HETATM   19  C15 UNL     1     -15.707  12.027  41.154  1.00  0.00     0.015 C
HETATM   20  C11 UNL     1     -18.191  13.510  41.436  1.00  0.00    -0.013 C
HETATM   21  C13 UNL     1     -16.938  14.065  40.815  1.00  0.00     0.015 C
HETATM   22  C14 UNL     1     -15.694  13.547  41.469  1.00  0.00     0.032 C
ENDBRANCH   1  13
TORSDOF 5
ENDMDL