MODEL 3
REMARK VINA RESULT: -6.502526726      3.637      4.976
REMARK  5 active torsions:
REMARK  status: ('A' for Active; 'I' for Inactive)
REMARK    1  A    between atoms: N1_1  and  C1_5
REMARK    2  A    between atoms: C1_5  and  C2_6
REMARK    3  A    between atoms: C2_6  and  C3_7
REMARK    4  A    between atoms: C3_7  and  O1_8
REMARK    5  A    between atoms: N2_12  and  C6_13
ROOT
HETATM    1  C2  UNL     1     -12.874  16.287  43.946  1.00  0.00     0.007 C
HETATM    2  C4  UNL     1     -13.679  15.354  44.823  1.00  0.00     0.033 C
HETATM    3  C5  UNL     1     -14.915  14.830  44.160  1.00  0.00     0.118 C
HETATM    4  N2  UNL     1     -14.663  14.321  42.856  1.00  0.00    -0.404 N
HETATM    5  C16 UNL     1     -13.941  15.160  41.977  1.00  0.00     0.118 C
HETATM    6  C17 UNL     1     -12.691  15.697  42.592  1.00  0.00     0.033 C
ENDROOT
BRANCH   4   7
HETATM    7  C6  UNL     1     -15.681  13.511  42.303  1.00  0.00     0.029 C
HETATM    8  C7  UNL     1     -16.506  14.286  41.293  1.00  0.00     0.035 C
HETATM    9  C8  UNL     1     -17.556  13.402  40.647  1.00  0.00    -0.012 C
HETATM   10  C9  UNL     1     -16.869  12.290  39.877  1.00  0.00     0.009 C
HETATM   11  C13 UNL     1     -18.477  12.760  41.642  1.00  0.00     0.009 C
HETATM   12  C10 UNL     1     -16.019  11.521  40.848  1.00  0.00    -0.012 C
HETATM   13  C11 UNL     1     -16.883  10.916  41.913  1.00  0.00     0.009 C
HETATM   14  C15 UNL     1     -14.990  12.415  41.479  1.00  0.00     0.035 C
HETATM   15  C12 UNL     1     -17.610  12.012  42.642  1.00  0.00    -0.012 C
HETATM   16  C14 UNL     1     -16.617  12.909  43.301  1.00  0.00     0.035 C
ENDBRANCH   4   7
BRANCH   1  17
HETATM   17  C1  UNL     1     -11.538  16.475  44.635  1.00  0.00     0.241 C
BRANCH  17  18
HETATM   18  N1  UNL     1     -11.644  16.742  46.034  1.00  0.00    -0.079 N
ATOM     19  H13 UNL     1     -11.609  17.746  46.212  1.00  0.00     0.274 HD
ATOM     20  H12 UNL     1     -12.587  16.542  46.367  1.00  0.00     0.274 HD
ATOM     21  H11 UNL     1     -10.952  16.252  46.599  1.00  0.00     0.274 HD
ENDBRANCH  17  18
ENDBRANCH   1  17
BRANCH   1  22
HETATM   22  C3  UNL     1     -13.561  17.635  43.821  1.00  0.00     0.175 C
BRANCH  22  23
HETATM   23  O1  UNL     1     -12.675  18.692  43.836  1.00  0.00    -0.400 OA
ATOM     24  H1  UNL     1     -13.074  19.505  44.122  1.00  0.00     0.209 HD
ENDBRANCH  22  23
ENDBRANCH   1  22
TORSDOF 5
ENDMDL