MODEL 1
REMARK VINA RESULT: -7.715875836      0.000      0.000
REMARK  5 active torsions:
REMARK  status: ('A' for Active; 'I' for Inactive)
REMARK    1  A    between atoms: C6_7  and  C7_8
REMARK    2  A    between atoms: C7_8  and  N1_9
REMARK    3  A    between atoms: N1_9  and  C8_11
REMARK    4  A    between atoms: C8_11  and  N2_13
REMARK    5  A    between atoms: N2_13  and  C9_15
ROOT
HETATM    1  N1  UNL     1     -14.431  15.499  41.609  1.00  0.00    -0.366 N
ATOM      2  H1  UNL     1     -14.061  15.960  40.777  1.00  0.00     0.161 HD
ENDROOT
BRANCH   1   3
HETATM    3  C7  UNL     1     -15.795  15.093  41.516  1.00  0.00     0.139 C
BRANCH   3   4
HETATM    4  C6  UNL     1     -16.157  13.696  41.769  1.00  0.00     0.037 C
HETATM    5  C1  UNL     1     -15.445  12.705  40.924  1.00  0.00     0.137 C
HETATM    6  O1  UNL     1     -14.420  12.862  40.338  1.00  0.00    -0.297 OA
HETATM    7  C2  UNL     1     -16.282  11.490  40.972  1.00  0.00     0.083 C
HETATM    8  C3  UNL     1     -17.608  11.955  41.547  1.00  0.00    -0.006 C
HETATM    9  C4  UNL     1     -17.451  12.056  43.022  1.00  0.00     0.006 C
HETATM   10  C15 UNL     1     -17.582  13.416  41.142  1.00  0.00     0.024 C
HETATM   11  C5  UNL     1     -16.452  13.234  43.148  1.00  0.00     0.019 C
ENDBRANCH   3   4
ENDBRANCH   1   3
BRANCH   1  12
HETATM   12  C8  UNL     1     -13.519  15.364  42.668  1.00  0.00     0.167 C
HETATM   13  S1  UNL     1     -13.434  16.448  43.873  1.00  0.00    -0.041 SA
BRANCH  12  14
HETATM   14  N2  UNL     1     -12.610  14.242  42.646  1.00  0.00    -0.363 N
ATOM     15  H2  UNL     1     -12.869  13.374  43.116  1.00  0.00     0.162 HD
BRANCH  14  16
HETATM   16  C9  UNL     1     -11.362  14.333  41.979  1.00  0.00     0.083 C
HETATM   17  C10 UNL     1     -11.208  13.116  41.039  1.00  0.00     0.025 C
HETATM   18  C11 UNL     1     -10.004  13.442  40.176  1.00  0.00     0.002 C
HETATM   19  C12 UNL     1      -8.780  13.466  41.057  1.00  0.00     0.000 C
HETATM   20  C13 UNL     1      -8.943  14.410  42.236  1.00  0.00     0.002 C
HETATM   21  C14 UNL     1     -10.209  14.136  42.980  1.00  0.00     0.025 C
ENDBRANCH  14  16
ENDBRANCH  12  14
ENDBRANCH   1  12
TORSDOF 5
ENDMDL