MODEL 2
REMARK VINA RESULT: -9.040450508      2.227      2.833
REMARK  8 active torsions:
REMARK  status: ('A' for Active; 'I' for Inactive)
REMARK    1  A    between atoms: C2_2  and  C3_3
REMARK    2  A    between atoms: C3_3  and  C4_4
REMARK    3  A    between atoms: C7_7  and  C8_8
REMARK    4  A    between atoms: C11_17  and  C12_18
REMARK    5  A    between atoms: C13_20  and  N2_21
REMARK       I    between atoms: N2_21  and  C14_23
REMARK       I    between atoms: C14_23  and  N3_25
REMARK    6  A    between atoms: N3_25  and  C15_27
REMARK    7  A    between atoms: C15_27  and  C16_28
REMARK    8  A    between atoms: C20_32  and  O2_33
ROOT
HETATM    1  C3  UNL     1     -13.226  13.482  40.755  1.00  0.00     0.138 C
HETATM    2  N1  UNL     1     -13.286  13.800  42.206  1.00  0.00    -0.057 N
ATOM      3  H11 UNL     1     -13.545  12.995  42.776  1.00  0.00     0.278 HD
ATOM      4  H12 UNL     1     -14.077  14.398  42.445  1.00  0.00     0.278 HD
HETATM    5  C11 UNL     1     -12.051  14.357  42.586  1.00  0.00     0.238 C
HETATM    6  C13 UNL     1     -11.432  15.007  41.405  1.00  0.00     0.129 C
HETATM    7  C22 UNL     1     -12.311  14.541  40.258  1.00  0.00     0.009 C
HETATM    8  C23 UNL     1     -13.008  15.776  39.732  1.00  0.00     0.020 C
HETATM    9  C24 UNL     1     -11.349  14.128  39.167  1.00  0.00     0.020 C
ENDROOT
BRANCH   6  10
HETATM   10  N2  UNL     1     -10.059  14.729  41.242  1.00  0.00    -0.336 N
HETATM   11  C14 UNL     1      -9.189  15.638  40.593  1.00  0.00     0.316 C
HETATM   12  O1  UNL     1      -9.690  16.717  40.166  1.00  0.00    -0.247 OA
HETATM   13  N3  UNL     1      -7.820  15.407  40.405  1.00  0.00    -0.339 N
ATOM     14  H3  UNL     1      -7.405  14.540  40.746  1.00  0.00     0.164 HD
ATOM     15  H2  UNL     1      -9.683  13.851  41.600  1.00  0.00     0.164 HD
BRANCH  13  16
HETATM   16  C15 UNL     1      -6.992  16.376  39.737  1.00  0.00     0.163 C
BRANCH  16  17
HETATM   17  C16 UNL     1      -7.215  16.421  38.273  1.00  0.00    -0.038 A
HETATM   18  C17 UNL     1      -7.415  17.597  37.594  1.00  0.00     0.009 A
HETATM   19  C18 UNL     1      -7.616  17.614  36.238  1.00  0.00     0.003 A
HETATM   20  C19 UNL     1      -7.625  16.452  35.513  1.00  0.00     0.036 A
HETATM   21  C20 UNL     1      -7.425  15.264  36.189  1.00  0.00     0.066 A
HETATM   22  C21 UNL     1      -7.221  15.237  37.552  1.00  0.00     0.045 A
BRANCH  21  23
HETATM   23  O2  UNL     1      -7.433  14.073  35.447  1.00  0.00    -0.361 OA
ATOM     24  H2  UNL     1      -7.675  13.270  35.893  1.00  0.00     0.217 HD
ENDBRANCH  21  23
ENDBRANCH  16  17
ENDBRANCH  13  16
ENDBRANCH   6  10
BRANCH   5  25
HETATM   25  C12 UNL     1     -12.184  15.349  43.750  1.00  0.00     0.257 C
HETATM   26  F4  UNL     1     -13.497  15.565  44.068  1.00  0.00    -0.253 F
ENDBRANCH   5  25
BRANCH   1  27
HETATM   27  C2  UNL     1     -12.645  12.098  40.816  1.00  0.00     0.035 C
HETATM   28  C1  UNL     1     -12.456  11.288  39.629  1.00  0.00     0.007 C
ENDBRANCH   1  27
BRANCH   1  29
HETATM   29  C4  UNL     1     -14.641  13.568  40.316  1.00  0.00     0.022 C
HETATM   30  C5  UNL     1     -15.283  12.470  39.606  1.00  0.00     0.008 C
HETATM   31  C6  UNL     1     -16.596  11.981  40.253  1.00  0.00     0.014 C
HETATM   32  C7  UNL     1     -17.537  13.122  40.478  1.00  0.00     0.093 C
HETATM   33  C9  UNL     1     -16.822  14.327  41.074  1.00  0.00     0.014 C
HETATM   34  C10 UNL     1     -15.487  13.817  41.579  1.00  0.00     0.008 C
BRANCH  32  35
HETATM   35  C8  UNL     1     -18.617  12.731  41.441  1.00  0.00     0.391 C
HETATM   36  F1  UNL     1     -19.052  13.800  42.193  1.00  0.00    -0.171 F
HETATM   37  F2  UNL     1     -18.264  11.644  42.219  1.00  0.00    -0.171 F
HETATM   38  F3  UNL     1     -19.713  12.309  40.678  1.00  0.00    -0.171 F
ENDBRANCH  32  35
ENDBRANCH   1  29
TORSDOF 8
ENDMDL