MODEL 1
REMARK VINA RESULT: -9.209131198      0.000      0.000
REMARK  10 active torsions:
REMARK  status: ('A' for Active; 'I' for Inactive)
REMARK    1  A    between atoms: N1_5  and  C5_6
REMARK    2  A    between atoms: C5_6  and  C6_7
REMARK    3  A    between atoms: C6_7  and  N2_8
REMARK       I    between atoms: N2_8  and  C7_9
REMARK       I    between atoms: C7_9  and  N3_11
REMARK    4  A    between atoms: N3_11  and  C8_13
REMARK    5  A    between atoms: C11_16  and  N4_17
REMARK    6  A    between atoms: N4_17  and  C12_18
REMARK    7  A    between atoms: C12_18  and  O2_19
REMARK    8  A    between atoms: C12_18  and  N5_21
REMARK    9  A    between atoms: N5_21  and  C13_23
REMARK   10  A    between atoms: C16_26  and  C17_27
ROOT
HETATM    1  C8  UNL     1     -10.747  13.380  39.610  1.00  0.00     0.037 A
HETATM    2  C9  UNL     1     -12.035  13.903  39.430  1.00  0.00     0.033 A
HETATM    3  C10 UNL     1     -13.087  13.098  39.318  1.00  0.00     0.047 A
HETATM    4  C11 UNL     1     -12.991  11.636  39.371  1.00  0.00     0.111 A
HETATM    5  C20 UNL     1     -11.766  11.176  39.537  1.00  0.00     0.047 A
HETATM    6  C21 UNL     1     -10.646  12.037  39.657  1.00  0.00     0.033 A
ENDROOT
BRANCH   4   7
HETATM    7  N4  UNL     1     -14.246  11.159  39.236  1.00  0.00    -0.365 NA
BRANCH   7   8
HETATM    8  C12 UNL     1     -15.487  10.900  38.937  1.00  0.00     0.299 C
BRANCH   8   9
HETATM    9  O2  UNL     1     -15.678  10.910  37.559  1.00  0.00    -0.321 OA
ATOM     10  H2  UNL     1     -15.787  10.028  37.225  1.00  0.00     0.222 HD
ENDBRANCH   8   9
BRANCH   8  11
HETATM   11  N5  UNL     1     -16.683  10.608  39.557  1.00  0.00    -0.310 N
ATOM     12  H5  UNL     1     -17.190   9.730  39.454  1.00  0.00     0.170 HD
BRANCH  11  13
HETATM   13  C13 UNL     1     -17.125  11.732  40.382  1.00  0.00     0.036 A
HETATM   14  C14 UNL     1     -16.562  12.948  40.318  1.00  0.00     0.030 A
HETATM   15  C15 UNL     1     -16.815  13.929  41.326  1.00  0.00     0.018 A
HETATM   16  C16 UNL     1     -17.632  13.608  42.356  1.00  0.00     0.048 A
HETATM   17  C18 UNL     1     -18.220  12.337  42.404  1.00  0.00     0.018 A
HETATM   18  C19 UNL     1     -17.985  11.404  41.442  1.00  0.00     0.030 A
BRANCH  16  19
HETATM   19  C17 UNL     1     -17.885  14.568  43.481  1.00  0.00     0.417 C
HETATM   20  F1  UNL     1     -17.309  14.104  44.677  1.00  0.00    -0.166 F
HETATM   21  F2  UNL     1     -19.198  14.668  43.694  1.00  0.00    -0.166 F
HETATM   22  F3  UNL     1     -17.279  15.748  43.187  1.00  0.00    -0.166 F
ENDBRANCH  16  19
ENDBRANCH  11  13
ENDBRANCH   8  11
ENDBRANCH   7   8
ENDBRANCH   4   7
BRANCH   1  23
HETATM   23  N3  UNL     1      -9.721  14.321  39.803  1.00  0.00    -0.297 N
HETATM   24  C7  UNL     1      -9.259  14.875  41.054  1.00  0.00     0.397 C
HETATM   25  N2  UNL     1      -8.319  15.849  40.983  1.00  0.00    -0.367 NA
HETATM   26  O1  UNL     1      -9.788  14.412  42.094  1.00  0.00    -0.230 OA
ATOM     27  H3  UNL     1      -9.248  14.652  38.962  1.00  0.00     0.172 HD
BRANCH  25  28
HETATM   28  C6  UNL     1      -7.348  16.853  40.916  1.00  0.00     0.191 C
BRANCH  28  29
HETATM   29  C5  UNL     1      -6.000  16.427  40.428  1.00  0.00     0.331 C
BRANCH  29  30
HETATM   30  N1  UNL     1      -5.596  17.053  39.177  1.00  0.00     0.094 N
HETATM   31  C4  UNL     1      -6.632  17.676  38.469  1.00  0.00     0.273 C
HETATM   32  C3  UNL     1      -6.960  17.085  37.115  1.00  0.00     0.034 C
HETATM   33  C2  UNL     1      -7.211  15.592  37.325  1.00  0.00    -0.015 C
HETATM   34  C1  UNL     1      -7.713  15.022  36.018  1.00  0.00     0.010 C
HETATM   35  C23 UNL     1      -5.919  14.997  37.819  1.00  0.00     0.034 C
HETATM   36  C22 UNL     1      -4.930  16.049  38.365  1.00  0.00     0.273 C
ENDBRANCH  29  30
ENDBRANCH  28  29
ENDBRANCH  25  28
ENDBRANCH   1  23
TORSDOF 10
ENDMDL