MODEL 5
REMARK VINA RESULT: -6.693048034      2.135      2.757
REMARK  9 active torsions:
REMARK  status: ('A' for Active; 'I' for Inactive)
REMARK    1  A    between atoms: O1_1  and  C1_3
REMARK    2  A    between atoms: C1_3  and  C2_4
REMARK    3  A    between atoms: C2_4  and  C3_5
REMARK    4  A    between atoms: C2_4  and  C15_25
REMARK    5  A    between atoms: C4_6  and  C5_7
REMARK    6  A    between atoms: C5_7  and  C6_8
REMARK    7  A    between atoms: C6_8  and  C7_9
REMARK    8  A    between atoms: C11_14  and  O2_15
REMARK    9  A    between atoms: C13_19  and  O3_20
ROOT
HETATM    1  C7  UNL     1     -12.683  12.920  39.610  1.00  0.00     0.011 A
HETATM    2  C8  UNL     1     -13.234  13.388  40.766  1.00  0.00     0.040 A
HETATM    3  C9  UNL     1     -12.210  14.083  41.420  1.00  0.00     0.015 A
HETATM    4  C10 UNL     1     -12.180  14.751  42.602  1.00  0.00     0.058 A
HETATM    5 BR1  UNL     1     -13.727  14.868  43.706  1.00  0.00    -0.047 Br
HETATM    6  C11 UNL     1     -10.996  15.346  42.987  1.00  0.00     0.104 A
HETATM    7  C12 UNL     1      -9.874  15.245  42.155  1.00  0.00     0.081 A
HETATM    8 BR2  UNL     1      -8.260  16.090  42.738  1.00  0.00    -0.045 Br
HETATM    9  C13 UNL     1      -9.921  14.562  40.957  1.00  0.00     0.113 A
HETATM   10  C14 UNL     1     -11.099  13.975  40.584  1.00  0.00     0.079 A
HETATM   11  N1  UNL     1     -11.401  13.265  39.487  1.00  0.00    -0.357 N
ATOM     12  H1  UNL     1     -10.776  13.036  38.714  1.00  0.00     0.166 HD
ENDROOT
BRANCH   1  13
HETATM   13  C6  UNL     1     -13.449  12.106  38.590  1.00  0.00     0.061 C
BRANCH  13  14
HETATM   14  C5  UNL     1     -14.452  11.337  39.357  1.00  0.00     0.033 C
BRANCH  14  15
HETATM   15  C4  UNL     1     -15.857  11.410  39.060  1.00  0.00    -0.030 C
HETATM   16  C3  UNL     1     -16.868  11.848  39.683  1.00  0.00    -0.023 C
BRANCH  16  17
HETATM   17  C2  UNL     1     -16.993  12.469  40.989  1.00  0.00     0.045 C
BRANCH  17  18
HETATM   18  C1  UNL     1     -18.034  11.661  41.814  1.00  0.00     0.173 C
BRANCH  18  19
HETATM   19  O1  UNL     1     -18.778  10.845  40.974  1.00  0.00    -0.400 OA
ATOM     20  H1  UNL     1     -18.509   9.940  41.075  1.00  0.00     0.209 HD
ENDBRANCH  18  19
ENDBRANCH  17  18
BRANCH  17  21
HETATM   21  C15 UNL     1     -17.553  13.885  40.792  1.00  0.00     0.125 C
HETATM   22 CL1  UNL     1     -16.228  15.042  40.851  1.00  0.00    -0.130 Cl
ENDBRANCH  17  21
ENDBRANCH  16  17
ENDBRANCH  14  15
ENDBRANCH  13  14
ENDBRANCH   1  13
BRANCH   9  23
HETATM   23  O3  UNL     1      -8.764  14.498  40.174  1.00  0.00    -0.357 OA
ATOM     24  H3  UNL     1      -8.401  13.646  39.965  1.00  0.00     0.217 HD
ENDBRANCH   9  23
BRANCH   6  25
HETATM   25  O2  UNL     1     -10.913  16.034  44.170  1.00  0.00    -0.358 OA
ATOM     26  H2  UNL     1     -11.699  16.312  44.625  1.00  0.00     0.217 HD
ENDBRANCH   6  25
TORSDOF 9
ENDMDL