MODEL 5
REMARK VINA RESULT: -8.594602222      5.247      7.953
REMARK  8 active torsions:
REMARK  status: ('A' for Active; 'I' for Inactive)
REMARK    1  A    between atoms: C2_2  and  C3_3
REMARK    2  A    between atoms: C3_3  and  C4_4
REMARK    3  A    between atoms: C4_4  and  C5_5
REMARK    4  A    between atoms: C5_5  and  C6_6
REMARK    5  A    between atoms: C11_12  and  N2_13
REMARK       I    between atoms: N2_13  and  C12_15
REMARK       I    between atoms: C12_15  and  N3_17
REMARK       I    between atoms: C13_19  and  N4_20
REMARK       I    between atoms: C13_19  and  N5_26
REMARK    6  A    between atoms: N4_20  and  C14_22
REMARK    7  A    between atoms: N5_26  and  C18_28
REMARK    8  A    between atoms: C18_28  and  C20_31
ROOT
HETATM    1  C6  UNL     1     -16.818  12.889  41.207  1.00  0.00    -0.056 A
HETATM    2  C7  UNL     1     -18.025  12.777  41.818  1.00  0.00     0.009 A
HETATM    3  C8  UNL     1     -18.302  13.617  42.855  1.00  0.00     0.025 A
HETATM    4  C9  UNL     1     -17.439  14.571  43.325  1.00  0.00     0.071 A
HETATM    5  C10 UNL     1     -17.810  15.422  44.430  1.00  0.00     0.102 C
HETATM    6  N1  UNL     1     -18.087  16.092  45.315  1.00  0.00    -0.191 NA
HETATM    7  C11 UNL     1     -16.185  14.685  42.688  1.00  0.00     0.057 A
HETATM    8  C21 UNL     1     -15.891  13.849  41.644  1.00  0.00     0.038 A
ENDROOT
BRANCH   7   9
HETATM    9  N2  UNL     1     -15.333  15.677  43.206  1.00  0.00    -0.307 N
HETATM   10  C12 UNL     1     -14.187  15.443  43.966  1.00  0.00     0.339 C
HETATM   11  O1  UNL     1     -13.755  14.341  44.293  1.00  0.00    -0.246 OA
HETATM   12  N3  UNL     1     -13.425  16.573  44.419  1.00  0.00    -0.141 N
HETATM   13  C13 UNL     1     -12.304  16.938  43.930  1.00  0.00     0.680 C
ATOM     14  H3  UNL     1     -13.807  17.124  45.188  1.00  0.00     0.189 HD
HETATM   15  N4  UNL     1     -11.723  16.218  42.867  1.00  0.00    -0.218 N
HETATM   16  N5  UNL     1     -11.655  18.068  44.469  1.00  0.00    -0.198 N
ATOM     17  H4  UNL     1     -11.464  15.244  43.022  1.00  0.00     0.178 HD
ATOM     18  H5  UNL     1     -10.636  18.108  44.429  1.00  0.00     0.179 HD
ATOM     19  H2  UNL     1     -15.573  16.649  43.009  1.00  0.00     0.170 HD
BRANCH  15  20
HETATM   20  C14 UNL     1     -11.478  16.795  41.577  1.00  0.00     0.036 C
HETATM   21  C15 UNL     1     -11.145  15.707  40.574  1.00  0.00     0.038 C
HETATM   22  C16 UNL     1     -10.305  17.756  41.590  1.00  0.00     0.038 C
HETATM   23  C17 UNL     1     -12.713  17.497  41.025  1.00  0.00     0.038 C
ENDBRANCH  15  20
BRANCH  16  24
HETATM   24  C18 UNL     1     -12.367  19.177  45.078  1.00  0.00     0.199 C
HETATM   25  C19 UNL     1     -12.835  18.839  46.474  1.00  0.00     0.062 C
HETATM   26  S1  UNL     1     -13.826  19.664  44.115  1.00  0.00    -0.053 SA
BRANCH  24  27
HETATM   27  C20 UNL     1     -11.476  20.396  45.177  1.00  0.00     0.423 C
HETATM   28  F1  UNL     1     -11.121  20.693  46.464  1.00  0.00    -0.167 F
HETATM   29  F2  UNL     1     -12.148  21.444  44.575  1.00  0.00    -0.167 F
HETATM   30  F3  UNL     1     -10.349  20.126  44.391  1.00  0.00    -0.167 F
ENDBRANCH  24  27
ENDBRANCH  16  24
ENDBRANCH   7   9
BRANCH   1  31
HETATM   31  C5  UNL     1     -16.397  12.043  40.073  1.00  0.00     0.038 C
BRANCH  31  32
HETATM   32  C4  UNL     1     -14.920  12.091  39.805  1.00  0.00     0.005 C
BRANCH  32  33
HETATM   33  C3  UNL     1     -14.712  11.752  38.348  1.00  0.00    -0.000 C
BRANCH  33  34
HETATM   34  C2  UNL     1     -15.904  11.054  37.750  1.00  0.00    -0.005 C
HETATM   35  C1  UNL     1     -15.940  11.260  36.264  1.00  0.00     0.005 C
ENDBRANCH  33  34
ENDBRANCH  32  33
ENDBRANCH  31  32
ENDBRANCH   1  31
TORSDOF 8
ENDMDL