MODEL 4
REMARK VINA RESULT: -9.305501144      2.741      3.917
REMARK  10 active torsions:
REMARK  status: ('A' for Active; 'I' for Inactive)
REMARK    1  A    between atoms: C2_2  and  O1_3
REMARK    2  A    between atoms: C2_2  and  C24_33
REMARK    3  A    between atoms: O1_3  and  C3_4
REMARK    4  A    between atoms: C3_4  and  N2_8
REMARK    5  A    between atoms: N2_8  and  C4_10
REMARK    6  A    between atoms: C4_10  and  C5_11
REMARK    7  A    between atoms: C9_15  and  C10_16
REMARK       I    between atoms: C10_16  and  N3_18
REMARK    8  A    between atoms: N3_18  and  C11_20
REMARK    9  A    between atoms: C11_20  and  C13_22
REMARK   10  A    between atoms: C13_22  and  C14_23
ROOT
HETATM    1  C5  UNL     1     -10.393  16.261  39.980  1.00  0.00    -0.028 C
HETATM    2  C6  UNL     1     -11.693  16.785  40.526  1.00  0.00     0.016 C
HETATM    3  C7  UNL     1     -10.742  15.275  38.875  1.00  0.00     0.011 C
HETATM    4  C8  UNL     1      -9.641  14.245  38.827  1.00  0.00     0.015 C
HETATM    5  C9  UNL     1      -9.851  13.308  39.995  1.00  0.00     0.078 C
HETATM    6  C22 UNL     1     -10.260  14.139  41.189  1.00  0.00     0.015 C
HETATM    7  C23 UNL     1      -9.662  15.524  41.059  1.00  0.00     0.011 C
ENDROOT
BRANCH   1   8
HETATM    8  C4  UNL     1      -9.560  17.349  39.345  1.00  0.00     0.132 C
BRANCH   8   9
HETATM    9  N2  UNL     1      -8.257  17.464  39.907  1.00  0.00    -0.356 N
ATOM     10  H2  UNL     1      -8.104  17.240  40.890  1.00  0.00     0.163 HD
BRANCH   9  11
HETATM   11  C3  UNL     1      -7.176  17.890  39.100  1.00  0.00     0.218 C
HETATM   12  N1  UNL     1      -6.110  18.455  39.609  1.00  0.00    -0.365 N
ATOM     13  H12 UNL     1      -5.330  18.762  39.027  1.00  0.00     0.159 HD
ATOM     14  H11 UNL     1      -6.119  18.564  40.623  1.00  0.00     0.159 HD
BRANCH  11  15
HETATM   15  O1  UNL     1      -7.163  17.741  37.717  1.00  0.00    -0.276 OA
BRANCH  15  16
HETATM   16  C2  UNL     1      -7.036  16.476  37.117  1.00  0.00     0.153 C
HETATM   17  C1  UNL     1      -6.200  15.620  37.661  1.00  0.00     0.056 C
BRANCH  16  18
HETATM   18  C24 UNL     1      -7.801  16.100  35.921  1.00  0.00     0.438 C
HETATM   19  F1  UNL     1      -7.566  17.009  34.910  1.00  0.00    -0.164 F
HETATM   20  F2  UNL     1      -7.363  14.866  35.470  1.00  0.00    -0.164 F
HETATM   21  F3  UNL     1      -9.155  16.057  36.191  1.00  0.00    -0.164 F
ENDBRANCH  16  18
ENDBRANCH  15  16
ENDBRANCH  11  15
ENDBRANCH   9  11
ENDBRANCH   8   9
ENDBRANCH   1   8
BRANCH   5  22
HETATM   22  C10 UNL     1     -10.857  12.311  39.622  1.00  0.00     0.222 C
HETATM   23  O2  UNL     1     -10.518  11.129  39.281  1.00  0.00    -0.273 OA
HETATM   24  N3  UNL     1     -12.264  12.577  39.611  1.00  0.00    -0.356 N
ATOM     25  H3  UNL     1     -12.585  13.508  39.876  1.00  0.00     0.162 HD
BRANCH  24  26
HETATM   26  C11 UNL     1     -13.245  11.593  39.245  1.00  0.00     0.084 C
HETATM   27  C12 UNL     1     -13.960  11.980  37.952  1.00  0.00     0.032 C
BRANCH  26  28
HETATM   28  C13 UNL     1     -14.220  11.271  40.339  1.00  0.00     0.063 C
BRANCH  28  29
HETATM   29  C14 UNL     1     -15.264  12.284  40.519  1.00  0.00    -0.055 A
HETATM   30  C15 UNL     1     -16.590  11.893  40.469  1.00  0.00     0.013 A
HETATM   31  C16 UNL     1     -17.625  12.798  40.630  1.00  0.00    -0.061 A
HETATM   32  C17 UNL     1     -19.056  12.391  40.579  1.00  0.00     0.048 C
HETATM   33  C18 UNL     1     -17.344  14.130  40.848  1.00  0.00     0.013 A
HETATM   34  C19 UNL     1     -16.039  14.550  40.901  1.00  0.00    -0.061 A
HETATM   35  C20 UNL     1     -15.732  15.971  41.134  1.00  0.00     0.048 C
HETATM   36  C21 UNL     1     -15.024  13.624  40.738  1.00  0.00     0.013 A
ENDBRANCH  28  29
ENDBRANCH  26  28
ENDBRANCH  24  26
ENDBRANCH   5  22
TORSDOF 10
ENDMDL