MODEL 1
REMARK VINA RESULT: -9.659860413      0.000      0.000
REMARK  8 active torsions:
REMARK  status: ('A' for Active; 'I' for Inactive)
REMARK    1  A    between atoms: C6_6  and  N1_7
REMARK       I    between atoms: N1_7  and  C7_9
REMARK       I    between atoms: C7_9  and  N2_11
REMARK    2  A    between atoms: C10_14  and  C11_15
REMARK    3  A    between atoms: C11_15  and  C12_16
REMARK    4  A    between atoms: C12_16  and  C13_17
REMARK    5  A    between atoms: C13_17  and  C14_19
REMARK    6  A    between atoms: C18_24  and  C19_25
REMARK    7  A    between atoms: C19_25  and  N3_26
REMARK    8  A    between atoms: C21_31  and  N4_32
ROOT
HETATM    1  N1  UNL     1     -13.494  14.760  40.586  1.00  0.00    -0.308 N
ATOM      2  H1  UNL     1     -13.110  15.018  39.676  1.00  0.00     0.170 HD
HETATM    3  C7  UNL     1     -12.740  15.052  41.721  1.00  0.00     0.323 C
HETATM    4  O1  UNL     1     -13.180  14.747  42.855  1.00  0.00    -0.247 OA
HETATM    5  N2  UNL     1     -11.481  15.690  41.637  1.00  0.00    -0.332 N
HETATM    6  C8  UNL     1     -10.928  16.084  40.367  1.00  0.00     0.128 C
HETATM    7  C9  UNL     1     -10.042  17.271  40.535  1.00  0.00     0.027 C
HETATM    8  C10 UNL     1      -8.927  17.100  41.532  1.00  0.00     0.019 C
HETATM    9  C21 UNL     1      -9.206  16.011  42.517  1.00  0.00     0.205 C
HETATM   10  C22 UNL     1     -10.695  15.958  42.839  1.00  0.00     0.160 C
ENDROOT
BRANCH   8  11
HETATM   11  C11 UNL     1      -7.634  16.940  40.805  1.00  0.00     0.009 C
BRANCH  11  12
HETATM   12  C12 UNL     1      -7.172  18.164  40.063  1.00  0.00     0.038 C
BRANCH  12  13
HETATM   13  C13 UNL     1      -6.421  17.820  38.802  1.00  0.00     0.174 C
HETATM   14  F1  UNL     1      -5.152  17.370  39.146  1.00  0.00    -0.249 F
BRANCH  13  15
HETATM   15  C14 UNL     1      -7.107  16.732  38.050  1.00  0.00     0.022 C
HETATM   16  C15 UNL     1      -7.354  17.226  36.635  1.00  0.00     0.044 C
HETATM   17  C16 UNL     1      -8.072  16.247  35.775  1.00  0.00     0.171 C
HETATM   18  F2  UNL     1      -7.901  16.664  34.447  1.00  0.00    -0.249 F
HETATM   19  C17 UNL     1      -7.524  14.849  35.850  1.00  0.00     0.043 C
HETATM   20  C18 UNL     1      -7.077  14.451  37.215  1.00  0.00     0.014 C
HETATM   21  C20 UNL     1      -6.240  15.500  37.918  1.00  0.00     0.013 C
BRANCH  20  22
HETATM   22  C19 UNL     1      -6.251  13.188  37.138  1.00  0.00     0.234 C
BRANCH  22  23
HETATM   23  N3  UNL     1      -4.933  13.397  37.739  1.00  0.00    -0.079 N
ATOM     24  H33 UNL     1      -4.321  13.939  37.130  1.00  0.00     0.274 HD
ATOM     25  H32 UNL     1      -4.975  14.042  38.528  1.00  0.00     0.274 HD
ATOM     26  H31 UNL     1      -4.513  12.505  38.002  1.00  0.00     0.274 HD
ENDBRANCH  22  23
ENDBRANCH  20  22
ENDBRANCH  13  15
ENDBRANCH  12  13
ENDBRANCH  11  12
ENDBRANCH   8  11
BRANCH   9  27
HETATM   27  N4  UNL     1      -8.819  14.696  42.128  1.00  0.00    -0.073 N
ATOM     28  H43 UNL     1      -7.987  14.741  41.541  1.00  0.00     0.274 HD
ATOM     29  H42 UNL     1      -8.450  14.193  42.935  1.00  0.00     0.274 HD
ATOM     30  H41 UNL     1      -9.535  14.131  41.669  1.00  0.00     0.274 HD
ENDBRANCH   9  27
BRANCH   1  31
HETATM   31  C6  UNL     1     -14.768  14.122  40.619  1.00  0.00     0.048 A
HETATM   32  C4  UNL     1     -15.922  14.836  40.840  1.00  0.00    -0.034 A
HETATM   33  C3  UNL     1     -17.157  14.181  40.867  1.00  0.00     0.015 A
HETATM   34  C5  UNL     1     -15.825  16.306  41.046  1.00  0.00     0.050 C
HETATM   35  C2  UNL     1     -17.238  12.837  40.676  1.00  0.00    -0.061 A
HETATM   36  C1  UNL     1     -18.552  12.104  40.701  1.00  0.00     0.048 C
HETATM   37  C25 UNL     1     -16.083  12.124  40.457  1.00  0.00     0.015 A
HETATM   38  C23 UNL     1     -14.838  12.766  40.426  1.00  0.00    -0.034 A
HETATM   39  C24 UNL     1     -13.575  12.020  40.191  1.00  0.00     0.050 C
ENDBRANCH   1  31
TORSDOF 8
ENDMDL