MODEL 4
REMARK VINA RESULT: -8.362125190      1.976      3.849
REMARK  9 active torsions:
REMARK  status: ('A' for Active; 'I' for Inactive)
REMARK    1  A    between atoms: C2_2  and  C3_3
REMARK    2  A    between atoms: C6_6  and  C7_7
REMARK    3  A    between atoms: C9_12  and  N1_13
REMARK       I    between atoms: N1_13  and  C10_15
REMARK       I    between atoms: C10_15  and  N2_17
REMARK    4  A    between atoms: N2_17  and  C11_19
REMARK    5  A    between atoms: C14_22  and  C16_24
REMARK    6  A    between atoms: C16_24  and  C17_25
REMARK    7  A    between atoms: C17_25  and  N3_26
REMARK       I    between atoms: N3_26  and  C18_28
REMARK    8  A    between atoms: C18_28  and  O3_30
REMARK    9  A    between atoms: O3_30  and  C19_31
ROOT
HETATM    1  C11 UNL     1      -9.851  14.068  40.697  1.00  0.00     0.288 C
HETATM    2  C12 UNL     1      -9.125  15.299  41.061  1.00  0.00     0.057 C
HETATM    3  C13 UNL     1      -8.470  15.812  39.844  1.00  0.00     0.042 C
HETATM    4  C14 UNL     1      -8.838  14.845  38.754  1.00  0.00     0.126 C
HETATM    5  C15 UNL     1      -9.525  15.660  37.644  1.00  0.00     0.046 C
HETATM    6  N4  UNL     1      -9.840  13.982  39.272  1.00  0.00    -0.046 N
ATOM      7  H41 UNL     1     -10.757  14.169  38.868  1.00  0.00     0.280 HD
ATOM      8  H42 UNL     1      -9.730  13.022  38.945  1.00  0.00     0.280 HD
ENDROOT
BRANCH   1   9
HETATM    9  N2  UNL     1     -11.081  13.801  41.351  1.00  0.00    -0.315 N
HETATM   10  C10 UNL     1     -12.409  14.107  41.083  1.00  0.00     0.322 C
HETATM   11  N1  UNL     1     -13.450  13.729  42.023  1.00  0.00    -0.308 N
HETATM   12  O1  UNL     1     -12.903  14.707  40.086  1.00  0.00    -0.247 OA
ATOM     13  H1  UNL     1     -13.119  13.339  42.906  1.00  0.00     0.170 HD
ATOM     14  H2  UNL     1     -10.965  13.263  42.209  1.00  0.00     0.166 HD
BRANCH  11  15
HETATM   15  C9  UNL     1     -14.833  13.820  41.897  1.00  0.00     0.043 A
HETATM   16  C3  UNL     1     -15.468  14.766  42.707  1.00  0.00    -0.032 A
HETATM   17  C4  UNL     1     -16.852  14.743  42.777  1.00  0.00     0.010 A
HETATM   18  C5  UNL     1     -17.581  13.819  42.069  1.00  0.00     0.017 A
HETATM   19  C6  UNL     1     -16.978  12.884  41.251  1.00  0.00     0.050 A
HETATM   20  C8  UNL     1     -15.588  12.926  41.192  1.00  0.00     0.046 A
BRANCH  16  21
HETATM   21  C2  UNL     1     -14.651  15.866  43.344  1.00  0.00     0.036 C
HETATM   22  C1  UNL     1     -15.567  17.125  43.369  1.00  0.00     0.010 C
ENDBRANCH  16  21
BRANCH  19  23
HETATM   23  C7  UNL     1     -17.812  11.871  40.514  1.00  0.00     0.417 C
HETATM   24  F1  UNL     1     -18.981  12.445  40.026  1.00  0.00    -0.166 F
HETATM   25  F2  UNL     1     -18.209  10.899  41.412  1.00  0.00    -0.166 F
HETATM   26  F3  UNL     1     -17.091  11.394  39.446  1.00  0.00    -0.166 F
ENDBRANCH  19  23
ENDBRANCH  11  15
ENDBRANCH   1   9
BRANCH   4  27
HETATM   27  C16 UNL     1      -7.706  14.144  38.078  1.00  0.00     0.058 C
BRANCH  27  28
HETATM   28  C17 UNL     1      -7.011  14.905  36.990  1.00  0.00     0.127 C
BRANCH  28  29
HETATM   29  N3  UNL     1      -6.250  15.988  37.611  1.00  0.00    -0.337 N
HETATM   30  C18 UNL     1      -4.951  15.851  38.121  1.00  0.00     0.361 C
HETATM   31  O2  UNL     1      -4.277  14.777  38.079  1.00  0.00    -0.238 OA
ATOM     32  H3  UNL     1      -6.693  16.904  37.678  1.00  0.00     0.164 HD
BRANCH  30  33
HETATM   33  O3  UNL     1      -4.312  16.906  38.739  1.00  0.00    -0.294 OA
BRANCH  33  34
HETATM   34  C19 UNL     1      -4.740  17.546  39.900  1.00  0.00     0.061 C
HETATM   35  C20 UNL     1      -5.867  18.518  39.683  1.00  0.00     0.046 C
HETATM   36  C21 UNL     1      -5.047  16.676  41.072  1.00  0.00     0.046 C
HETATM   37  C22 UNL     1      -3.543  18.442  40.316  1.00  0.00     0.046 C
ENDBRANCH  33  34
ENDBRANCH  30  33
ENDBRANCH  28  29
ENDBRANCH  27  28
ENDBRANCH   4  27
TORSDOF 9
ENDMDL