MODEL 1
REMARK VINA RESULT: -8.799270001      0.000      0.000
REMARK  8 active torsions:
REMARK  status: ('A' for Active; 'I' for Inactive)
REMARK    1  A    between atoms: C2_2  and  C5_5
REMARK    2  A    between atoms: C5_5  and  C6_6
REMARK    3  A    between atoms: C6_6  and  C9_9
REMARK    4  A    between atoms: C11_11  and  N1_12
REMARK       I    between atoms: N1_12  and  C12_14
REMARK       I    between atoms: C12_14  and  N3_18
REMARK    5  A    between atoms: N3_18  and  C13_20
REMARK    6  A    between atoms: C19_27  and  C20_28
REMARK    7  A    between atoms: C20_28  and  O1_29
REMARK    8  A    between atoms: C22_32  and  C23_33
ROOT
HETATM    1  N1  UNL     1     -11.189  12.345  40.213  1.00  0.00    -0.192 N
ATOM      2  H1  UNL     1     -10.858  11.388  40.091  1.00  0.00     0.184 HD
HETATM    3  C12 UNL     1     -10.247  13.435  40.383  1.00  0.00     0.672 C
HETATM    4  N2  UNL     1      -9.780  13.517  41.547  1.00  0.00    -0.235 N
ATOM      5  H21 UNL     1      -9.117  14.284  41.667  1.00  0.00     0.174 HD
ATOM      6  H22 UNL     1      -9.999  12.897  42.327  1.00  0.00     0.174 HD
HETATM    7  N3  UNL     1      -9.944  14.290  39.310  1.00  0.00    -0.220 N
ATOM      8  H3  UNL     1     -10.748  14.554  38.739  1.00  0.00     0.178 HD
ENDROOT
BRANCH   1   9
HETATM    9  C11 UNL     1     -12.571  12.630  40.218  1.00  0.00     0.050 A
HETATM   10  C10 UNL     1     -13.118  13.557  41.073  1.00  0.00     0.038 A
HETATM   11  C9  UNL     1     -14.456  13.833  41.071  1.00  0.00    -0.047 A
HETATM   12  C24 UNL     1     -15.244  13.141  40.172  1.00  0.00     0.024 A
HETATM   13  C22 UNL     1     -14.768  12.202  39.294  1.00  0.00     0.050 A
HETATM   14  C21 UNL     1     -13.408  11.953  39.326  1.00  0.00     0.046 A
BRANCH  11  15
HETATM   15  C6  UNL     1     -15.142  14.828  41.968  1.00  0.00    -0.020 C
HETATM   16  C7  UNL     1     -16.620  14.347  41.900  1.00  0.00     0.020 C
HETATM   17  C8  UNL     1     -14.781  14.744  43.392  1.00  0.00     0.020 C
BRANCH  15  18
HETATM   18  C5  UNL     1     -15.198  16.170  41.341  1.00  0.00     0.022 C
BRANCH  18  19
HETATM   19  C2  UNL     1     -14.097  17.123  41.444  1.00  0.00    -0.050 C
HETATM   20  C1  UNL     1     -13.737  17.519  39.994  1.00  0.00     0.014 C
HETATM   21  C3  UNL     1     -12.849  16.808  42.147  1.00  0.00     0.014 C
HETATM   22  C4  UNL     1     -14.627  18.479  42.025  1.00  0.00     0.014 C
ENDBRANCH  18  19
ENDBRANCH  15  18
ENDBRANCH  11  15
BRANCH  13  23
HETATM   23  C23 UNL     1     -15.645  11.441  38.348  1.00  0.00     0.417 C
HETATM   24  F1  UNL     1     -16.951  11.741  38.681  1.00  0.00    -0.166 F
HETATM   25  F2  UNL     1     -15.366  11.694  37.044  1.00  0.00    -0.166 F
HETATM   26  F3  UNL     1     -15.501  10.066  38.611  1.00  0.00    -0.166 F
ENDBRANCH  13  23
ENDBRANCH   1   9
BRANCH   7  27
HETATM   27  C13 UNL     1      -8.719  14.845  38.886  1.00  0.00     0.137 C
HETATM   28  C14 UNL     1      -8.166  14.493  37.560  1.00  0.00     0.063 C
HETATM   29  C15 UNL     1      -7.415  15.761  37.173  1.00  0.00     0.226 C
HETATM   30  C16 UNL     1      -7.610  16.022  35.696  1.00  0.00     0.037 C
HETATM   31  N4  UNL     1      -8.026  16.852  37.881  1.00  0.00     0.102 N
HETATM   32  C17 UNL     1      -8.938  16.742  35.703  1.00  0.00     0.032 C
HETATM   33  C18 UNL     1      -8.936  17.509  36.988  1.00  0.00     0.273 C
HETATM   34  C19 UNL     1      -8.647  16.345  39.071  1.00  0.00     0.270 C
BRANCH  34  35
HETATM   35  C20 UNL     1      -7.754  16.725  40.253  1.00  0.00     0.202 C
BRANCH  35  36
HETATM   36  O1  UNL     1      -7.698  15.679  41.175  1.00  0.00    -0.399 OA
ATOM     37  H1  UNL     1      -7.270  14.923  40.791  1.00  0.00     0.209 HD
ENDBRANCH  35  36
ENDBRANCH  34  35
ENDBRANCH   7  27
TORSDOF 8
ENDMDL