MODEL 2
REMARK VINA RESULT: -8.557415619      3.752      7.863
REMARK  7 active torsions:
REMARK  status: ('A' for Active; 'I' for Inactive)
REMARK       I    between atoms: C1_2  and  N1_3
REMARK       I    between atoms: C1_2  and  N2_13
REMARK    1  A    between atoms: N1_3  and  C2_5
REMARK    2  A    between atoms: C5_8  and  O2_9
REMARK    3  A    between atoms: N2_13  and  C8_15
REMARK    4  A    between atoms: C12_19  and  C13_20
REMARK    5  A    between atoms: C13_20  and  N3_21
REMARK    6  A    between atoms: N3_21  and  C14_23
REMARK    7  A    between atoms: C14_23  and  C15_24
ROOT
HETATM    1  C8  UNL     1     -13.292  17.877  40.692  1.00  0.00     0.086 C
HETATM    2  C9  UNL     1     -14.109  16.620  40.385  1.00  0.00     0.025 C
HETATM    3  C10 UNL     1     -15.538  16.919  40.509  1.00  0.00     0.003 C
HETATM    4  C11 UNL     1     -15.948  17.461  41.861  1.00  0.00     0.010 C
HETATM    5  C12 UNL     1     -14.853  17.920  42.730  1.00  0.00     0.025 C
HETATM    6  C21 UNL     1     -13.699  18.525  41.914  1.00  0.00     0.035 C
ENDROOT
BRANCH   1   7
HETATM    7  N2  UNL     1     -11.911  17.400  40.757  1.00  0.00    -0.339 N
HETATM    8  C1  UNL     1     -11.299  16.884  39.572  1.00  0.00     0.316 C
HETATM    9  O1  UNL     1     -11.977  16.888  38.512  1.00  0.00    -0.247 OA
HETATM   10  N1  UNL     1     -10.006  16.385  39.581  1.00  0.00    -0.339 N
ATOM     11  H1  UNL     1      -9.512  16.439  40.472  1.00  0.00     0.164 HD
ATOM     12  H2  UNL     1     -11.391  17.433  41.635  1.00  0.00     0.164 HD
BRANCH  10  13
HETATM   13  C2  UNL     1      -9.264  15.792  38.478  1.00  0.00     0.086 C
HETATM   14  C3  UNL     1      -8.224  14.837  38.914  1.00  0.00     0.028 C
HETATM   15  C4  UNL     1      -7.793  13.991  37.704  1.00  0.00     0.034 C
HETATM   16  C5  UNL     1      -8.011  14.722  36.429  1.00  0.00     0.118 C
HETATM   17  C6  UNL     1      -7.839  16.193  36.529  1.00  0.00     0.034 C
HETATM   18  C7  UNL     1      -8.714  16.850  37.579  1.00  0.00     0.028 C
BRANCH  16  19
HETATM   19  O2  UNL     1      -7.028  14.256  35.527  1.00  0.00    -0.396 OA
ATOM     20  H2  UNL     1      -6.361  14.931  35.484  1.00  0.00     0.210 HD
ENDBRANCH  16  19
ENDBRANCH  10  13
ENDBRANCH   1   7
BRANCH   5  21
HETATM   21  C13 UNL     1     -14.246  17.029  43.721  1.00  0.00     0.060 C
BRANCH  21  22
HETATM   22  N3  UNL     1     -14.581  15.673  43.813  1.00  0.00    -0.398 N
ATOM     23  H3  UNL     1     -15.543  15.387  43.990  1.00  0.00     0.158 HD
BRANCH  22  24
HETATM   24  C14 UNL     1     -13.534  14.684  43.653  1.00  0.00     0.159 C
BRANCH  24  25
HETATM   25  C15 UNL     1     -13.582  13.968  42.413  1.00  0.00    -0.017 A
HETATM   26  C16 UNL     1     -14.852  13.592  41.899  1.00  0.00     0.012 A
HETATM   27  C17 UNL     1     -15.023  13.004  40.660  1.00  0.00     0.026 A
HETATM   28  C18 UNL     1     -13.915  12.764  39.888  1.00  0.00     0.057 A
HETATM   29 CL1  UNL     1     -14.059  12.035  38.310  1.00  0.00    -0.082 Cl
HETATM   30  C19 UNL     1     -12.667  13.115  40.346  1.00  0.00     0.078 A
HETATM   31 CL2  UNL     1     -11.220  12.819  39.413  1.00  0.00    -0.081 Cl
HETATM   32  C20 UNL     1     -12.526  13.714  41.614  1.00  0.00     0.065 A
HETATM   33 CL3  UNL     1     -10.862  14.111  42.089  1.00  0.00    -0.082 Cl
ENDBRANCH  24  25
ENDBRANCH  22  24
ENDBRANCH  21  22
ENDBRANCH   5  21
TORSDOF 7
ENDMDL