MODEL 4
REMARK VINA RESULT: -9.130396863      2.356      3.714
REMARK  8 active torsions:
REMARK  status: ('A' for Active; 'I' for Inactive)
REMARK    1  A    between atoms: C5_5  and  N1_6
REMARK       I    between atoms: N1_6  and  C6_8
REMARK    2  A    between atoms: C6_8  and  C7_10
REMARK    3  A    between atoms: C7_10  and  C8_11
REMARK       I    between atoms: C8_11  and  N2_13
REMARK    4  A    between atoms: N2_13  and  C9_15
REMARK    5  A    between atoms: C13_19  and  C14_20
REMARK    6  A    between atoms: C14_20  and  O3_21
REMARK    7  A    between atoms: C14_20  and  C15_23
REMARK    8  A    between atoms: C23_31  and  C24_32
ROOT
HETATM    1  C8  UNL     1     -11.373  16.523  41.810  1.00  0.00     0.226 C
HETATM    2  O2  UNL     1     -11.020  17.711  41.881  1.00  0.00    -0.273 OA
HETATM    3  N2  UNL     1     -11.297  15.898  40.540  1.00  0.00    -0.356 N
ATOM      4  H2  UNL     1     -11.583  14.922  40.459  1.00  0.00     0.162 HD
ENDROOT
BRANCH   1   5
HETATM    5  C7  UNL     1     -11.851  15.781  42.970  1.00  0.00     0.205 C
BRANCH   5   6
HETATM    6  C6  UNL     1     -12.851  14.737  42.583  1.00  0.00     0.230 C
HETATM    7  N1  UNL     1     -14.127  15.083  42.122  1.00  0.00    -0.327 N
ATOM      8  H1  UNL     1     -14.322  16.083  42.067  1.00  0.00     0.169 HD
HETATM    9  O1  UNL     1     -12.510  13.552  42.684  1.00  0.00    -0.273 OA
BRANCH   7  10
HETATM   10  C5  UNL     1     -15.182  14.231  41.723  1.00  0.00     0.035 A
HETATM   11  C4  UNL     1     -16.458  14.407  42.289  1.00  0.00     0.030 A
HETATM   12  C3  UNL     1     -17.515  13.607  41.954  1.00  0.00     0.010 A
HETATM   13  C2  UNL     1     -17.394  12.589  41.050  1.00  0.00    -0.047 A
HETATM   14  C1  UNL     1     -18.597  11.788  40.759  1.00  0.00     0.049 C
HETATM   15  C23 UNL     1     -16.174  12.389  40.483  1.00  0.00     0.056 A
HETATM   16  C22 UNL     1     -15.082  13.202  40.818  1.00  0.00     0.046 A
BRANCH  15  17
HETATM   17  C24 UNL     1     -16.009  11.292  39.497  1.00  0.00     0.418 C
HETATM   18  F1  UNL     1     -16.440  10.070  39.963  1.00  0.00    -0.166 F
HETATM   19  F2  UNL     1     -16.563  11.620  38.259  1.00  0.00    -0.166 F
HETATM   20  F3  UNL     1     -14.655  11.148  39.256  1.00  0.00    -0.166 F
ENDBRANCH  15  17
ENDBRANCH   7  10
ENDBRANCH   5   6
ENDBRANCH   1   5
BRANCH   3  21
HETATM   21  C9  UNL     1     -10.829  16.588  39.346  1.00  0.00     0.084 C
HETATM   22  C10 UNL     1     -11.919  17.376  38.698  1.00  0.00     0.025 C
HETATM   23  C11 UNL     1     -11.844  17.564  37.246  1.00  0.00     0.002 C
HETATM   24  C12 UNL     1     -11.035  16.606  36.463  1.00  0.00     0.007 C
HETATM   25  C13 UNL     1      -9.778  16.114  37.108  1.00  0.00     0.017 C
HETATM   26  C21 UNL     1     -10.169  15.581  38.467  1.00  0.00     0.032 C
BRANCH  25  27
HETATM   27  C14 UNL     1      -8.801  17.258  37.206  1.00  0.00     0.126 C
BRANCH  27  28
HETATM   28  O3  UNL     1      -9.223  18.334  36.414  1.00  0.00    -0.395 OA
ATOM     29  H3  UNL     1      -8.728  19.117  36.625  1.00  0.00     0.210 HD
ENDBRANCH  27  28
BRANCH  27  30
HETATM   30  C15 UNL     1      -7.375  16.876  36.906  1.00  0.00     0.015 C
HETATM   31  C16 UNL     1      -6.547  16.623  38.123  1.00  0.00     0.007 C
HETATM   32  C17 UNL     1      -6.484  15.211  38.570  1.00  0.00     0.000 C
HETATM   33  C18 UNL     1      -6.284  14.220  37.452  1.00  0.00     0.000 C
HETATM   34  C19 UNL     1      -7.472  14.385  36.513  1.00  0.00     0.000 C
HETATM   35  C20 UNL     1      -7.397  15.747  35.919  1.00  0.00     0.007 C
ENDBRANCH  27  30
ENDBRANCH  25  27
ENDBRANCH   3  21
TORSDOF 8
ENDMDL