MODEL 2
REMARK VINA RESULT: -6.499034345      2.705      4.061
REMARK  6 active torsions:
REMARK  status: ('A' for Active; 'I' for Inactive)
REMARK    1  A    between atoms: C3_4  and  C4_6
REMARK    2  A    between atoms: C4_6  and  N1_7
REMARK       I    between atoms: N1_7  and  C5_9
REMARK    3  A    between atoms: C5_9  and  C6_11
REMARK    4  A    between atoms: C6_11  and  N2_12
REMARK    5  A    between atoms: C7_13  and  C8_14
REMARK    6  A    between atoms: C13_22  and  C14_23
ROOT
HETATM    1  N2  UNL     1      -3.254   3.512  -3.004  1.00  0.00    -0.327 N
HETATM    2  C7  UNL     1      -3.796   2.327  -2.370  1.00  0.00     0.094 C
HETATM    3  N3  UNL     1      -3.518   2.386  -1.104  1.00  0.00    -0.314 N
ATOM      4  H3  UNL     1      -3.780   1.682  -0.414  1.00  0.00     0.170 HD
HETATM    5  C12 UNL     1      -2.795   3.575  -0.818  1.00  0.00     0.246 C
HETATM    6  O2  UNL     1      -2.010   3.847   0.126  1.00  0.00    -0.271 OA
HETATM    7  C13 UNL     1      -3.197   4.504  -1.961  1.00  0.00     0.186 C
ENDROOT
BRANCH   1   8
HETATM    8  C6  UNL     1      -2.908   3.560  -4.349  1.00  0.00     0.167 C
BRANCH   8   9
HETATM    9  C5  UNL     1      -2.905   4.852  -5.059  1.00  0.00     0.257 C
HETATM   10  N1  UNL     1      -3.987   5.031  -5.990  1.00  0.00    -0.351 N
ATOM     11  H1  UNL     1      -4.685   4.300  -6.126  1.00  0.00     0.163 HD
HETATM   12  O1  UNL     1      -2.100   5.779  -4.948  1.00  0.00    -0.267 OA
BRANCH  10  13
HETATM   13  C4  UNL     1      -4.059   6.267  -6.725  1.00  0.00     0.175 C
BRANCH  13  14
HETATM   14  C3  UNL     1      -4.365   6.052  -8.161  1.00  0.00     0.042 C
HETATM   15  C2  UNL     1      -3.786   6.747  -9.108  1.00  0.00     0.004 C
HETATM   16  C1  UNL     1      -2.795   7.784  -8.757  1.00  0.00     0.058 C
HETATM   17 BR1  UNL     1      -4.240   6.405 -10.924  1.00  0.00    -0.055 Br
HETATM   18 CL1  UNL     1      -5.538   4.822  -8.561  1.00  0.00    -0.086 Cl
ENDBRANCH  13  14
ENDBRANCH  10  13
ENDBRANCH   8   9
ENDBRANCH   1   8
BRANCH   2  19
HETATM   19  C8  UNL     1      -4.517   1.267  -3.035  1.00  0.00     0.008 C
HETATM   20  C9  UNL     1      -5.350   0.499  -1.989  1.00  0.00     0.022 C
HETATM   21  C10 UNL     1      -3.714   0.240  -3.741  1.00  0.00     0.022 C
HETATM   22  C11 UNL     1      -5.584   1.783  -4.012  1.00  0.00     0.022 C
ENDBRANCH   2  19
BRANCH   7  23
HETATM   23  C14 UNL     1      -4.564   5.004  -1.556  1.00  0.00     0.010 C
HETATM   24  C15 UNL     1      -4.377   6.103  -0.531  1.00  0.00     0.012 C
HETATM   25  C16 UNL     1      -5.297   5.602  -2.731  1.00  0.00     0.012 C
ENDBRANCH   7  23
TORSDOF 6
ENDMDL