MODEL 2
REMARK VINA RESULT: -6.556045895      2.724      3.268
REMARK  7 active torsions:
REMARK  status: ('A' for Active; 'I' for Inactive)
REMARK    1  A    between atoms: N1_2  and  C2_3
REMARK    2  A    between atoms: C2_3  and  C3_4
REMARK    3  A    between atoms: C4_6  and  C5_7
REMARK    4  A    between atoms: C6_8  and  C7_9
REMARK       I    between atoms: C7_9  and  N2_11
REMARK    5  A    between atoms: N2_11  and  C8_13
REMARK    6  A    between atoms: C14_20  and  C15_22
REMARK    7  A    between atoms: C16_23  and  C17_24
ROOT
HETATM    1  C2  UNL     1      -4.354   5.531  -6.253  1.00  0.00     0.288 C
ENDROOT
BRANCH   1   2
HETATM    2  N1  UNL     1      -3.564   4.456  -6.848  1.00  0.00    -0.014 N
HETATM    3  C1  UNL     1      -3.510   3.326  -5.945  1.00  0.00     0.278 C
HETATM    4  C11 UNL     1      -4.099   4.069  -8.136  1.00  0.00     0.268 C
HETATM    5  C12 UNL     1      -3.052   3.480  -9.015  1.00  0.00     0.196 C
HETATM    6  O2  UNL     1      -1.949   2.974  -8.337  1.00  0.00    -0.383 OA
HETATM    7  C13 UNL     1      -1.292   3.946  -7.608  1.00  0.00     0.256 C
HETATM    8  C14 UNL     1      -2.235   4.986  -7.060  1.00  0.00     0.352 C
HETATM    9  F1  UNL     1      -1.781   5.462  -5.828  1.00  0.00    -0.194 F
BRANCH   8  10
HETATM   10  C15 UNL     1      -2.359   6.146  -7.964  1.00  0.00    -0.030 C
HETATM   11  C16 UNL     1      -2.438   7.102  -8.706  1.00  0.00    -0.086 C
BRANCH  11  12
HETATM   12  C17 UNL     1      -2.559   8.257  -9.607  1.00  0.00     0.208 C
HETATM   13 CL1  UNL     1      -3.439   7.718 -11.077  1.00  0.00    -0.117 Cl
ENDBRANCH  11  12
ENDBRANCH   8  10
ENDBRANCH   1   2
BRANCH   1  14
HETATM   14  C3  UNL     1      -5.213   5.101  -5.167  1.00  0.00     0.015 C
HETATM   15 BR1  UNL     1      -6.888   4.288  -5.586  1.00  0.00    -0.054 Br
HETATM   16  C4  UNL     1      -4.941   5.227  -3.896  1.00  0.00     0.017 C
BRANCH  16  17
HETATM   17  C5  UNL     1      -3.733   5.822  -3.431  1.00  0.00     0.007 C
HETATM   18  C6  UNL     1      -3.301   5.870  -2.210  1.00  0.00     0.074 C
BRANCH  18  19
HETATM   19  C7  UNL     1      -3.949   5.333  -1.053  1.00  0.00     0.241 C
HETATM   20  O1  UNL     1      -3.937   4.148  -0.742  1.00  0.00    -0.269 OA
HETATM   21  N2  UNL     1      -4.661   6.280  -0.209  1.00  0.00    -0.353 N
ATOM     22  H2  UNL     1      -4.683   7.270  -0.453  1.00  0.00     0.163 HD
BRANCH  21  23
HETATM   23  C8  UNL     1      -5.336   5.808   0.975  1.00  0.00     0.084 A
HETATM   24  C9  UNL     1      -5.763   6.861   1.971  1.00  0.00     0.027 A
HETATM   25  C10 UNL     1      -4.637   5.961   2.306  1.00  0.00     0.027 A
ENDBRANCH  21  23
ENDBRANCH  18  19
ENDBRANCH  16  17
ENDBRANCH   1  14
TORSDOF 7
ENDMDL