MODEL 4
REMARK VINA RESULT: -6.739398907      2.924      4.246
REMARK  7 active torsions:
REMARK  status: ('A' for Active; 'I' for Inactive)
REMARK    1  A    between atoms: C3_3  and  C4_4
REMARK    2  A    between atoms: C5_5  and  C6_6
REMARK    3  A    between atoms: C7_7  and  C8_8
REMARK       I    between atoms: C8_8  and  N1_10
REMARK    4  A    between atoms: C12_14  and  C13_15
REMARK       I    between atoms: C13_15  and  N2_17
REMARK    5  A    between atoms: N2_17  and  C14_19
REMARK    6  A    between atoms: C14_19  and  C15_20
REMARK    7  A    between atoms: C14_19  and  C18_23
ROOT
HETATM    1  C8  UNL     1      -3.228   4.325  -4.101  1.00  0.00     0.245 C
HETATM    2  O1  UNL     1      -2.945   3.080  -4.186  1.00  0.00    -0.268 OA
HETATM    3  N1  UNL     1      -2.924   5.146  -5.210  1.00  0.00    -0.330 N
HETATM    4  C9  UNL     1      -3.013   6.518  -5.618  1.00  0.00     0.095 A
HETATM    5  C10 UNL     1      -3.656   6.893  -6.890  1.00  0.00     0.035 A
HETATM    6  C11 UNL     1      -2.397   6.137  -6.968  1.00  0.00     0.043 A
HETATM    7  C12 UNL     1      -2.320   4.728  -6.502  1.00  0.00     0.186 A
ENDROOT
BRANCH   7   8
HETATM    8  C13 UNL     1      -3.183   3.762  -7.211  1.00  0.00     0.241 C
HETATM    9  O2  UNL     1      -2.704   3.011  -8.107  1.00  0.00    -0.271 OA
HETATM   10  N2  UNL     1      -4.553   3.665  -6.898  1.00  0.00    -0.348 N
ATOM     11  H2  UNL     1      -4.919   4.281  -6.172  1.00  0.00     0.163 HD
BRANCH  10  12
HETATM   12  C14 UNL     1      -5.484   2.743  -7.544  1.00  0.00     0.171 C
BRANCH  12  13
HETATM   13  C15 UNL     1      -6.376   2.083  -6.545  1.00  0.00     0.007 C
HETATM   14  C16 UNL     1      -6.489   2.815  -5.247  1.00  0.00     0.012 C
HETATM   15  C17 UNL     1      -5.998   0.656  -6.244  1.00  0.00     0.012 C
ENDBRANCH  12  13
BRANCH  12  16
HETATM   16  C18 UNL     1      -6.190   3.541  -8.602  1.00  0.00     0.320 C
HETATM   17  F1  UNL     1      -5.906   4.888  -8.557  1.00  0.00    -0.191 F
HETATM   18  F2  UNL     1      -5.626   3.104  -9.821  1.00  0.00    -0.191 F
HETATM   19 BR1  UNL     1      -8.068   3.179  -8.751  1.00  0.00    -0.009 Br
ENDBRANCH  12  16
ENDBRANCH  10  12
ENDBRANCH   7   8
BRANCH   1  20
HETATM   20  C7  UNL     1      -3.839   4.848  -2.898  1.00  0.00     0.083 C
HETATM   21  C6  UNL     1      -3.281   5.606  -1.995  1.00  0.00     0.070 C
BRANCH  21  22
HETATM   22  C5  UNL     1      -4.102   6.015  -0.855  1.00  0.00    -0.074 C
HETATM   23  C4  UNL     1      -4.787   6.351   0.077  1.00  0.00    -0.074 C
BRANCH  23  24
HETATM   24  C3  UNL     1      -5.625   6.763   1.181  1.00  0.00     0.060 C
HETATM   25  C2  UNL     1      -5.456   6.262   2.379  1.00  0.00    -0.022 C
HETATM   26  C1  UNL     1      -4.401   5.263   2.619  1.00  0.00     0.036 C
ENDBRANCH  23  24
ENDBRANCH  21  22
ENDBRANCH   1  20
TORSDOF 7
ENDMDL