MODEL 4
REMARK VINA RESULT: -5.913784088      2.692      3.324
REMARK  5 active torsions:
REMARK  status: ('A' for Active; 'I' for Inactive)
REMARK    1  A    between atoms: C1_2  and  C2_4
REMARK    2  A    between atoms: C2_4  and  C3_5
REMARK    3  A    between atoms: C3_5  and  C4_6
REMARK    4  A    between atoms: C4_6  and  C5_7
REMARK    5  A    between atoms: C5_7  and  N2_8
ROOT
HETATM    1  N2  UNL     1      -4.830   5.121  -3.907  1.00  0.00    -0.283 N
HETATM    2  N3  UNL     1      -6.087   5.562  -3.705  1.00  0.00    -0.291 N
ATOM      3  H3  UNL     1      -6.266   6.185  -2.917  1.00  0.00     0.188 HD
HETATM    4  C6  UNL     1      -7.109   5.215  -4.494  1.00  0.00     0.096 A
HETATM    5 BR1  UNL     1      -8.881   5.880  -4.149  1.00  0.00    -0.030 Br
HETATM    6  C7  UNL     1      -6.838   4.376  -5.548  1.00  0.00     0.060 A
HETATM    7  C8  UNL     1      -5.562   3.918  -5.770  1.00  0.00     0.049 A
HETATM    8 BR2  UNL     1      -5.120   2.752  -7.211  1.00  0.00    -0.048 Br
HETATM    9  C9  UNL     1      -4.524   4.311  -4.910  1.00  0.00     0.114 A
HETATM   10 BR3  UNL     1      -2.751   3.689  -5.233  1.00  0.00    -0.028 Br
ENDROOT
BRANCH   1  11
HETATM   11  C5  UNL     1      -3.781   5.548  -2.971  1.00  0.00     0.150 C
BRANCH  11  12
HETATM   12  C4  UNL     1      -4.036   4.992  -1.580  1.00  0.00     0.022 C
BRANCH  12  13
HETATM   13  C3  UNL     1      -4.320   6.100  -0.615  1.00  0.00     0.010 C
BRANCH  13  14
HETATM   14  C2  UNL     1      -5.515   5.810   0.228  1.00  0.00     0.099 C
BRANCH  14  15
HETATM   15  C1  UNL     1      -5.389   6.162   1.656  1.00  0.00     0.231 C
HETATM   16  N1  UNL     1      -5.284   5.039   2.556  1.00  0.00    -0.062 NA
HETATM   17  O1  UNL     1      -5.371   7.330   2.072  1.00  0.00    -0.277 OA
ENDBRANCH  14  15
ENDBRANCH  13  14
ENDBRANCH  12  13
ENDBRANCH  11  12
ENDBRANCH   1  11
TORSDOF 5
ENDMDL