MODEL 4
REMARK VINA RESULT: -5.420119093      2.293      5.216
REMARK  5 active torsions:
REMARK  status: ('A' for Active; 'I' for Inactive)
REMARK    1  A    between atoms: C2_2  and  C3_3
REMARK    2  A    between atoms: C3_3  and  O1_4
REMARK    3  A    between atoms: O1_4  and  C4_5
REMARK    4  A    between atoms: C7_9  and  C8_10
REMARK    5  A    between atoms: N1_12  and  C9_13
ROOT
HETATM    1  C4  UNL     1      -3.085   5.605  -4.050  1.00  0.00     0.157 A
HETATM    2  C5  UNL     1      -3.423   4.340  -4.205  1.00  0.00     0.077 A
HETATM    3 BR1  UNL     1      -3.553   3.486  -5.898  1.00  0.00    -0.045 Br
HETATM    4  C6  UNL     1      -3.670   3.743  -2.866  1.00  0.00     0.062 A
HETATM    5  C7  UNL     1      -4.026   2.503  -2.743  1.00  0.00     0.016 C
HETATM    6  N1  UNL     1      -3.453   4.739  -1.878  1.00  0.00    -0.255 N
HETATM    7  C10 UNL     1      -3.084   5.924  -2.638  1.00  0.00     0.289 A
HETATM    8  O2  UNL     1      -2.819   7.015  -2.072  1.00  0.00    -0.264 OA
ENDROOT
BRANCH   6   9
HETATM    9  C9  UNL     1      -3.542   4.712  -0.466  1.00  0.00     0.157 C
HETATM   10  N2  UNL     1      -2.681   4.102   0.272  1.00  0.00    -0.379 N
ATOM     11  H22 UNL     1      -1.887   3.698  -0.224  1.00  0.00     0.158 HD
ATOM     12  H21 UNL     1      -2.745   4.082   1.290  1.00  0.00     0.158 HD
HETATM   13 BR3  UNL     1      -5.044   5.478   0.474  1.00  0.00    -0.010 Br
ENDBRANCH   6   9
BRANCH   5  14
HETATM   14  C8  UNL     1      -4.333   1.695  -1.562  1.00  0.00     0.114 C
HETATM   15 BR2  UNL     1      -3.524  -0.060  -1.587  1.00  0.00    -0.092 Br
ENDBRANCH   5  14
BRANCH   1  16
HETATM   16  O1  UNL     1      -2.774   6.514  -5.055  1.00  0.00    -0.341 OA
BRANCH  16  17
HETATM   17  C3  UNL     1      -3.697   7.349  -5.686  1.00  0.00     0.202 C
BRANCH  17  18
HETATM   18  C2  UNL     1      -3.256   7.482  -7.122  1.00  0.00    -0.011 C
HETATM   19  C1  UNL     1      -3.709   6.668  -8.056  1.00  0.00     0.009 C
ENDBRANCH  17  18
ENDBRANCH  16  17
ENDBRANCH   1  16
TORSDOF 5
ENDMDL