MODEL 4
REMARK VINA RESULT: -5.462204549      2.343      3.735
REMARK  6 active torsions:
REMARK  status: ('A' for Active; 'I' for Inactive)
REMARK    1  A    between atoms: N2_10  and  C7_11
REMARK    2  A    between atoms: C7_11  and  O2_12
REMARK    3  A    between atoms: C7_11  and  C8_14
REMARK    4  A    between atoms: C7_11  and  C10_17
REMARK    5  A    between atoms: C8_14  and  C9_15
REMARK    6  A    between atoms: C10_17  and  C13_20
ROOT
HETATM    1  C7  UNL     1      -4.498   4.861  -4.632  1.00  0.00     0.145 C
ENDROOT
BRANCH   1   2
HETATM    2  N2  UNL     1      -4.306   4.450  -3.256  1.00  0.00    -0.301 N
HETATM    3  C3  UNL     1      -4.661   5.041  -2.038  1.00  0.00     0.161 C
HETATM    4  C2  UNL     1      -3.994   6.206  -1.394  1.00  0.00     0.154 C
HETATM    5  C4  UNL     1      -3.821   4.322  -0.984  1.00  0.00     0.076 C
HETATM    6  N1  UNL     1      -4.139   5.421  -0.151  1.00  0.00    -0.382 N
HETATM    7  C1  UNL     1      -4.441   5.640   1.195  1.00  0.00     0.149 C
HETATM    8  C5  UNL     1      -3.391   3.196  -1.451  1.00  0.00     0.208 C
HETATM    9  F1  UNL     1      -2.742   2.265  -0.713  1.00  0.00    -0.198 F
HETATM   10  C6  UNL     1      -3.663   3.197  -2.886  1.00  0.00     0.287 C
HETATM   11  O1  UNL     1      -3.347   2.215  -3.596  1.00  0.00    -0.265 OA
ENDBRANCH   1   2
BRANCH   1  12
HETATM   12  O2  UNL     1      -3.512   4.138  -5.385  1.00  0.00    -0.370 OA
ATOM     13  H2  UNL     1      -2.713   4.646  -5.306  1.00  0.00     0.212 HD
ENDBRANCH   1  12
BRANCH   1  14
HETATM   14  C8  UNL     1      -4.166   6.287  -4.918  1.00  0.00     0.073 C
BRANCH  14  15
HETATM   15  C9  UNL     1      -2.913   6.645  -5.594  1.00  0.00     0.090 C
HETATM   16 BR1  UNL     1      -3.030   7.823  -7.097  1.00  0.00    -0.096 Br
ENDBRANCH  14  15
ENDBRANCH   1  14
BRANCH   1  17
HETATM   17  C10 UNL     1      -5.781   4.440  -5.264  1.00  0.00     0.012 C
HETATM   18  C11 UNL     1      -5.646   4.729  -6.782  1.00  0.00     0.020 C
HETATM   19  C12 UNL     1      -7.013   5.178  -4.828  1.00  0.00     0.020 C
BRANCH  17  20
HETATM   20  C13 UNL     1      -6.098   2.987  -5.187  1.00  0.00     0.099 C
HETATM   21 BR2  UNL     1      -7.827   2.494  -5.850  1.00  0.00    -0.096 Br
ENDBRANCH  17  20
ENDBRANCH   1  17
TORSDOF 6
ENDMDL