MODEL 2
REMARK VINA RESULT: -6.087277993      3.621      4.982
REMARK  6 active torsions:
REMARK  status: ('A' for Active; 'I' for Inactive)
REMARK    1  A    between atoms: N1_2  and  C4_5
REMARK    2  A    between atoms: C5_6  and  C6_7
REMARK    3  A    between atoms: C6_7  and  N2_9
REMARK    4  A    between atoms: C10_14  and  C11_15
REMARK    5  A    between atoms: C11_15  and  N3_16
REMARK       I    between atoms: N3_16  and  C12_18
REMARK    6  A    between atoms: C12_18  and  C13_20
ROOT
HETATM    1  N2  UNL     1      -3.332   4.887  -3.529  1.00  0.00    -0.328 N
HETATM    2  C7  UNL     1      -4.051   3.659  -3.524  1.00  0.00     0.221 C
HETATM    3  O1  UNL     1      -4.724   3.240  -4.518  1.00  0.00    -0.273 OA
HETATM    4  C8  UNL     1      -3.867   3.009  -2.202  1.00  0.00     0.105 C
HETATM    5  C9  UNL     1      -2.954   3.966  -1.470  1.00  0.00     0.036 C
HETATM    6  C10 UNL     1      -3.326   5.301  -2.115  1.00  0.00     0.107 C
ENDROOT
BRANCH   1   7
HETATM    7  C6  UNL     1      -2.733   5.587  -4.655  1.00  0.00     0.184 C
HETATM    8 BR1  UNL     1      -4.084   6.488  -5.712  1.00  0.00    -0.064 Br
BRANCH   7   9
HETATM    9  C5  UNL     1      -2.020   4.654  -5.535  1.00  0.00     0.035 C
HETATM   10  C4  UNL     1      -2.446   4.356  -6.754  1.00  0.00     0.200 C
BRANCH  10  11
HETATM   11  N1  UNL     1      -1.772   3.455  -7.622  1.00  0.00    -0.059 N
HETATM   12  C1  UNL     1      -0.357   3.789  -7.608  1.00  0.00     0.277 C
HETATM   13  C2  UNL     1      -2.229   3.563  -8.988  1.00  0.00     0.277 C
HETATM   14  C3  UNL     1      -1.907   2.083  -7.146  1.00  0.00     0.277 C
ENDBRANCH  10  11
ENDBRANCH   7   9
ENDBRANCH   1   7
BRANCH   6  15
HETATM   15  C11 UNL     1      -4.716   5.630  -1.669  1.00  0.00     0.148 C
BRANCH  15  16
HETATM   16  N3  UNL     1      -4.856   6.108  -0.342  1.00  0.00    -0.357 N
HETATM   17  C12 UNL     1      -5.637   5.398   0.606  1.00  0.00     0.250 C
HETATM   18  O2  UNL     1      -6.213   4.328   0.271  1.00  0.00    -0.271 OA
ATOM     19  H3  UNL     1      -4.391   6.973  -0.066  1.00  0.00     0.162 HD
BRANCH  17  20
HETATM   20  C13 UNL     1      -5.809   5.871   2.006  1.00  0.00     0.269 C
HETATM   21 CL1  UNL     1      -5.299   7.567   2.124  1.00  0.00    -0.098 Cl
HETATM   22 CL2  UNL     1      -4.789   4.933   3.136  1.00  0.00    -0.098 Cl
ENDBRANCH  17  20
ENDBRANCH  15  16
ENDBRANCH   6  15
TORSDOF 6
ENDMDL