MODEL 4
REMARK VINA RESULT: -5.566312630      1.606      1.903
REMARK  4 active torsions:
REMARK  status: ('A' for Active; 'I' for Inactive)
REMARK    1  A    between atoms: N1_2  and  C2_3
REMARK    2  A    between atoms: N1_2  and  N2_6
REMARK    3  A    between atoms: C2_3  and  C3_4
REMARK       I    between atoms: N2_6  and  C5_8
REMARK    4  A    between atoms: C5_8  and  C6_10
ROOT
HETATM    1  N2  UNL     1      -3.554   5.024  -2.424  1.00  0.00    -0.263 N
HETATM    2  C4  UNL     1      -2.872   6.270  -2.632  1.00  0.00     0.181 C
HETATM    3  C5  UNL     1      -3.882   4.136  -3.424  1.00  0.00     0.288 C
HETATM    4  O1  UNL     1      -4.512   3.070  -3.034  1.00  0.00    -0.264 OA
ENDROOT
BRANCH   3   5
HETATM    5  C6  UNL     1      -3.620   4.232  -4.829  1.00  0.00     0.104 A
HETATM    6  C7  UNL     1      -2.753   3.546  -5.606  1.00  0.00     0.057 A
HETATM    7  C8  UNL     1      -2.854   3.966  -6.945  1.00  0.00     0.047 A
HETATM    8 BR2  UNL     1      -1.865   3.323  -8.435  1.00  0.00    -0.048 Br
HETATM    9  C9  UNL     1      -3.810   4.929  -6.944  1.00  0.00     0.098 A
HETATM   10 BR3  UNL     1      -4.430   5.926  -8.480  1.00  0.00    -0.030 Br
HETATM   11  N3  UNL     1      -4.257   5.082  -5.706  1.00  0.00    -0.345 N
ATOM     12  H3  UNL     1      -4.983   5.746  -5.436  1.00  0.00     0.167 HD
ENDBRANCH   3   5
BRANCH   1  13
HETATM   13  N1  UNL     1      -3.925   4.682  -1.108  1.00  0.00    -0.327 N
HETATM   14  C1  UNL     1      -2.920   4.095  -0.319  1.00  0.00     0.171 C
BRANCH  13  15
HETATM   15  C2  UNL     1      -4.873   5.525  -0.494  1.00  0.00     0.153 C
BRANCH  15  16
HETATM   16  C3  UNL     1      -4.466   5.617   0.988  1.00  0.00     0.106 C
HETATM   17 BR1  UNL     1      -5.577   6.893   1.876  1.00  0.00    -0.095 Br
ENDBRANCH  15  16
ENDBRANCH  13  15
ENDBRANCH   1  13
TORSDOF 4
ENDMDL