MODEL 2
REMARK VINA RESULT: -6.756996462      0.889      2.114
REMARK  8 active torsions:
REMARK  status: ('A' for Active; 'I' for Inactive)
REMARK    1  A    between atoms: N1_2  and  C2_3
REMARK       I    between atoms: N1_2  and  C9_16
REMARK    2  A    between atoms: C2_3  and  C3_4
REMARK    3  A    between atoms: C3_4  and  N2_5
REMARK    4  A    between atoms: N2_5  and  C4_7
REMARK    5  A    between atoms: C9_16  and  C10_18
REMARK    6  A    between atoms: C10_18  and  C11_19
REMARK    7  A    between atoms: C11_19  and  C12_20
REMARK    8  A    between atoms: C13_21  and  C14_22
ROOT
HETATM    1  C3  UNL     1      -4.970   0.235  -1.554  1.00  0.00     0.141 C
ENDROOT
BRANCH   1   2
HETATM    2  C2  UNL     1      -3.653   0.918  -1.263  1.00  0.00     0.145 C
BRANCH   2   3
HETATM    3  N1  UNL     1      -3.683   2.208  -1.898  1.00  0.00    -0.355 N
HETATM    4  C1  UNL     1      -4.133   2.300  -3.288  1.00  0.00     0.152 C
HETATM    5  C9  UNL     1      -3.301   3.411  -1.255  1.00  0.00     0.220 C
HETATM    6  O1  UNL     1      -2.908   3.365  -0.053  1.00  0.00    -0.273 OA
BRANCH   5   7
HETATM    7  C10 UNL     1      -3.341   4.729  -1.935  1.00  0.00     0.115 C
BRANCH   7   8
HETATM    8  C11 UNL     1      -4.741   5.305  -1.919  1.00  0.00     0.103 C
BRANCH   8   9
HETATM    9  C12 UNL     1      -5.113   5.691  -0.558  1.00  0.00    -0.104 C
HETATM   10  C13 UNL     1      -5.407   6.025   0.565  1.00  0.00    -0.075 C
BRANCH  10  11
HETATM   11  C14 UNL     1      -5.776   6.440   1.927  1.00  0.00     0.315 C
HETATM   12  F1  UNL     1      -5.113   7.599   2.286  1.00  0.00    -0.242 F
ENDBRANCH  10  11
ENDBRANCH   8   9
ENDBRANCH   7   8
ENDBRANCH   5   7
ENDBRANCH   2   3
ENDBRANCH   1   2
BRANCH   1  13
HETATM   13  N2  UNL     1      -5.502  -0.469  -0.443  1.00  0.00    -0.375 N
ATOM     14  H2  UNL     1      -5.386  -0.010   0.460  1.00  0.00     0.161 HD
BRANCH  13  15
HETATM   15  C4  UNL     1      -6.101  -1.587  -0.409  1.00  0.00     0.103 A
HETATM   16  C5  UNL     1      -5.311  -2.718  -0.418  1.00  0.00     0.067 A
HETATM   17  C6  UNL     1      -5.855  -3.981  -0.384  1.00  0.00     0.017 A
HETATM   18 BR1  UNL     1      -4.803  -5.562  -0.395  1.00  0.00    -0.051 Br
HETATM   19  C7  UNL     1      -7.239  -4.089  -0.340  1.00  0.00     0.056 A
HETATM   20  C8  UNL     1      -7.989  -2.949  -0.331  1.00  0.00     0.082 A
HETATM   21 BR2  UNL     1      -9.900  -3.127  -0.270  1.00  0.00    -0.031 Br
HETATM   22  N3  UNL     1      -7.432  -1.738  -0.365  1.00  0.00    -0.337 N
ATOM     23  H3  UNL     1      -8.030  -0.911  -0.357  1.00  0.00     0.168 HD
ENDBRANCH  13  15
ENDBRANCH   1  13
TORSDOF 8
ENDMDL