MODEL 2
REMARK VINA RESULT: -7.514089658      2.905      6.443
REMARK  3 active torsions:
REMARK  status: ('A' for Active; 'I' for Inactive)
REMARK       I    between atoms: C2_5  and  N4_7
REMARK    1  A    between atoms: N4_7  and  N5_9
REMARK       I    between atoms: N5_9  and  C3_11
REMARK       I    between atoms: C3_11  and  N6_12
REMARK    2  A    between atoms: N7_14  and  N8_16
REMARK       I    between atoms: N11_21  and  C5_23
REMARK    3  A    between atoms: C5_23  and  C6_25
ROOT
HETATM    1  N1  UNL     1      18.755  19.897  65.740  1.00  0.00    -0.172 NA
HETATM    2  C1  UNL     1      18.709  19.035  64.938  1.00  0.00     0.184 C
HETATM    3  N2  UNL     1      18.642  18.026  63.974  1.00  0.00    -0.266 N
ATOM      4  H2  UNL     1      19.369  17.312  63.926  1.00  0.00     0.180 HD
HETATM    5  C2  UNL     1      17.667  18.005  63.157  1.00  0.00     0.216 C
HETATM    6  N3  UNL     1      16.661  18.988  63.218  1.00  0.00    -0.061 NA
HETATM    7  N4  UNL     1      17.596  16.989  62.182  1.00  0.00    -0.259 N
ATOM      8  H4  UNL     1      18.436  16.475  61.913  1.00  0.00     0.190 HD
ENDROOT
BRANCH   7   9
HETATM    9  N5  UNL     1      16.370  16.691  61.588  1.00  0.00    -0.128 N
HETATM   10  C3  UNL     1      15.829  15.378  61.585  1.00  0.00     0.715 C
HETATM   11  N6  UNL     1      15.321  14.830  62.792  1.00  0.00    -0.116 N
HETATM   12  N11 UNL     1      15.825  14.737  60.466  1.00  0.00    -0.157 N
HETATM   13  N7  UNL     1      14.154  15.096  63.226  1.00  0.00    -0.226 N
ATOM     14  H6  UNL     1      15.913  14.199  63.333  1.00  0.00     0.207 HD
ATOM     15  H7  UNL     1      13.815  14.688  64.097  1.00  0.00     0.209 HD
HETATM   16  C5  UNL     1      15.316  13.434  60.342  1.00  0.00     0.240 C
ATOM     17  H11 UNL     1      16.207  15.195  59.637  1.00  0.00     0.187 HD
HETATM   18  O1  UNL     1      14.164  13.291  59.812  1.00  0.00    -0.272 OA
ATOM     19  H5  UNL     1      15.844  17.441  61.140  1.00  0.00     0.205 HD
BRANCH  13  20
HETATM   20  N8  UNL     1      13.360  15.950  62.488  1.00  0.00    -0.261 N
HETATM   21  C4  UNL     1      12.247  15.608  61.969  1.00  0.00     0.216 C
HETATM   22  N9  UNL     1      11.525  16.583  61.234  1.00  0.00    -0.065 NA
HETATM   23  N10 UNL     1      11.772  14.286  62.140  1.00  0.00    -0.065 NA
ATOM     24  H8  UNL     1      13.681  16.908  62.350  1.00  0.00     0.190 HD
ENDBRANCH  13  20
BRANCH  16  25
HETATM   25  C6  UNL     1      16.007  12.214  60.779  1.00  0.00     0.079 A
HETATM   26  C7  UNL     1      15.564  10.918  60.069  1.00  0.00     0.015 A
HETATM   27  C8  UNL     1      16.931  11.484  59.881  1.00  0.00     0.015 A
ENDBRANCH  16  25
ENDBRANCH   7   9
TORSDOF 3
ENDMDL