MODEL 2
REMARK VINA RESULT: -7.656459410      2.503      5.929
REMARK  4 active torsions:
REMARK  status: ('A' for Active; 'I' for Inactive)
REMARK    1  A    between atoms: N1_6  and  N2_8
REMARK    2  A    between atoms: C6_13  and  C7_14
REMARK       I    between atoms: C7_14  and  N5_16
REMARK    3  A    between atoms: N5_16  and  N6_18
REMARK    4  A    between atoms: N6_18  and  C8_20
ROOT
HETATM    1  C1  UNL     1      16.047  13.045  61.581  1.00  0.00     0.047 C
HETATM    2  C2  UNL     1      15.697  12.484  60.255  1.00  0.00     0.081 C
HETATM    3  C3  UNL     1      16.711  11.464  59.792  1.00  0.00     0.047 C
HETATM    4  O1  UNL     1      15.396  13.377  59.204  1.00  0.00    -0.325 OA
HETATM    5  C4  UNL     1      14.684  12.283  58.642  1.00  0.00     0.149 C
HETATM    6  N1  UNL     1      14.523  11.862  57.497  1.00  0.00    -0.281 N
ATOM      7  H1  UNL     1      15.003  12.417  56.789  1.00  0.00     0.189 HD
HETATM    8  C6  UNL     1      14.292  11.974  60.037  1.00  0.00     0.190 C
ENDROOT
BRANCH   8   9
HETATM    9  C7  UNL     1      13.226  12.945  60.434  1.00  0.00     0.251 C
HETATM   10  O2  UNL     1      12.449  12.754  61.403  1.00  0.00    -0.271 OA
HETATM   11  N5  UNL     1      13.069  14.146  59.696  1.00  0.00    -0.267 N
ATOM     12  H5  UNL     1      13.674  14.351  58.901  1.00  0.00     0.190 HD
BRANCH  11  13
HETATM   13  N6  UNL     1      12.070  15.041  60.082  1.00  0.00    -0.276 N
ATOM     14  H6  UNL     1      11.169  14.990  59.607  1.00  0.00     0.189 HD
BRANCH  13  15
HETATM   15  C8  UNL     1      12.235  16.010  61.090  1.00  0.00     0.199 C
HETATM   16  N7  UNL     1      11.316  16.105  62.143  1.00  0.00    -0.068 NA
HETATM   17  S1  UNL     1      13.501  17.018  61.025  1.00  0.00    -0.043 SA
ENDBRANCH  13  15
ENDBRANCH  11  13
ENDBRANCH   8   9
BRANCH   6  18
HETATM   18  N2  UNL     1      13.843  10.821  56.989  1.00  0.00    -0.274 N
HETATM   19  C5  UNL     1      14.003  10.125  55.932  1.00  0.00     0.215 C
HETATM   20  N3  UNL     1      13.055   9.073  55.716  1.00  0.00    -0.065 NA
HETATM   21  N4  UNL     1      15.065  10.350  54.999  1.00  0.00    -0.065 NA
ATOM     22  H2  UNL     1      13.046  10.532  57.557  1.00  0.00     0.189 HD
ENDBRANCH   6  18
TORSDOF 4
ENDMDL