MODEL 1
REMARK VINA RESULT: -6.969573420      0.000      0.000
REMARK  5 active torsions:
REMARK  status: ('A' for Active; 'I' for Inactive)
REMARK    1  A    between atoms: C4_8  and  C5_9
REMARK       I    between atoms: C5_9  and  N3_11
REMARK    2  A    between atoms: N3_11  and  N4_13
REMARK    3  A    between atoms: N4_13  and  C6_15
REMARK    4  A    between atoms: C6_15  and  N5_17
REMARK    5  A    between atoms: N5_17  and  N6_19
REMARK       I    between atoms: N6_19  and  C7_21
ROOT
HETATM    1  C5  UNL     1      12.046  14.334  60.127  1.00  0.00     0.297 C
HETATM    2  O1  UNL     1      11.008  13.650  60.289  1.00  0.00    -0.267 OA
HETATM    3  N3  UNL     1      12.994  13.900  59.166  1.00  0.00    -0.264 N
ATOM      4  H3  UNL     1      13.841  14.452  59.028  1.00  0.00     0.190 HD
ENDROOT
BRANCH   3   5
HETATM    5  N4  UNL     1      12.813  12.748  58.402  1.00  0.00    -0.272 N
ATOM      6  H4  UNL     1      11.917  12.264  58.465  1.00  0.00     0.189 HD
BRANCH   5   7
HETATM    7  C6  UNL     1      13.798  12.215  57.548  1.00  0.00     0.205 C
HETATM    8  S1  UNL     1      15.362  12.649  57.794  1.00  0.00    -0.038 SA
BRANCH   7   9
HETATM    9  N5  UNL     1      13.448  11.322  56.497  1.00  0.00    -0.271 N
ATOM     10  H5  UNL     1      12.468  11.074  56.367  1.00  0.00     0.189 HD
BRANCH   9  11
HETATM   11  N6  UNL     1      14.402  10.773  55.637  1.00  0.00    -0.252 N
HETATM   12  C7  UNL     1      14.203   9.486  55.107  1.00  0.00     0.347 C
HETATM   13  N7  UNL     1      15.159   8.907  54.231  1.00  0.00    -0.038 NA
HETATM   14  O2  UNL     1      13.168   8.850  55.418  1.00  0.00    -0.249 OA
ATOM     15  H6  UNL     1      15.238  11.304  55.394  1.00  0.00     0.191 HD
ENDBRANCH   9  11
ENDBRANCH   7   9
ENDBRANCH   5   7
ENDBRANCH   3   5
BRANCH   1  16
HETATM   16  C4  UNL     1      12.311  15.555  60.888  1.00  0.00     0.511 C
HETATM   17  N1  UNL     1      12.455  15.309  62.315  1.00  0.00     0.126 N
HETATM   18  C1  UNL     1      13.506  14.341  62.557  1.00  0.00     0.313 C
HETATM   19  C2  UNL     1      12.925  16.603  62.780  1.00  0.00     0.302 C
HETATM   20  C3  UNL     1      13.751  17.121  61.622  1.00  0.00     0.265 C
HETATM   21  N2  UNL     1      13.599  16.146  60.568  1.00  0.00    -0.033 N
ATOM     22  H22 UNL     1      13.681  16.517  59.621  1.00  0.00     0.280 HD
ATOM     23  H21 UNL     1      14.368  15.483  60.477  1.00  0.00     0.280 HD
ENDBRANCH   1  16
TORSDOF 5
ENDMDL