MODEL 5
REMARK VINA RESULT: -7.243105264      1.758      1.918
REMARK  5 active torsions:
REMARK  status: ('A' for Active; 'I' for Inactive)
REMARK    1  A    between atoms: N1_1  and  N2_4
REMARK       I    between atoms: C1_6  and  N3_7
REMARK       I    between atoms: C1_6  and  N7_18
REMARK    2  A    between atoms: N3_7  and  N4_9
REMARK       I    between atoms: N4_9  and  C2_11
REMARK       I    between atoms: C2_11  and  N5_13
REMARK    3  A    between atoms: N5_13  and  C3_14
REMARK    4  A    between atoms: C3_14  and  O2_16
REMARK    5  A    between atoms: C7_22  and  C8_23
ROOT
HETATM    1  N2  UNL     1      12.481  12.935  60.637  1.00  0.00    -0.137 N
ATOM      2  H2  UNL     1      12.464  11.926  60.491  1.00  0.00     0.205 HD
HETATM    3  C1  UNL     1      13.603  13.559  60.408  1.00  0.00     0.710 C
HETATM    4  N3  UNL     1      13.636  14.971  60.613  1.00  0.00    -0.126 N
ATOM      5  H3  UNL     1      13.023  15.558  60.047  1.00  0.00     0.206 HD
HETATM    6  N7  UNL     1      14.765  12.907  59.988  1.00  0.00    -0.200 N
HETATM    7  C4  UNL     1      15.961  12.735  60.835  1.00  0.00     0.142 C
HETATM    8  C5  UNL     1      16.475  11.352  60.507  1.00  0.00     0.023 C
HETATM    9  C6  UNL     1      15.536  10.871  59.379  1.00  0.00     0.038 C
HETATM   10  C7  UNL     1      15.161  12.227  58.768  1.00  0.00     0.203 C
ENDROOT
BRANCH   1  11
HETATM   11  N1  UNL     1      11.318  13.536  61.062  1.00  0.00    -0.331 N
ATOM     12  H12 UNL     1      11.053  14.400  60.588  1.00  0.00     0.177 HD
ATOM     13  H11 UNL     1      10.714  13.182  61.805  1.00  0.00     0.177 HD
ENDBRANCH   1  11
BRANCH   4  14
HETATM   14  N4  UNL     1      14.448  15.575  61.531  1.00  0.00    -0.225 N
HETATM   15  C2  UNL     1      14.655  17.003  61.475  1.00  0.00     0.416 C
HETATM   16  O1  UNL     1      14.025  17.596  60.538  1.00  0.00    -0.228 OA
HETATM   17  N5  UNL     1      15.468  17.666  62.358  1.00  0.00    -0.311 NA
ATOM     18  H4  UNL     1      14.905  15.019  62.253  1.00  0.00     0.193 HD
BRANCH  17  19
HETATM   19  C3  UNL     1      16.260  18.311  63.217  1.00  0.00     0.310 C
HETATM   20  N6  UNL     1      17.453  17.867  63.881  1.00  0.00    -0.042 NA
BRANCH  19  21
HETATM   21  O2  UNL     1      15.960  19.554  63.557  1.00  0.00    -0.324 OA
ATOM     22  H2  UNL     1      16.156  20.258  62.952  1.00  0.00     0.221 HD
ENDBRANCH  19  21
ENDBRANCH  17  19
ENDBRANCH   4  14
BRANCH  10  23
HETATM   23  C8  UNL     1      14.173  12.154  57.709  1.00  0.00     0.197 C
HETATM   24  O3  UNL     1      14.329  12.655  56.584  1.00  0.00    -0.646 OA
HETATM   25  O4  UNL     1      12.963  11.479  57.953  1.00  0.00    -0.646 OA
ENDBRANCH  10  23
TORSDOF 5
ENDMDL