MODEL 5
REMARK VINA RESULT: -7.784010116      0.900      1.069
REMARK  6 active torsions:
REMARK  status: ('A' for Active; 'I' for Inactive)
REMARK       I    between atoms: C1_4  and  N3_6
REMARK    1  A    between atoms: N3_6  and  N4_8
REMARK    2  A    between atoms: N4_8  and  C2_10
REMARK    3  A    between atoms: C2_10  and  O1_11
REMARK       I    between atoms: N5_13  and  C3_15
REMARK    4  A    between atoms: C3_15  and  C4_17
REMARK    5  A    between atoms: N6_21  and  S1_22
REMARK    6  A    between atoms: S1_22  and  N7_23
ROOT
HETATM    1  C2  UNL     1      13.982  11.446  58.929  1.00  0.00     0.238 C
HETATM    2  N5  UNL     1      13.832  12.597  59.481  1.00  0.00    -0.290 N
ATOM      3  H5  UNL     1      13.137  13.230  59.086  1.00  0.00     0.172 HD
HETATM    4  C3  UNL     1      14.572  13.039  60.601  1.00  0.00     0.243 C
HETATM    5  O2  UNL     1      15.230  12.218  61.271  1.00  0.00    -0.271 OA
ENDROOT
BRANCH   1   6
HETATM    6  N4  UNL     1      13.197  11.083  57.807  1.00  0.00    -0.263 N
ATOM      7  H4  UNL     1      12.432  10.415  57.900  1.00  0.00     0.190 HD
BRANCH   6   8
HETATM    8  N3  UNL     1      13.495  11.655  56.578  1.00  0.00    -0.271 N
HETATM    9  C1  UNL     1      14.826  11.831  56.114  1.00  0.00     0.200 C
HETATM   10  N1  UNL     1      15.404  10.850  55.508  1.00  0.00    -0.372 N
HETATM   11  N2  UNL     1      15.516  13.066  56.311  1.00  0.00    -0.062 NA
ATOM     12  H12 UNL     1      16.360  10.976  55.176  1.00  0.00     0.158 HD
ATOM     13  H11 UNL     1      14.911   9.968  55.368  1.00  0.00     0.158 HD
ATOM     14  H3  UNL     1      12.726  11.962  55.983  1.00  0.00     0.189 HD
ENDBRANCH   6   8
ENDBRANCH   1   6
BRANCH   1  15
HETATM   15  O1  UNL     1      14.902  10.533  59.406  1.00  0.00    -0.331 OA
ATOM     16  H1  UNL     1      15.205   9.852  58.818  1.00  0.00     0.221 HD
ENDBRANCH   1  15
BRANCH   4  17
HETATM   17  C4  UNL     1      14.579  14.455  60.993  1.00  0.00     0.168 C
HETATM   18  C5  UNL     1      15.969  14.904  61.464  1.00  0.00     0.032 C
HETATM   19  C6  UNL     1      15.552  16.105  62.327  1.00  0.00     0.018 C
HETATM   20  C7  UNL     1      14.391  15.482  63.075  1.00  0.00     0.110 C
HETATM   21  N6  UNL     1      13.676  14.768  62.052  1.00  0.00    -0.180 NA
BRANCH  21  22
HETATM   22  S1  UNL     1      12.375  15.767  61.492  1.00  0.00     0.297 S
HETATM   23  O3  UNL     1      11.309  15.926  62.543  1.00  0.00    -0.189 OA
HETATM   24  O4  UNL     1      11.734  15.167  60.274  1.00  0.00    -0.189 OA
BRANCH  22  25
HETATM   25  N7  UNL     1      12.950  17.335  61.043  1.00  0.00    -0.316 N
ATOM     26  H72 UNL     1      13.934  17.555  60.889  1.00  0.00     0.170 HD
ATOM     27  H71 UNL     1      12.177  17.995  60.954  1.00  0.00     0.170 HD
ENDBRANCH  22  25
ENDBRANCH  21  22
ENDBRANCH   4  17
TORSDOF 6
ENDMDL