MODEL 3
REMARK VINA RESULT: -7.058004323      2.330      5.971
REMARK  3 active torsions:
REMARK  status: ('A' for Active; 'I' for Inactive)
REMARK       I    between atoms: C1_4  and  N2_5
REMARK       I    between atoms: C1_4  and  N4_10
REMARK    1  A    between atoms: N2_5  and  N3_7
REMARK    2  A    between atoms: N4_10  and  S1_12
REMARK    3  A    between atoms: S1_12  and  N5_15
REMARK       I    between atoms: N6_18  and  C4_19
ROOT
HETATM    1  S1  UNL     1      15.029  12.119  58.726  1.00  0.00     0.342 S
HETATM    2  O1  UNL     1      14.868  13.048  57.541  1.00  0.00    -0.181 OA
HETATM    3  O2  UNL     1      16.511  11.966  58.997  1.00  0.00    -0.181 OA
ENDROOT
BRANCH   1   4
HETATM    4  N4  UNL     1      14.359  10.567  58.418  1.00  0.00    -0.098 N
HETATM    5  C1  UNL     1      13.760  10.311  57.165  1.00  0.00     0.700 C
HETATM    6  N1  UNL     1      14.455  10.419  56.088  1.00  0.00    -0.233 N
HETATM    7  N2  UNL     1      12.389   9.933  57.077  1.00  0.00    -0.138 N
ATOM      8  H12 UNL     1      14.022  10.234  55.182  1.00  0.00     0.174 HD
ATOM      9  H11 UNL     1      15.436  10.690  56.151  1.00  0.00     0.174 HD
ATOM     10  H2  UNL     1      11.665  10.485  57.537  1.00  0.00     0.205 HD
ATOM     11  H4  UNL     1      14.394   9.838  59.132  1.00  0.00     0.199 HD
BRANCH   7  12
HETATM   12  N3  UNL     1      12.060   8.789  56.345  1.00  0.00    -0.331 N
ATOM     13  H32 UNL     1      12.787   8.285  55.836  1.00  0.00     0.177 HD
ATOM     14  H31 UNL     1      11.088   8.480  56.337  1.00  0.00     0.177 HD
ENDBRANCH   7  12
ENDBRANCH   1   4
BRANCH   1  15
HETATM   15  N5  UNL     1      14.295  12.870  60.089  1.00  0.00    -0.249 N
HETATM   16  C2  UNL     1      13.151  13.613  59.775  1.00  0.00     0.102 C
HETATM   17  C3  UNL     1      13.171  15.065  60.145  1.00  0.00     0.171 C
HETATM   18  N6  UNL     1      13.601  15.157  61.511  1.00  0.00    -0.346 N
HETATM   19  C4  UNL     1      12.881  15.942  62.429  1.00  0.00     0.184 C
HETATM   20  C5  UNL     1      14.758  14.452  61.932  1.00  0.00     0.171 C
HETATM   21  N7  UNL     1      13.457  16.680  63.316  1.00  0.00    -0.374 N
HETATM   22  N8  UNL     1      11.462  15.947  62.409  1.00  0.00    -0.064 NA
ATOM     23  H72 UNL     1      14.477  16.676  63.330  1.00  0.00     0.158 HD
ATOM     24  H71 UNL     1      12.935  17.249  63.982  1.00  0.00     0.158 HD
HETATM   25  C6  UNL     1      15.180  13.323  61.064  1.00  0.00     0.102 C
ENDBRANCH   1  15
TORSDOF 3
ENDMDL