MODEL 4
REMARK VINA RESULT: -5.840052655      1.211      1.253
REMARK  3 active torsions:
REMARK  status: ('A' for Active; 'I' for Inactive)
REMARK    1  A    between atoms: N1_2  and  C2_5
REMARK    2  A    between atoms: C2_5  and  C3_6
REMARK    3  A    between atoms: C3_6  and  N3_10
ROOT
HETATM    1  N3  UNL     1      14.648  15.540  60.998  1.00  0.00    -0.345 N
HETATM    2  C4  UNL     1      13.749  16.660  61.188  1.00  0.00     0.153 C
HETATM    3  C5  UNL     1      13.029  16.563  62.520  1.00  0.00     0.252 C
HETATM    4  N4  UNL     1      13.773  17.094  63.612  1.00  0.00    -0.072 N
ATOM      5  H41 UNL     1      14.751  17.233  63.356  1.00  0.00     0.277 HD
ATOM      6  H42 UNL     1      13.893  16.397  64.347  1.00  0.00     0.277 HD
HETATM    7  C6  UNL     1      13.189  18.330  64.148  1.00  0.00     0.259 C
HETATM    8  C7  UNL     1      14.223  18.907  65.110  1.00  0.00     0.259 C
HETATM    9  N5  UNL     1      15.301  19.440  64.307  1.00  0.00    -0.072 N
ATOM     10  H51 UNL     1      15.077  20.379  63.979  1.00  0.00     0.277 HD
ATOM     11  H52 UNL     1      15.357  18.957  63.410  1.00  0.00     0.277 HD
HETATM   12  C8  UNL     1      16.575  19.424  64.973  1.00  0.00     0.259 C
HETATM   13  C9  UNL     1      17.642  19.576  63.885  1.00  0.00     0.259 C
HETATM   14  N6  UNL     1      17.388  18.734  62.759  1.00  0.00    -0.072 N
ATOM     15  H61 UNL     1      17.407  19.277  61.895  1.00  0.00     0.277 HD
ATOM     16  H62 UNL     1      16.414  18.432  62.751  1.00  0.00     0.277 HD
HETATM   17  C10 UNL     1      18.273  17.597  62.662  1.00  0.00     0.260 C
HETATM   18  C11 UNL     1      18.021  16.900  61.354  1.00  0.00     0.261 C
HETATM   19  N7  UNL     1      16.644  16.911  60.963  1.00  0.00    -0.058 N
ATOM     20  H71 UNL     1      16.523  17.051  59.960  1.00  0.00     0.279 HD
ATOM     21  H72 UNL     1      16.154  17.747  61.281  1.00  0.00     0.279 HD
HETATM   22  C12 UNL     1      16.022  15.687  61.434  1.00  0.00     0.358 C
ENDROOT
BRANCH   1  23
HETATM   23  C3  UNL     1      14.157  14.349  60.399  1.00  0.00     0.100 C
HETATM   24  N2  UNL     1      13.210  14.397  59.534  1.00  0.00    -0.388 N
ATOM     25  H22 UNL     1      12.858  13.542  59.104  1.00  0.00     0.157 HD
ATOM     26  H21 UNL     1      12.806  15.297  59.273  1.00  0.00     0.157 HD
BRANCH  23  27
HETATM   27  C2  UNL     1      14.735  13.064  60.773  1.00  0.00     0.307 C
BRANCH  27  28
HETATM   28  N1  UNL     1      15.650  12.502  59.816  1.00  0.00    -0.072 N
HETATM   29  C1  UNL     1      16.343  11.327  60.270  1.00  0.00     0.267 C
ATOM     30  H12 UNL     1      16.317  13.209  59.505  1.00  0.00     0.277 HD
ATOM     31  H11 UNL     1      15.171  12.314  58.935  1.00  0.00     0.277 HD
ENDBRANCH  27  28
ENDBRANCH  23  27
ENDBRANCH   1  23
TORSDOF 3
ENDMDL