MODEL 1
REMARK VINA RESULT: -7.800610597      0.000      0.000
REMARK  5 active torsions:
REMARK  status: ('A' for Active; 'I' for Inactive)
REMARK       I    between atoms: C2_2  and  N1_4
REMARK    1  A    between atoms: N1_4  and  N2_6
REMARK       I    between atoms: N2_6  and  C3_8
REMARK       I    between atoms: C3_8  and  N3_10
REMARK    2  A    between atoms: N3_10  and  N4_12
REMARK       I    between atoms: N4_12  and  C4_13
REMARK    3  A    between atoms: C4_13  and  C5_15
REMARK    4  A    between atoms: C9_19  and  N5_20
REMARK    5  A    between atoms: C9_19  and  C10_24
ROOT
HETATM    1  N4  UNL     1      12.411  12.978  59.512  1.00  0.00    -0.282 NA
HETATM    2  C4  UNL     1      12.161  13.133  60.973  1.00  0.00     0.320 C
HETATM    3  O3  UNL     1      11.053  13.336  61.336  1.00  0.00    -0.255 OA
ENDROOT
BRANCH   2   4
HETATM    4  C5  UNL     1      13.407  13.019  61.796  1.00  0.00     0.151 A
HETATM    5  C6  UNL     1      14.630  13.708  61.341  1.00  0.00     0.011 A
HETATM    6  C7  UNL     1      15.995  13.033  61.502  1.00  0.00     0.019 C
HETATM    7  C8  UNL     1      14.673  14.840  60.371  1.00  0.00     0.019 C
HETATM    8  C9  UNL     1      13.913  14.071  62.673  1.00  0.00     0.222 A
BRANCH   8   9
HETATM    9  N5  UNL     1      14.718  13.636  63.865  1.00  0.00    -0.060 N
ATOM     10  H53 UNL     1      14.319  14.043  64.711  1.00  0.00     0.275 HD
ATOM     11  H52 UNL     1      14.559  12.644  64.040  1.00  0.00     0.275 HD
ATOM     12  H51 UNL     1      15.720  13.821  63.840  1.00  0.00     0.275 HD
ENDBRANCH   8   9
BRANCH   8  13
HETATM   13  C10 UNL     1      13.474  15.445  62.823  1.00  0.00     0.269 C
HETATM   14  N6  UNL     1      14.402  16.432  63.334  1.00  0.00    -0.060 NA
HETATM   15  O4  UNL     1      12.344  15.932  62.556  1.00  0.00    -0.274 OA
ENDBRANCH   8  13
ENDBRANCH   2   4
BRANCH   1  16
HETATM   16  N3  UNL     1      12.607  12.854  58.303  1.00  0.00    -0.180 N
HETATM   17  C3  UNL     1      13.007  11.497  57.734  1.00  0.00     0.363 C
HETATM   18  N2  UNL     1      13.156  11.342  56.364  1.00  0.00    -0.247 N
HETATM   19  O2  UNL     1      13.139  10.678  58.620  1.00  0.00    -0.243 OA
ATOM     20  H2  UNL     1      13.049  12.143  55.743  1.00  0.00     0.192 HD
ATOM     21  H3  UNL     1      12.503  13.657  57.683  1.00  0.00     0.207 HD
BRANCH  18  22
HETATM   22  N1  UNL     1      13.461  10.045  55.825  1.00  0.00    -0.266 N
HETATM   23  C2  UNL     1      14.662   9.929  55.049  1.00  0.00     0.232 C
HETATM   24  C1  UNL     1      15.091   8.692  54.400  1.00  0.00     0.119 C
HETATM   25  O1  UNL     1      15.350  11.008  54.948  1.00  0.00    -0.272 OA
ATOM     26  H1  UNL     1      12.852   9.244  55.987  1.00  0.00     0.190 HD
ENDBRANCH  18  22
ENDBRANCH   1  16
TORSDOF 5
ENDMDL