MODEL 1
REMARK VINA RESULT: -7.216682193      0.000      0.000
REMARK  5 active torsions:
REMARK  status: ('A' for Active; 'I' for Inactive)
REMARK       I    between atoms: C1_4  and  N3_6
REMARK    1  A    between atoms: N3_6  and  N4_8
REMARK    2  A    between atoms: N4_8  and  C2_10
REMARK    3  A    between atoms: C2_10  and  N5_12
REMARK    4  A    between atoms: N5_12  and  C3_14
REMARK    5  A    between atoms: C5_17  and  C6_18
ROOT
HETATM    1  C2  UNL     1      13.968  11.626  59.523  1.00  0.00     0.187 C
HETATM    2  S1  UNL     1      15.476  11.285  60.023  1.00  0.00    -0.040 SA
ENDROOT
BRANCH   1   3
HETATM    3  N4  UNL     1      13.588  11.402  58.190  1.00  0.00    -0.274 N
ATOM      4  H4  UNL     1      13.141  10.512  57.967  1.00  0.00     0.189 HD
BRANCH   3   5
HETATM    5  N3  UNL     1      13.778  12.307  57.154  1.00  0.00    -0.272 N
HETATM    6  C1  UNL     1      14.943  12.181  56.352  1.00  0.00     0.200 C
HETATM    7  N1  UNL     1      15.321  11.074  55.841  1.00  0.00    -0.372 N
HETATM    8  N2  UNL     1      15.694  13.387  56.136  1.00  0.00    -0.062 NA
ATOM      9  H12 UNL     1      16.157  10.983  55.266  1.00  0.00     0.158 HD
ATOM     10  H11 UNL     1      14.788  10.218  55.995  1.00  0.00     0.158 HD
ATOM     11  H3  UNL     1      13.096  13.044  56.973  1.00  0.00     0.189 HD
ENDBRANCH   3   5
ENDBRANCH   1   3
BRANCH   1  12
HETATM   12  N5  UNL     1      13.044  12.155  60.460  1.00  0.00    -0.357 N
ATOM     13  H5  UNL     1      12.282  11.564  60.791  1.00  0.00     0.162 HD
BRANCH  12  14
HETATM   14  C3  UNL     1      13.152  13.506  60.961  1.00  0.00     0.131 C
HETATM   15  C4  UNL     1      11.917  13.850  61.722  1.00  0.00     0.198 C
HETATM   16  O1  UNL     1      11.893  15.173  62.096  1.00  0.00    -0.351 OA
HETATM   17  C5  UNL     1      12.148  16.068  61.094  1.00  0.00     0.350 C
HETATM   18  O3  UNL     1      12.338  15.480  59.850  1.00  0.00    -0.351 OA
HETATM   19  C7  UNL     1      13.316  14.511  59.840  1.00  0.00     0.198 C
BRANCH  17  20
HETATM   20  C6  UNL     1      13.267  16.931  61.495  1.00  0.00     0.286 C
HETATM   21  N6  UNL     1      13.662  16.995  62.841  1.00  0.00    -0.058 NA
HETATM   22  O2  UNL     1      13.867  17.608  60.643  1.00  0.00    -0.271 OA
ENDBRANCH  17  20
ENDBRANCH  12  14
ENDBRANCH   1  12
TORSDOF 5
ENDMDL