MODEL 1
REMARK VINA RESULT: -6.956585078      0.000      0.000
REMARK  4 active torsions:
REMARK  status: ('A' for Active; 'I' for Inactive)
REMARK       I    between atoms: C1_4  and  N3_6
REMARK    1  A    between atoms: N3_6  and  C2_8
REMARK    2  A    between atoms: N4_11  and  S1_12
REMARK    3  A    between atoms: S1_12  and  C5_15
REMARK    4  A    between atoms: C7_21  and  N7_22
ROOT
HETATM    1  C2  UNL     1      14.854  10.988  57.531  1.00  0.00     0.116 C
HETATM    2  C3  UNL     1      14.348  10.582  58.882  1.00  0.00     0.043 C
HETATM    3  C4  UNL     1      13.589  11.698  59.571  1.00  0.00     0.110 C
HETATM    4  N4  UNL     1      14.498  12.821  59.684  1.00  0.00    -0.202 NA
HETATM    5  C6  UNL     1      14.895  13.345  58.392  1.00  0.00     0.142 C
HETATM    6  C7  UNL     1      15.528  12.313  57.508  1.00  0.00     0.220 C
ENDROOT
BRANCH   4   7
HETATM    7  S1  UNL     1      13.758  14.143  60.532  1.00  0.00     0.272 S
HETATM    8  O1  UNL     1      14.876  15.093  60.894  1.00  0.00    -0.203 OA
HETATM    9  O2  UNL     1      12.870  14.849  59.536  1.00  0.00    -0.203 OA
BRANCH   7  10
HETATM   10  C5  UNL     1      12.911  13.627  61.940  1.00  0.00     0.221 C
HETATM   11  N5  UNL     1      13.533  13.083  62.929  1.00  0.00    -0.377 N
ATOM     12  H52 UNL     1      14.544  12.964  62.860  1.00  0.00     0.158 HD
ATOM     13  H51 UNL     1      13.031  12.778  63.763  1.00  0.00     0.158 HD
HETATM   14  N6  UNL     1      11.502  13.794  62.037  1.00  0.00    -0.069 NA
ENDBRANCH   7  10
ENDBRANCH   4   7
BRANCH   6  15
HETATM   15  N7  UNL     1      15.501  12.817  56.146  1.00  0.00    -0.072 N
ATOM     16  H73 UNL     1      16.371  12.637  55.645  1.00  0.00     0.274 HD
ATOM     17  H72 UNL     1      14.878  12.281  55.542  1.00  0.00     0.274 HD
ATOM     18  H71 UNL     1      15.263  13.808  56.175  1.00  0.00     0.274 HD
ENDBRANCH   6  15
BRANCH   1  19
HETATM   19  N3  UNL     1      13.750  10.898  56.589  1.00  0.00    -0.358 N
HETATM   20  C1  UNL     1      13.285   9.626  56.152  1.00  0.00     0.182 C
HETATM   21  N1  UNL     1      13.915   9.059  55.191  1.00  0.00    -0.374 N
HETATM   22  N2  UNL     1      12.169   8.961  56.722  1.00  0.00    -0.064 NA
ATOM     23  H12 UNL     1      13.581   8.147  54.877  1.00  0.00     0.158 HD
ATOM     24  H11 UNL     1      14.717   9.538  54.782  1.00  0.00     0.158 HD
ATOM     25  H3  UNL     1      13.308  11.748  56.240  1.00  0.00     0.162 HD
ENDBRANCH   1  19
TORSDOF 4
ENDMDL