MODEL 2
REMARK VINA RESULT: -7.008094730      0.885      1.083
REMARK  4 active torsions:
REMARK  status: ('A' for Active; 'I' for Inactive)
REMARK    1  A    between atoms: C2_2  and  C4_10
REMARK    2  A    between atoms: N1_3  and  N2_5
REMARK    3  A    between atoms: C7_13  and  N5_14
REMARK    4  A    between atoms: N5_14  and  C9_16
ROOT
HETATM    1  C9  UNL     1     -34.095  18.214 -27.549  1.00  0.00     0.189 C
HETATM    2  C10 UNL     1     -34.152  19.411 -28.483  1.00  0.00     0.048 C
HETATM    3  C11 UNL     1     -34.480  17.051 -28.329  1.00  0.00     0.084 C
HETATM    4  N6  UNL     1     -34.770  16.120 -28.973  1.00  0.00    -0.195 NA
ENDROOT
BRANCH   1   5
HETATM    5  N5  UNL     1     -34.855  18.414 -26.358  1.00  0.00    -0.349 N
HETATM    6  C8  UNL     1     -36.197  17.847 -26.271  1.00  0.00     0.153 C
BRANCH   5   7
HETATM    7  C7  UNL     1     -34.382  19.143 -25.229  1.00  0.00     0.147 A
HETATM    8  C6  UNL     1     -34.737  20.438 -24.928  1.00  0.00     0.059 A
HETATM    9  C5  UNL     1     -34.080  20.799 -23.765  1.00  0.00     0.043 A
HETATM   10  C4  UNL     1     -33.343  19.703 -23.399  1.00  0.00     0.101 A
HETATM   11  O1  UNL     1     -33.561  18.756 -24.298  1.00  0.00    -0.292 OA
BRANCH  10  12
HETATM   12  C2  UNL     1     -32.482  19.610 -22.228  1.00  0.00     0.056 C
HETATM   13  C1  UNL     1     -33.048  20.259 -20.972  1.00  0.00     0.072 C
HETATM   14  N1  UNL     1     -31.345  19.057 -22.165  1.00  0.00    -0.300 N
ATOM     15  H1  UNL     1     -30.912  19.108 -21.243  1.00  0.00     0.186 HD
BRANCH  14  16
HETATM   16  N2  UNL     1     -30.594  18.411 -23.088  1.00  0.00    -0.276 N
HETATM   17  C3  UNL     1     -29.438  17.897 -22.930  1.00  0.00     0.215 C
HETATM   18  N3  UNL     1     -28.812  17.983 -21.646  1.00  0.00    -0.065 NA
HETATM   19  N4  UNL     1     -28.768  17.248 -23.995  1.00  0.00    -0.065 NA
ATOM     20  H2  UNL     1     -31.001  18.324 -24.019  1.00  0.00     0.189 HD
ENDBRANCH  14  16
ENDBRANCH  10  12
ENDBRANCH   5   7
ENDBRANCH   1   5
TORSDOF 4
ENDMDL