MODEL 5
REMARK VINA RESULT: -4.603601418      3.174      6.618
REMARK  6 active torsions:
REMARK  status: ('A' for Active; 'I' for Inactive)
REMARK    1  A    between atoms: C2_2  and  C3_3
REMARK    2  A    between atoms: C3_3  and  C4_4
REMARK    3  A    between atoms: C4_4  and  O1_5
REMARK    4  A    between atoms: C4_4  and  C5_7
REMARK    5  A    between atoms: C7_12  and  C8_13
REMARK    6  A    between atoms: C11_17  and  O2_18
ROOT
HETATM    1  C5  UNL     1     -34.320  23.841 -21.529  1.00  0.00     0.179 C
HETATM    2  C6  UNL     1     -34.062  22.369 -21.216  1.00  0.00     0.267 C
HETATM    3  N1  UNL     1     -34.811  21.481 -22.039  1.00  0.00    -0.067 N
ATOM      4  H11 UNL     1     -35.802  21.721 -22.011  1.00  0.00     0.277 HD
ATOM      5  H12 UNL     1     -34.845  20.551 -21.622  1.00  0.00     0.277 HD
HETATM    6  C7  UNL     1     -34.354  21.404 -23.393  1.00  0.00     0.205 C
HETATM    7  C10 UNL     1     -35.229  22.300 -24.230  1.00  0.00     0.094 C
HETATM    8  C11 UNL     1     -35.516  23.608 -23.543  1.00  0.00     0.259 C
HETATM    9  O3  UNL     1     -34.529  24.124 -22.810  1.00  0.00    -0.352 OA
ENDROOT
BRANCH   1  10
HETATM   10  C4  UNL     1     -35.248  24.446 -20.504  1.00  0.00     0.148 C
BRANCH  10  11
HETATM   11  C3  UNL     1     -34.727  25.719 -19.877  1.00  0.00     0.034 C
BRANCH  11  12
HETATM   12  C2  UNL     1     -33.429  26.202 -20.411  1.00  0.00    -0.002 C
HETATM   13  C1  UNL     1     -32.991  27.356 -19.494  1.00  0.00     0.005 C
ENDBRANCH  11  12
ENDBRANCH  10  11
BRANCH  10  14
HETATM   14  O1  UNL     1     -35.375  23.555 -19.403  1.00  0.00    -0.393 OA
ATOM     15  H1  UNL     1     -34.840  22.810 -19.653  1.00  0.00     0.210 HD
ENDBRANCH  10  14
ENDBRANCH   1  10
BRANCH   8  16
HETATM   16  O2  UNL     1     -36.761  23.500 -22.940  1.00  0.00    -0.371 OA
ATOM     17  H2  UNL     1     -36.979  24.351 -22.580  1.00  0.00     0.212 HD
ENDBRANCH   8  16
BRANCH   6  18
HETATM   18  C8  UNL     1     -34.423  19.993 -23.856  1.00  0.00     0.087 A
HETATM   19  C9  UNL     1     -34.465  19.643 -25.315  1.00  0.00     0.091 A
HETATM   20  S1  UNL     1     -32.872  19.326 -24.522  1.00  0.00    -0.160 SA
ENDBRANCH   6  18
TORSDOF 6
ENDMDL