MODEL 5
REMARK VINA RESULT: -4.155598996      3.898      6.713
REMARK  5 active torsions:
REMARK  status: ('A' for Active; 'I' for Inactive)
REMARK    1  A    between atoms: O1_1  and  N1_3
REMARK    2  A    between atoms: C6_13  and  C7_14
REMARK    3  A    between atoms: C7_14  and  C8_15
REMARK    4  A    between atoms: C8_15  and  C9_16
REMARK    5  A    between atoms: C9_16  and  N3_17
ROOT
HETATM    1  N1  UNL     1     -35.641  17.127 -26.963  1.00  0.00    -0.162 NA
HETATM    2  C1  UNL     1     -35.375  15.977 -27.772  1.00  0.00     0.288 C
HETATM    3  O2  UNL     1     -34.026  15.863 -27.965  1.00  0.00    -0.373 OA
HETATM    4  C2  UNL     1     -33.391  16.846 -27.212  1.00  0.00     0.199 C
HETATM    5  C3  UNL     1     -34.435  17.905 -27.133  1.00  0.00     0.091 C
HETATM    6  C4  UNL     1     -34.542  18.760 -28.348  1.00  0.00     0.262 C
HETATM    7  N2  UNL     1     -35.343  19.871 -27.900  1.00  0.00    -0.073 N
ATOM      8  H21 UNL     1     -36.332  19.763 -28.123  1.00  0.00     0.277 HD
ATOM      9  H22 UNL     1     -35.177  20.722 -28.438  1.00  0.00     0.277 HD
HETATM   10  C5  UNL     1     -35.099  20.043 -26.487  1.00  0.00     0.239 C
HETATM   11  C6  UNL     1     -34.217  18.910 -26.039  1.00  0.00     0.040 C
ENDROOT
BRANCH  11  12
HETATM   12  C7  UNL     1     -34.564  18.391 -24.680  1.00  0.00     0.010 C
BRANCH  12  13
HETATM   13  C8  UNL     1     -34.638  19.509 -23.685  1.00  0.00     0.021 C
BRANCH  13  14
HETATM   14  C9  UNL     1     -33.363  20.327 -23.649  1.00  0.00     0.128 C
BRANCH  14  15
HETATM   15  N3  UNL     1     -32.339  19.640 -22.864  1.00  0.00    -0.366 N
HETATM   16  C10 UNL     1     -31.200  19.081 -23.352  1.00  0.00     0.090 A
HETATM   17  C11 UNL     1     -30.465  18.520 -22.345  1.00  0.00     0.019 A
HETATM   18  C12 UNL     1     -31.171  18.736 -21.173  1.00  0.00     0.019 A
HETATM   19  C13 UNL     1     -32.308  19.423 -21.543  1.00  0.00     0.090 A
ENDBRANCH  14  15
ENDBRANCH  13  14
ENDBRANCH  12  13
ENDBRANCH  11  12
BRANCH   1  20
HETATM   20  O1  UNL     1     -36.746  17.766 -27.392  1.00  0.00    -0.310 OA
ATOM     21  H1  UNL     1     -36.686  17.957 -28.321  1.00  0.00     0.237 HD
ENDBRANCH   1  20
TORSDOF 5
ENDMDL