MODEL 2
REMARK VINA RESULT: -6.876646444      1.301      1.476
REMARK  5 active torsions:
REMARK  status: ('A' for Active; 'I' for Inactive)
REMARK    1  A    between atoms: C2_3  and  C3_4
REMARK    2  A    between atoms: C2_3  and  N6_17
REMARK    3  A    between atoms: C3_4  and  S1_5
REMARK    4  A    between atoms: S1_5  and  C4_6
REMARK    5  A    between atoms: C5_9  and  N3_10
ROOT
HETATM    1  N1  UNL     1     -31.199  18.951 -23.625  1.00  0.00    -0.195 NA
HETATM    2  C1  UNL     1     -32.222  19.388 -23.966  1.00  0.00     0.085 C
HETATM    3  C2  UNL     1     -33.508  19.952 -24.376  1.00  0.00     0.204 C
ENDROOT
BRANCH   3   4
HETATM    4  C3  UNL     1     -34.310  18.837 -24.985  1.00  0.00     0.123 C
BRANCH   4   5
HETATM    5  S1  UNL     1     -34.867  19.353 -26.635  1.00  0.00    -0.089 SA
BRANCH   5   6
HETATM    6  C4  UNL     1     -35.078  17.929 -27.699  1.00  0.00     0.174 A
HETATM    7  N2  UNL     1     -35.503  16.688 -27.365  1.00  0.00    -0.168 N
HETATM    8  C5  UNL     1     -35.524  15.899 -28.441  1.00  0.00     0.692 A
ATOM      9  H2  UNL     1     -35.769  16.397 -26.425  1.00  0.00     0.186 HD
HETATM   10  N4  UNL     1     -35.103  16.662 -29.483  1.00  0.00    -0.130 N
HETATM   11  N5  UNL     1     -34.843  17.865 -29.016  1.00  0.00    -0.265 N
ATOM     12  H4  UNL     1     -35.005  16.358 -30.452  1.00  0.00     0.205 HD
ATOM     13  H5  UNL     1     -34.509  18.644 -29.581  1.00  0.00     0.189 HD
BRANCH   8  14
HETATM   14  N3  UNL     1     -35.862  14.658 -28.558  1.00  0.00    -0.233 N
ATOM     15  H32 UNL     1     -35.311  13.971 -29.071  1.00  0.00     0.174 HD
ATOM     16  H31 UNL     1     -36.676  14.162 -28.195  1.00  0.00     0.174 HD
ENDBRANCH   8  14
ENDBRANCH   5   6
ENDBRANCH   4   5
ENDBRANCH   3   4
BRANCH   3  17
HETATM   17  N6  UNL     1     -34.133  20.532 -23.226  1.00  0.00    -0.356 N
HETATM   18  C6  UNL     1     -33.390  20.490 -22.032  1.00  0.00     0.064 C
HETATM   19  C7  UNL     1     -33.913  21.322 -20.893  1.00  0.00     0.045 C
HETATM   20  C8  UNL     1     -34.008  22.743 -21.408  1.00  0.00     0.010 C
HETATM   21  C9  UNL     1     -35.073  22.710 -22.476  1.00  0.00     0.045 C
HETATM   22  C10 UNL     1     -34.909  21.673 -23.509  1.00  0.00     0.064 C
ENDBRANCH   3  17
TORSDOF 5
ENDMDL