MODEL 1
REMARK VINA RESULT: -6.649016612      0.000      0.000
REMARK  5 active torsions:
REMARK  status: ('A' for Active; 'I' for Inactive)
REMARK    1  A    between atoms: C1_2  and  C2_3
REMARK    2  A    between atoms: C2_3  and  C3_4
REMARK    3  A    between atoms: C3_4  and  N2_5
REMARK    4  A    between atoms: N3_11  and  N4_13
REMARK    5  A    between atoms: N4_13  and  C9_15
ROOT
HETATM    1  N1  UNL     1     -34.855  21.731 -23.746  1.00  0.00    -0.086 NA
HETATM    2  C1  UNL     1     -34.318  20.473 -23.363  1.00  0.00     0.109 C
HETATM    3  N3  UNL     1     -33.484  20.466 -22.386  1.00  0.00    -0.288 N
ATOM      4  H3  UNL     1     -33.267  21.365 -21.956  1.00  0.00     0.188 HD
ENDROOT
BRANCH   3   5
HETATM    5  N4  UNL     1     -32.857  19.357 -21.866  1.00  0.00    -0.270 N
ATOM      6  H4  UNL     1     -33.380  18.762 -21.223  1.00  0.00     0.190 HD
BRANCH   5   7
HETATM    7  C9  UNL     1     -31.508  18.994 -22.180  1.00  0.00     0.190 C
HETATM    8  N5  UNL     1     -31.114  18.571 -23.343  1.00  0.00    -0.360 N
HETATM    9  C10 UNL     1     -29.699  18.291 -23.333  1.00  0.00     0.142 C
ATOM     10  H5  UNL     1     -31.722  18.453 -24.153  1.00  0.00     0.162 HD
HETATM   11  C11 UNL     1     -29.403  18.176 -21.853  1.00  0.00     0.142 C
HETATM   12  N6  UNL     1     -30.412  19.037 -21.282  1.00  0.00    -0.360 N
ATOM     13  H6  UNL     1     -30.350  19.566 -20.413  1.00  0.00     0.162 HD
ENDBRANCH   5   7
ENDBRANCH   3   5
BRANCH   2  14
HETATM   14  C2  UNL     1     -34.739  19.263 -24.093  1.00  0.00     0.104 C
BRANCH  14  15
HETATM   15  C3  UNL     1     -34.315  19.264 -25.525  1.00  0.00     0.279 C
BRANCH  15  16
HETATM   16  N2  UNL     1     -34.473  18.005 -26.192  1.00  0.00     0.088 N
HETATM   17  C4  UNL     1     -33.533  17.806 -27.273  1.00  0.00     0.272 C
HETATM   18  C5  UNL     1     -33.761  16.376 -27.775  1.00  0.00     0.030 C
HETATM   19  C6  UNL     1     -35.106  16.341 -28.453  1.00  0.00     0.003 C
HETATM   20  C7  UNL     1     -36.148  16.698 -27.404  1.00  0.00     0.030 C
HETATM   21  C8  UNL     1     -35.805  18.037 -26.818  1.00  0.00     0.272 C
ENDBRANCH  15  16
ENDBRANCH  14  15
ENDBRANCH   2  14
TORSDOF 5
ENDMDL