MODEL 3
REMARK VINA RESULT: -3.500303310      1.376      2.530
REMARK  7 active torsions:
REMARK  status: ('A' for Active; 'I' for Inactive)
REMARK    1  A    between atoms: C2_2  and  C3_3
REMARK    2  A    between atoms: C2_2  and  N2_9
REMARK    3  A    between atoms: C3_3  and  N1_4
REMARK    4  A    between atoms: N1_4  and  C4_7
REMARK    5  A    between atoms: N3_11  and  C6_13
REMARK    6  A    between atoms: C9_17  and  O1_18
REMARK    7  A    between atoms: C10_20  and  O2_22
ROOT
HETATM    1  N2  UNL     1     -34.983  21.636 -24.151  1.00  0.00    -0.306 N
ATOM      2  H2  UNL     1     -35.522  22.174 -24.831  1.00  0.00     0.186 HD
HETATM    3  N3  UNL     1     -34.691  22.074 -23.030  1.00  0.00    -0.301 N
ATOM      4  H3  UNL     1     -34.150  21.418 -22.468  1.00  0.00     0.182 HD
ENDROOT
BRANCH   3   5
HETATM    5  C6  UNL     1     -34.954  23.296 -22.368  1.00  0.00     0.372 C
HETATM    6  N4  UNL     1     -33.998  23.564 -21.299  1.00  0.00     0.114 N
HETATM    7  C7  UNL     1     -33.713  22.355 -20.547  1.00  0.00     0.312 C
HETATM    8  C8  UNL     1     -34.717  24.484 -20.453  1.00  0.00     0.309 C
HETATM    9  C9  UNL     1     -36.118  23.923 -20.410  1.00  0.00     0.184 C
HETATM   10  C10 UNL     1     -36.324  23.284 -21.765  1.00  0.00     0.131 C
HETATM   11  C11 UNL     1     -37.264  24.114 -22.620  1.00  0.00     0.053 C
BRANCH   9  12
HETATM   12  O1  UNL     1     -36.232  23.010 -19.378  1.00  0.00    -0.391 OA
ATOM     13  H1  UNL     1     -36.923  23.275 -18.783  1.00  0.00     0.210 HD
ENDBRANCH   9  12
BRANCH  10  14
HETATM   14  O2  UNL     1     -36.864  22.025 -21.664  1.00  0.00    -0.383 OA
ATOM     15  H2  UNL     1     -37.340  21.882 -20.853  1.00  0.00     0.210 HD
ENDBRANCH  10  14
ENDBRANCH   3   5
BRANCH   1  16
HETATM   16  C2  UNL     1     -34.496  20.295 -24.421  1.00  0.00     0.041 C
HETATM   17  C1  UNL     1     -34.351  19.940 -25.685  1.00  0.00     0.041 C
BRANCH  16  18
HETATM   18  C3  UNL     1     -34.199  19.382 -23.290  1.00  0.00     0.289 C
BRANCH  18  19
HETATM   19  N1  UNL     1     -32.754  19.347 -23.128  1.00  0.00    -0.070 N
ATOM     20  H12 UNL     1     -32.350  18.566 -23.645  1.00  0.00     0.277 HD
ATOM     21  H11 UNL     1     -32.315  20.121 -23.624  1.00  0.00     0.277 HD
BRANCH  19  22
HETATM   22  C4  UNL     1     -32.335  19.320 -21.741  1.00  0.00     0.228 C
HETATM   23  C5  UNL     1     -30.888  18.870 -21.686  1.00  0.00     0.034 C
ENDBRANCH  19  22
ENDBRANCH  18  19
ENDBRANCH  16  18
ENDBRANCH   1  16
TORSDOF 7
ENDMDL