MODEL 4
REMARK VINA RESULT: -3.022769868      3.275      5.111
REMARK  6 active torsions:
REMARK  status: ('A' for Active; 'I' for Inactive)
REMARK    1  A    between atoms: C2_2  and  C3_3
REMARK    2  A    between atoms: C3_3  and  O1_4
REMARK    3  A    between atoms: C3_3  and  C4_6
REMARK    4  A    between atoms: C4_6  and  N1_7
REMARK    5  A    between atoms: C11_14  and  C12_15
REMARK    6  A    between atoms: N3_17  and  O2_19
ROOT
HETATM    1  N1  UNL     1     -35.355  22.080 -22.383  1.00  0.00    -0.380 N
HETATM    2  C5  UNL     1     -34.644  22.186 -23.590  1.00  0.00     0.059 C
HETATM    3  C6  UNL     1     -34.531  20.899 -24.369  1.00  0.00     0.044 C
HETATM    4  C7  UNL     1     -34.207  19.697 -23.553  1.00  0.00     0.005 C
HETATM    5  C8  UNL     1     -33.005  19.818 -22.676  1.00  0.00     0.000 C
HETATM    6  C9  UNL     1     -33.497  20.175 -21.265  1.00  0.00     0.002 C
HETATM    7  C10 UNL     1     -33.290  21.672 -21.124  1.00  0.00     0.033 C
HETATM    8  C11 UNL     1     -34.636  22.344 -21.165  1.00  0.00     0.150 C
ENDROOT
BRANCH   1   9
HETATM    9  C4  UNL     1     -36.676  22.566 -22.317  1.00  0.00     0.154 C
BRANCH   9  10
HETATM   10  C3  UNL     1     -36.807  24.050 -22.708  1.00  0.00     0.135 C
BRANCH  10  11
HETATM   11  C2  UNL     1     -38.276  24.366 -22.379  1.00  0.00     0.029 C
HETATM   12  C1  UNL     1     -38.810  23.402 -21.348  1.00  0.00     0.007 C
ENDBRANCH  10  11
BRANCH  10  13
HETATM   13  O1  UNL     1     -36.683  24.219 -24.085  1.00  0.00    -0.394 OA
ATOM     14  H1  UNL     1     -37.556  24.424 -24.400  1.00  0.00     0.210 HD
ENDBRANCH  10  13
ENDBRANCH   9  10
ENDBRANCH   1   9
BRANCH   8  15
HETATM   15  C12 UNL     1     -34.612  23.740 -20.726  1.00  0.00     0.136 C
HETATM   16  N2  UNL     1     -33.980  24.756 -21.517  1.00  0.00    -0.083 NA
HETATM   17  N3  UNL     1     -35.127  24.159 -19.654  1.00  0.00    -0.257 N
ATOM     18  H3  UNL     1     -35.013  25.162 -19.510  1.00  0.00     0.195 HD
BRANCH  17  19
HETATM   19  O2  UNL     1     -35.793  23.549 -18.670  1.00  0.00    -0.289 OA
ATOM     20  H2  UNL     1     -35.699  22.697 -18.261  1.00  0.00     0.244 HD
ENDBRANCH  17  19
ENDBRANCH   8  15
TORSDOF 6
ENDMDL