MODEL 1
REMARK VINA RESULT: -6.242976273      0.000      0.000
REMARK  6 active torsions:
REMARK  status: ('A' for Active; 'I' for Inactive)
REMARK    1  A    between atoms: C2_2  and  N2_6
REMARK    2  A    between atoms: C5_9  and  N3_10
REMARK    3  A    between atoms: C5_9  and  C6_14
REMARK    4  A    between atoms: C6_14  and  N4_15
REMARK    5  A    between atoms: N4_15  and  C7_17
REMARK    6  A    between atoms: C7_17  and  C8_18
ROOT
HETATM    1  N2  UNL     1     -32.454  19.578 -22.853  1.00  0.00    -0.369 N
HETATM    2  C3  UNL     1     -33.478  20.413 -22.250  1.00  0.00     0.127 C
HETATM    3  C4  UNL     1     -34.372  20.814 -23.391  1.00  0.00     0.066 C
HETATM    4  C5  UNL     1     -34.266  19.693 -24.356  1.00  0.00     0.172 C
HETATM    5  C12 UNL     1     -32.771  19.332 -24.241  1.00  0.00     0.168 C
ENDROOT
BRANCH   4   6
HETATM    6  N3  UNL     1     -34.977  18.505 -23.919  1.00  0.00    -0.064 N
ATOM      7  H33 UNL     1     -35.315  18.613 -22.963  1.00  0.00     0.275 HD
ATOM      8  H32 UNL     1     -35.871  18.417 -24.402  1.00  0.00     0.275 HD
ATOM      9  H31 UNL     1     -34.423  17.654 -24.017  1.00  0.00     0.275 HD
ENDBRANCH   4   6
BRANCH   4  10
HETATM   10  C6  UNL     1     -34.501  20.023 -25.779  1.00  0.00     0.096 C
BRANCH  10  11
HETATM   11  N4  UNL     1     -33.835  19.283 -26.769  1.00  0.00    -0.394 N
ATOM     12  H4  UNL     1     -32.874  18.972 -26.626  1.00  0.00     0.159 HD
BRANCH  11  13
HETATM   13  C7  UNL     1     -34.522  18.975 -27.970  1.00  0.00     0.183 C
BRANCH  13  14
HETATM   14  C8  UNL     1     -34.996  17.578 -28.045  1.00  0.00     0.070 A
HETATM   15  C9  UNL     1     -35.907  16.918 -27.255  1.00  0.00     0.036 A
HETATM   16  C10 UNL     1     -36.022  15.632 -27.709  1.00  0.00     0.027 A
HETATM   17  C11 UNL     1     -35.149  15.550 -28.795  1.00  0.00     0.142 A
HETATM   18  O1  UNL     1     -34.567  16.720 -28.957  1.00  0.00    -0.325 OA
ENDBRANCH  13  14
ENDBRANCH  11  13
ENDBRANCH  10  11
ENDBRANCH   4  10
BRANCH   1  19
HETATM   19  C2  UNL     1     -31.343  19.119 -22.121  1.00  0.00     0.068 C
HETATM   20  C1  UNL     1     -30.182  18.486 -22.791  1.00  0.00     0.088 C
HETATM   21  N1  UNL     1     -31.304  19.238 -20.846  1.00  0.00    -0.389 N
ATOM     22  H12 UNL     1     -30.499  18.905 -20.315  1.00  0.00     0.157 HD
ATOM     23  H11 UNL     1     -32.102  19.673 -20.384  1.00  0.00     0.157 HD
ENDBRANCH   1  19
TORSDOF 6
ENDMDL