MODEL 2
REMARK VINA RESULT: -4.954483797      1.901      2.302
REMARK  6 active torsions:
REMARK  status: ('A' for Active; 'I' for Inactive)
REMARK    1  A    between atoms: O1_1  and  C1_3
REMARK    2  A    between atoms: C1_3  and  C2_4
REMARK    3  A    between atoms: C2_4  and  C3_5
REMARK    4  A    between atoms: C3_5  and  C4_6
REMARK    5  A    between atoms: C4_6  and  N1_7
REMARK    6  A    between atoms: N1_7  and  C5_10
ROOT
HETATM    1  C5  UNL     1     -34.269  18.475 -25.674  1.00  0.00     0.216 C
HETATM    2  C6  UNL     1     -33.274  17.588 -26.241  1.00  0.00     0.004 C
HETATM    3  C7  UNL     1     -33.234  16.952 -27.391  1.00  0.00    -0.007 C
HETATM    4  C8  UNL     1     -34.213  16.955 -28.490  1.00  0.00     0.109 C
HETATM    5  C9  UNL     1     -35.190  15.800 -28.226  1.00  0.00     0.027 C
HETATM    6  C10 UNL     1     -36.065  16.387 -27.129  1.00  0.00     0.024 C
HETATM    7  C11 UNL     1     -35.998  17.817 -27.393  1.00  0.00     0.095 C
HETATM    8  C12 UNL     1     -35.514  18.756 -26.365  1.00  0.00     0.066 C
HETATM    9  C13 UNL     1     -35.310  19.952 -27.325  1.00  0.00     0.202 C
HETATM   10  O2  UNL     1     -34.497  19.271 -28.270  1.00  0.00    -0.302 OA
HETATM   11  N2  UNL     1     -35.099  18.106 -28.492  1.00  0.00    -0.184 NA
ENDROOT
BRANCH   1  12
HETATM   12  N1  UNL     1     -33.618  19.729 -25.318  1.00  0.00    -0.067 N
ATOM     13  H12 UNL     1     -34.200  20.527 -25.573  1.00  0.00     0.277 HD
ATOM     14  H11 UNL     1     -32.816  19.908 -25.922  1.00  0.00     0.277 HD
BRANCH  12  15
HETATM   15  C4  UNL     1     -33.235  19.794 -23.911  1.00  0.00     0.233 C
BRANCH  15  16
HETATM   16  C3  UNL     1     -34.355  20.596 -23.259  1.00  0.00     0.029 C
BRANCH  16  17
HETATM   17  C2  UNL     1     -34.760  21.803 -24.034  1.00  0.00     0.028 C
BRANCH  17  18
HETATM   18  C1  UNL     1     -35.147  22.996 -23.220  1.00  0.00     0.164 C
BRANCH  18  19
HETATM   19  O1  UNL     1     -35.892  23.833 -24.036  1.00  0.00    -0.401 OA
ATOM     20  H1  UNL     1     -36.168  24.575 -23.509  1.00  0.00     0.209 HD
ENDBRANCH  18  19
ENDBRANCH  17  18
ENDBRANCH  16  17
ENDBRANCH  15  16
ENDBRANCH  12  15
ENDBRANCH   1  12
TORSDOF 6
ENDMDL