MODEL 5
REMARK VINA RESULT: -8.573943055      9.320     12.567
REMARK  9 active torsions:
REMARK  status: ('A' for Active; 'I' for Inactive)
REMARK    1  A    between atoms: C1_2  and  C2_4
REMARK    2  A    between atoms: C2_4  and  C3_5
REMARK       I    between atoms: C3_5  and  N1_7
REMARK    3  A    between atoms: N1_7  and  C4_9
REMARK    4  A    between atoms: C4_9  and  C5_10
REMARK    5  A    between atoms: C5_10  and  C6_11
REMARK    6  A    between atoms: C7_14  and  C8_15
REMARK    7  A    between atoms: C11_18  and  S1_19
REMARK    8  A    between atoms: S1_19  and  C12_20
REMARK    9  A    between atoms: N4_28  and  C15_29
ROOT
HETATM    1  C6  UNL     1      53.254   3.105  69.344  1.00  0.00     0.101 A
HETATM    2  N2  UNL     1      52.811   2.204  70.228  1.00  0.00    -0.329 N
ATOM      3  H2  UNL     1      51.871   1.808  70.237  1.00  0.00     0.168 HD
HETATM    4  C7  UNL     1      53.791   1.894  71.110  1.00  0.00     0.131 A
HETATM    5  N3  UNL     1      54.849   2.628  70.746  1.00  0.00    -0.281 N
ATOM      6  H3  UNL     1      55.755   2.624  71.213  1.00  0.00     0.189 HD
HETATM    7  N4  UNL     1      54.542   3.360  69.688  1.00  0.00    -0.274 N
ENDROOT
BRANCH   1   8
HETATM    8  C5  UNL     1      52.529   3.727  68.207  1.00  0.00     0.098 C
BRANCH   8   9
HETATM    9  C4  UNL     1      51.993   2.706  67.246  1.00  0.00     0.130 C
BRANCH   9  10
HETATM   10  N1  UNL     1      50.574   2.777  67.078  1.00  0.00    -0.360 N
HETATM   11  C3  UNL     1      49.991   3.631  66.110  1.00  0.00     0.237 C
HETATM   12  O3  UNL     1      50.769   4.339  65.391  1.00  0.00    -0.272 OA
ATOM     13  H1  UNL     1      49.972   2.202  67.666  1.00  0.00     0.162 HD
BRANCH  11  14
HETATM   14  C2  UNL     1      48.510   3.718  65.920  1.00  0.00     0.129 C
HETATM   15  C21 UNL     1      47.914   2.389  66.326  1.00  0.00     0.030 C
HETATM   16  C22 UNL     1      46.533   2.202  65.731  1.00  0.00     0.002 C
HETATM   17  C23 UNL     1      46.622   2.063  64.216  1.00  0.00     0.000 C
HETATM   18  C24 UNL     1      47.907   2.707  63.713  1.00  0.00     0.002 C
HETATM   19  C25 UNL     1      48.170   4.006  64.469  1.00  0.00     0.030 C
BRANCH  14  20
HETATM   20  C1  UNL     1      48.014   4.800  66.790  1.00  0.00     0.191 C
HETATM   21  O1  UNL     1      48.589   4.971  67.914  1.00  0.00    -0.647 OA
HETATM   22  O2  UNL     1      46.969   5.641  66.466  1.00  0.00    -0.647 OA
ENDBRANCH  14  20
ENDBRANCH  11  14
ENDBRANCH   9  10
ENDBRANCH   8   9
ENDBRANCH   1   8
BRANCH   7  23
HETATM   23  C15 UNL     1      55.428   4.278  69.006  1.00  0.00     0.109 C
HETATM   24  C16 UNL     1      54.829   5.669  68.976  1.00  0.00     0.027 C
HETATM   25  C17 UNL     1      55.841   6.651  69.495  1.00  0.00     0.002 C
HETATM   26  C18 UNL     1      57.084   6.575  68.648  1.00  0.00     0.000 C
HETATM   27  C19 UNL     1      57.677   5.191  68.801  1.00  0.00     0.002 C
HETATM   28  C20 UNL     1      56.809   4.291  69.647  1.00  0.00     0.027 C
ENDBRANCH   7  23
BRANCH   4  29
HETATM   29  C8  UNL     1      53.675   0.946  72.219  1.00  0.00     0.009 A
HETATM   30  C9  UNL     1      53.725  -0.413  71.963  1.00  0.00     0.016 A
HETATM   31  C10 UNL     1      53.625  -1.356  72.946  1.00  0.00     0.019 A
HETATM   32  C11 UNL     1      53.466  -0.941  74.270  1.00  0.00     0.009 A
HETATM   33  C13 UNL     1      53.416   0.409  74.532  1.00  0.00     0.019 A
HETATM   34  C14 UNL     1      53.521   1.353  73.504  1.00  0.00     0.016 A
BRANCH  32  35
HETATM   35  S1  UNL     1      53.333  -2.174  75.545  1.00  0.00    -0.016 SA
BRANCH  35  36
HETATM   36  C12 UNL     1      52.905  -3.786  74.845  1.00  0.00     0.448 C
HETATM   37  F1  UNL     1      54.019  -4.260  74.151  1.00  0.00    -0.160 F
HETATM   38  F2  UNL     1      51.805  -3.672  74.046  1.00  0.00    -0.160 F
HETATM   39  F3  UNL     1      52.589  -4.651  75.889  1.00  0.00    -0.160 F
ENDBRANCH  35  36
ENDBRANCH  32  35
ENDBRANCH   4  29
TORSDOF 9
ENDMDL