MODEL 5
REMARK VINA RESULT: -7.860623038      1.139      1.362
REMARK  12 active torsions:
REMARK  status: ('A' for Active; 'I' for Inactive)
REMARK    1  A    between atoms: C3_3  and  C4_4
REMARK    2  A    between atoms: C4_4  and  C5_5
REMARK    3  A    between atoms: C7_7  and  O1_8
REMARK    4  A    between atoms: C7_7  and  C8_10
REMARK    5  A    between atoms: C8_10  and  O2_11
REMARK    6  A    between atoms: O2_11  and  C9_12
REMARK    7  A    between atoms: C11_14  and  O3_15
REMARK    8  A    between atoms: O3_15  and  C12_16
REMARK    9  A    between atoms: C12_16  and  C13_17
REMARK   10  A    between atoms: C13_17  and  C14_18
REMARK   11  A    between atoms: C14_18  and  O4_19
REMARK   12  A    between atoms: O4_19  and  C15_20
ROOT
HETATM    1  C1  UNL     1      54.770   1.724  73.760  1.00  0.00     0.112 C
HETATM    2  C2  UNL     1      53.848   0.568  73.686  1.00  0.00    -0.111 C
HETATM    3  C3  UNL     1      53.111  -0.388  73.634  1.00  0.00    -0.103 C
ENDROOT
BRANCH   3   4
HETATM    4  C4  UNL     1      52.229  -1.567  73.583  1.00  0.00     0.130 C
BRANCH   4   5
HETATM    5  C5  UNL     1      53.010  -2.795  73.335  1.00  0.00    -0.042 C
HETATM    6  C6  UNL     1      53.385  -3.025  71.891  1.00  0.00     0.047 C
HETATM    7  C7  UNL     1      53.390  -3.670  74.226  1.00  0.00     0.070 C
BRANCH   7   8
HETATM    8  O1  UNL     1      54.134  -4.778  73.766  1.00  0.00    -0.362 OA
ATOM      9  H1  UNL     1      54.494  -5.362  74.424  1.00  0.00     0.217 HD
ENDBRANCH   7   8
BRANCH   7  10
HETATM   10  C8  UNL     1      53.094  -3.578  75.692  1.00  0.00     0.240 C
BRANCH  10  11
HETATM   11  O2  UNL     1      53.859  -2.532  76.286  1.00  0.00    -0.342 OA
BRANCH  11  12
HETATM   12  C9  UNL     1      53.295  -1.751  77.285  1.00  0.00     0.101 A
HETATM   13  C10 UNL     1      51.953  -1.411  77.317  1.00  0.00     0.076 A
HETATM   14  C11 UNL     1      51.398  -0.637  78.307  1.00  0.00     0.074 A
HETATM   15  C22 UNL     1      52.251  -0.184  79.323  1.00  0.00     0.076 A
HETATM   16  C23 UNL     1      53.587  -0.498  79.333  1.00  0.00     0.101 A
HETATM   17  C24 UNL     1      54.088  -1.280  78.309  1.00  0.00     0.102 A
HETATM   18  O6  UNL     1      54.423  -0.027  80.368  1.00  0.00    -0.340 OA
HETATM   19  N1  UNL     1      55.481  -1.613  78.323  1.00  0.00    -0.321 N
HETATM   20  C25 UNL     1      56.277  -1.126  79.388  1.00  0.00     0.246 C
ATOM     21  H1  UNL     1      55.888  -2.187  77.584  1.00  0.00     0.169 HD
HETATM   22  O5  UNL     1      57.512  -0.984  79.283  1.00  0.00    -0.271 OA
HETATM   23  C26 UNL     1      55.577  -0.789  80.646  1.00  0.00     0.278 C
BRANCH  14  24
HETATM   24  O3  UNL     1      50.084  -0.323  78.301  1.00  0.00    -0.351 OA
BRANCH  24  25
HETATM   25  C12 UNL     1      49.179   0.060  77.363  1.00  0.00     0.178 C
BRANCH  25  26
HETATM   26  C13 UNL     1      47.720  -0.166  77.672  1.00  0.00     0.053 C
BRANCH  26  27
HETATM   27  C14 UNL     1      46.923   1.128  77.492  1.00  0.00     0.178 C
BRANCH  27  28
HETATM   28  O4  UNL     1      46.705   1.734  78.738  1.00  0.00    -0.349 OA
BRANCH  28  29
HETATM   29  C15 UNL     1      47.211   3.017  78.931  1.00  0.00     0.096 A
HETATM   30  C16 UNL     1      48.316   3.216  79.733  1.00  0.00    -0.025 A
HETATM   31  C17 UNL     1      48.965   2.053  80.394  1.00  0.00     0.051 C
HETATM   32  C18 UNL     1      48.855   4.484  79.951  1.00  0.00     0.033 A
HETATM   33  C19 UNL     1      48.280   5.587  79.356  1.00  0.00     0.036 A
HETATM   34 CL1  UNL     1      48.924   7.209  79.602  1.00  0.00    -0.084 Cl
HETATM   35  C20 UNL     1      47.178   5.391  78.555  1.00  0.00     0.050 A
HETATM   36  C21 UNL     1      46.643   4.119  78.339  1.00  0.00     0.069 A
HETATM   37 CL2  UNL     1      45.239   3.889  77.315  1.00  0.00    -0.081 Cl
ENDBRANCH  28  29
ENDBRANCH  27  28
ENDBRANCH  26  27
ENDBRANCH  25  26
ENDBRANCH  24  25
ENDBRANCH  14  24
ENDBRANCH  11  12
ENDBRANCH  10  11
ENDBRANCH   7  10
ENDBRANCH   4   5
ENDBRANCH   3   4
TORSDOF 12
ENDMDL