MODEL 2
REMARK VINA RESULT: -6.886806605     10.628     13.978
REMARK  8 active torsions:
REMARK  status: ('A' for Active; 'I' for Inactive)
REMARK    1  A    between atoms: C2_2  and  C3_3
REMARK    2  A    between atoms: C3_3  and  C4_4
REMARK    3  A    between atoms: C3_3  and  N1_6
REMARK    4  A    between atoms: N1_6  and  C6_8
REMARK    5  A    between atoms: C7_11  and  S1_12
REMARK    6  A    between atoms: C17_27  and  O1_28
REMARK    7  A    between atoms: N4_32  and  C21_33
REMARK    8  A    between atoms: C21_33  and  C22_34
ROOT
HETATM    1  C6  UNL     1      52.353  -1.078  78.135  1.00  0.00     0.120 A
HETATM    2  N2  UNL     1      51.120  -0.661  77.836  1.00  0.00    -0.322 N
ATOM      3  H2  UNL     1      50.693  -0.921  76.947  1.00  0.00     0.169 HD
HETATM    4  C7  UNL     1      50.437   0.112  78.720  1.00  0.00     0.151 A
HETATM    5  N3  UNL     1      50.987   0.460  79.889  1.00  0.00    -0.322 N
ATOM      6  H3  UNL     1      50.457   1.041  80.539  1.00  0.00     0.169 HD
HETATM    7  C15 UNL     1      52.226   0.058  80.222  1.00  0.00     0.127 A
HETATM    8  C16 UNL     1      52.947  -0.722  79.358  1.00  0.00     0.087 A
HETATM    9  C17 UNL     1      54.168  -0.987  79.940  1.00  0.00     0.108 A
HETATM   10  C19 UNL     1      54.192  -0.357  81.182  1.00  0.00     0.044 A
HETATM   11  C20 UNL     1      55.310  -0.359  82.182  1.00  0.00     0.071 C
HETATM   12  N4  UNL     1      53.009   0.264  81.323  1.00  0.00    -0.324 N
ENDROOT
BRANCH   4  13
HETATM   13  S1  UNL     1      48.812   0.651  78.307  1.00  0.00    -0.064 SA
HETATM   14  C8  UNL     1      47.845  -0.618  77.475  1.00  0.00     0.129 A
HETATM   15  C9  UNL     1      46.495  -0.041  77.179  1.00  0.00    -0.005 A
HETATM   16  C10 UNL     1      45.511  -0.777  76.537  1.00  0.00     0.044 A
HETATM   17  C14 UNL     1      46.160   1.258  77.531  1.00  0.00     0.039 A
HETATM   18 CL1  UNL     1      45.890  -2.423  76.073  1.00  0.00    -0.084 Cl
HETATM   19  C11 UNL     1      44.262  -0.262  76.256  1.00  0.00     0.048 A
HETATM   20  C12 UNL     1      43.958   1.041  76.622  1.00  0.00     0.037 A
HETATM   21 CL2  UNL     1      42.377   1.721  76.278  1.00  0.00    -0.084 Cl
HETATM   22  C13 UNL     1      44.918   1.793  77.261  1.00  0.00     0.048 A
HETATM   23 CL3  UNL     1      47.416   2.184  78.346  1.00  0.00    -0.113 Cl
ENDBRANCH   4  13
BRANCH   1  24
HETATM   24  N1  UNL     1      53.014  -1.800  77.331  1.00  0.00    -0.371 N
ATOM     25  H1  UNL     1      53.870  -2.221  77.693  1.00  0.00     0.161 HD
BRANCH  24  26
HETATM   26  C3  UNL     1      52.686  -2.088  75.959  1.00  0.00     0.082 C
BRANCH  26  27
HETATM   27  C2  UNL     1      53.406  -1.101  75.107  1.00  0.00     0.021 C
HETATM   28  C1  UNL     1      52.587  -0.165  74.293  1.00  0.00     0.007 C
ENDBRANCH  26  27
BRANCH  26  29
HETATM   29  C4  UNL     1      52.979  -3.529  75.704  1.00  0.00     0.021 C
HETATM   30  C5  UNL     1      53.346  -3.914  74.316  1.00  0.00     0.007 C
ENDBRANCH  26  29
ENDBRANCH  24  26
ENDBRANCH   1  24
BRANCH  12  31
HETATM   31  C21 UNL     1      52.538   1.059  82.441  1.00  0.00     0.243 C
BRANCH  31  32
HETATM   32  C22 UNL     1      52.909   2.471  82.327  1.00  0.00     0.191 C
HETATM   33  O2  UNL     1      53.836   2.933  83.032  1.00  0.00    -0.647 OA
HETATM   34  O3  UNL     1      52.230   3.288  81.440  1.00  0.00    -0.647 OA
ENDBRANCH  31  32
ENDBRANCH  12  31
BRANCH   9  35
HETATM   35  O1  UNL     1      55.191  -1.742  79.398  1.00  0.00    -0.353 OA
HETATM   36  C18 UNL     1      56.316  -1.226  78.754  1.00  0.00     0.210 C
ENDBRANCH   9  35
TORSDOF 8
ENDMDL