MODEL 1
REMARK VINA RESULT: -9.627142645      0.000      0.000
REMARK  10 active torsions:
REMARK  status: ('A' for Active; 'I' for Inactive)
REMARK    1  A    between atoms: O1_2  and  C2_3
REMARK    2  A    between atoms: C5_6  and  C6_7
REMARK    3  A    between atoms: C6_7  and  O2_8
REMARK    4  A    between atoms: C6_7  and  C7_10
REMARK    5  A    between atoms: C13_19  and  C14_20
REMARK    6  A    between atoms: C16_22  and  C17_23
REMARK    7  A    between atoms: C22_31  and  C23_32
REMARK    8  A    between atoms: C24_35  and  O5_36
REMARK    9  A    between atoms: O5_36  and  C25_37
REMARK   10  A    between atoms: C25_37  and  C26_38
ROOT
HETATM    1  C14 UNL     1      53.436  -1.375  78.404  1.00  0.00     0.038 A
HETATM    2  C15 UNL     1      54.109  -1.662  77.208  1.00  0.00     0.055 A
HETATM    3  C16 UNL     1      53.249  -1.518  76.167  1.00  0.00     0.093 A
HETATM    4  O4  UNL     1      52.090  -1.153  76.717  1.00  0.00    -0.286 OA
HETATM    5  C24 UNL     1      52.171  -1.064  78.008  1.00  0.00     0.197 A
ENDROOT
BRANCH   1   6
HETATM    6  C13 UNL     1      53.937  -1.398  79.763  1.00  0.00     0.013 A
HETATM    7  C2  UNL     1      55.227  -1.036  80.072  1.00  0.00     0.079 A
HETATM    8  C3  UNL     1      55.701  -1.054  81.344  1.00  0.00     0.038 A
HETATM    9  C4  UNL     1      54.872  -1.447  82.370  1.00  0.00     0.012 A
HETATM   10  C5  UNL     1      53.568  -1.822  82.124  1.00  0.00    -0.028 A
HETATM   11  C12 UNL     1      53.110  -1.795  80.824  1.00  0.00     0.025 A
BRANCH   7  12
HETATM   12  O1  UNL     1      56.028  -0.643  78.984  1.00  0.00    -0.355 OA
HETATM   13  C1  UNL     1      57.230  -1.331  78.724  1.00  0.00     0.210 C
ENDBRANCH   7  12
BRANCH  10  14
HETATM   14  C6  UNL     1      52.739  -2.230  83.274  1.00  0.00     0.155 C
BRANCH  14  15
HETATM   15  O2  UNL     1      52.866  -1.240  84.252  1.00  0.00    -0.391 OA
ATOM     16  H2  UNL     1      53.780  -1.212  84.510  1.00  0.00     0.210 HD
ENDBRANCH  14  15
BRANCH  14  17
HETATM   17  C7  UNL     1      53.213  -3.520  83.903  1.00  0.00     0.022 C
HETATM   18  C8  UNL     1      52.219  -3.902  84.973  1.00  0.00     0.035 C
HETATM   19  C9  UNL     1      50.951  -4.479  84.438  1.00  0.00     0.232 C
HETATM   20  N1  UNL     1      51.189  -5.539  83.476  1.00  0.00    -0.075 N
HETATM   21  C10 UNL     1      52.025  -5.086  82.381  1.00  0.00     0.232 C
ATOM     22  H12 UNL     1      51.577  -6.370  83.923  1.00  0.00     0.277 HD
ATOM     23  H11 UNL     1      50.314  -5.938  83.136  1.00  0.00     0.277 HD
HETATM   24  C11 UNL     1      53.345  -4.650  82.936  1.00  0.00     0.035 C
ENDBRANCH  14  17
ENDBRANCH  10  14
ENDBRANCH   1   6
BRANCH   5  25
HETATM   25  O5  UNL     1      51.101  -0.701  78.814  1.00  0.00    -0.329 OA
BRANCH  25  26
HETATM   26  C25 UNL     1      50.468   0.556  78.743  1.00  0.00     0.182 C
BRANCH  26  27
HETATM   27  C26 UNL     1      50.327   1.198  80.105  1.00  0.00     0.010 C
HETATM   28  C27 UNL     1      49.608   2.514  80.056  1.00  0.00     0.007 C
HETATM   29  C28 UNL     1      50.459   3.530  80.755  1.00  0.00     0.000 C
HETATM   30  C29 UNL     1      51.835   2.927  80.898  1.00  0.00     0.000 C
HETATM   31  C30 UNL     1      51.693   1.446  80.658  1.00  0.00     0.007 C
ENDBRANCH  26  27
ENDBRANCH  25  26
ENDBRANCH   5  25
BRANCH   3  32
HETATM   32  C17 UNL     1      53.391  -1.674  74.717  1.00  0.00     0.056 A
HETATM   33  C18 UNL     1      53.516  -0.478  73.974  1.00  0.00     0.169 A
HETATM   34  F1  UNL     1      53.502   0.715  74.655  1.00  0.00    -0.202 F
HETATM   35  C19 UNL     1      53.652  -0.495  72.620  1.00  0.00     0.158 A
HETATM   36  F2  UNL     1      53.771   0.682  71.919  1.00  0.00    -0.203 F
HETATM   37  C20 UNL     1      53.672  -1.687  71.925  1.00  0.00     0.088 A
HETATM   38  C21 UNL     1      53.548  -2.835  72.656  1.00  0.00     0.133 A
HETATM   39  F3  UNL     1      53.564  -4.038  72.009  1.00  0.00    -0.205 F
HETATM   40  C22 UNL     1      53.405  -2.859  74.050  1.00  0.00     0.056 A
BRANCH  40  41
HETATM   41  C23 UNL     1      53.146  -4.123  74.698  1.00  0.00     0.274 C
HETATM   42  O3  UNL     1      52.037  -4.270  75.303  1.00  0.00    -0.301 OA
ENDBRANCH  40  41
ENDBRANCH   3  32
TORSDOF 10
ENDMDL