MODEL 3
REMARK VINA RESULT: -7.089066068      3.407      7.025
REMARK  11 active torsions:
REMARK  status: ('A' for Active; 'I' for Inactive)
REMARK    1  A    between atoms: C2_2  and  C3_3
REMARK    2  A    between atoms: C3_3  and  O1_4
REMARK    3  A    between atoms: O1_4  and  C4_5
REMARK    4  A    between atoms: C9_12  and  C10_13
REMARK    5  A    between atoms: C10_13  and  O2_14
REMARK    6  A    between atoms: O2_14  and  C11_15
REMARK    7  A    between atoms: C12_16  and  O3_17
REMARK    8  A    between atoms: O3_17  and  C13_18
REMARK    9  A    between atoms: C20_26  and  N1_27
REMARK   10  A    between atoms: C22_31  and  O4_32
REMARK   11  A    between atoms: C22_31  and  O5_34
ROOT
HETATM    1  C11 UNL     1      52.186  -0.920  82.132  1.00  0.00     0.137 A
HETATM    2  C12 UNL     1      53.512  -1.057  82.248  1.00  0.00     0.127 A
HETATM    3  C17 UNL     1      54.164  -0.344  83.226  1.00  0.00     0.071 A
HETATM    4 CL3  UNL     1      55.899  -0.694  83.489  1.00  0.00    -0.081 Cl
HETATM    5  C18 UNL     1      53.521   0.483  84.057  1.00  0.00     0.043 A
HETATM    6  C19 UNL     1      52.122   0.601  83.884  1.00  0.00     0.022 A
HETATM    7  C20 UNL     1      51.517   1.617  84.625  1.00  0.00     0.055 A
HETATM    8  C21 UNL     1      50.175   1.944  84.401  1.00  0.00     0.064 A
HETATM    9  C22 UNL     1      49.853   3.196  85.031  1.00  0.00     0.192 C
HETATM   10  C24 UNL     1      49.465   1.239  83.484  1.00  0.00     0.107 A
HETATM   11  N2  UNL     1      50.137   0.223  82.748  1.00  0.00    -0.362 N
ATOM     12  H2  UNL     1      49.616  -0.293  82.039  1.00  0.00     0.165 HD
HETATM   13  C25 UNL     1      51.407  -0.078  82.946  1.00  0.00     0.082 A
ENDROOT
BRANCH   1  14
HETATM   14  O2  UNL     1      51.552  -1.713  81.045  1.00  0.00    -0.317 OA
BRANCH  14  15
HETATM   15  C10 UNL     1      51.310  -1.029  79.957  1.00  0.00     0.157 C
BRANCH  15  16
HETATM   16  C9  UNL     1      51.309  -0.710  78.584  1.00  0.00     0.023 A
HETATM   17  C4  UNL     1      50.014   0.028  78.446  1.00  0.00     0.102 A
HETATM   18  C5  UNL     1      49.363   0.151  77.270  1.00  0.00     0.070 A
HETATM   19 CL1  UNL     1      47.724   0.821  77.262  1.00  0.00    -0.081 Cl
HETATM   20  C6  UNL     1      49.948  -0.447  76.169  1.00  0.00     0.050 A
HETATM   21  C7  UNL     1      51.144  -1.087  76.247  1.00  0.00     0.036 A
HETATM   22 CL2  UNL     1      51.889  -1.659  74.767  1.00  0.00    -0.084 Cl
HETATM   23  C8  UNL     1      51.830  -1.213  77.461  1.00  0.00     0.040 A
BRANCH  17  24
HETATM   24  O1  UNL     1      49.677   0.545  79.666  1.00  0.00    -0.348 OA
BRANCH  24  25
HETATM   25  C3  UNL     1      49.440   1.965  79.674  1.00  0.00     0.175 C
BRANCH  25  26
HETATM   26  C2  UNL     1      50.308   2.914  80.390  1.00  0.00     0.022 C
HETATM   27  C1  UNL     1      51.712   2.585  80.621  1.00  0.00     0.007 C
ENDBRANCH  25  26
ENDBRANCH  24  25
ENDBRANCH  17  24
ENDBRANCH  15  16
ENDBRANCH  14  15
ENDBRANCH   1  14
BRANCH   2  28
HETATM   28  O3  UNL     1      54.300  -1.835  81.426  1.00  0.00    -0.341 OA
BRANCH  28  29
HETATM   29  C13 UNL     1      54.917  -1.560  80.267  1.00  0.00     0.133 A
HETATM   30  C14 UNL     1      54.972  -0.267  79.527  1.00  0.00     0.039 A
HETATM   31  C15 UNL     1      56.255  -0.972  79.973  1.00  0.00     0.013 A
HETATM   32  C16 UNL     1      57.018  -1.591  78.790  1.00  0.00     0.012 C
ENDBRANCH  28  29
ENDBRANCH   2  28
BRANCH   7  33
HETATM   33  N1  UNL     1      52.311   2.247  85.389  1.00  0.00    -0.398 N
ATOM     34  H12 UNL     1      52.152   3.181  85.767  1.00  0.00     0.156 HD
ATOM     35  H11 UNL     1      53.205   1.782  85.538  1.00  0.00     0.156 HD
ENDBRANCH   7  33
BRANCH   9  36
HETATM   36  O4  UNL     1      50.230   4.239  84.300  1.00  0.00    -0.340 OA
ATOM     37  H4  UNL     1      49.924   5.063  84.663  1.00  0.00     0.220 HD
ENDBRANCH   9  36
BRANCH   9  38
HETATM   38  O5  UNL     1      49.290   3.501  86.213  1.00  0.00    -0.335 OA
HETATM   39  C23 UNL     1      48.580   2.403  86.905  1.00  0.00     0.212 C
ENDBRANCH   9  38
TORSDOF 11
ENDMDL