MODEL 5
REMARK VINA RESULT: -8.817461659      2.677      7.866
REMARK  11 active torsions:
REMARK  status: ('A' for Active; 'I' for Inactive)
REMARK    1  A    between atoms: O1_2  and  C2_3
REMARK    2  A    between atoms: C4_7  and  C5_8
REMARK    3  A    between atoms: C11_14  and  C12_15
REMARK    4  A    between atoms: C12_15  and  O2_16
REMARK    5  A    between atoms: C12_15  and  C13_18
REMARK    6  A    between atoms: C13_18  and  C14_19
REMARK    7  A    between atoms: C22_28  and  N3_29
REMARK    8  A    between atoms: N3_29  and  C23_31
REMARK    9  A    between atoms: C23_31  and  C24_32
REMARK   10  A    between atoms: C24_32  and  N4_33
REMARK   11  A    between atoms: C29_38  and  C30_39
ROOT
HETATM    1  C2  UNL     1      47.636   2.594  66.185  1.00  0.00     0.169 A
HETATM    2  N1  UNL     1      48.635   2.848  65.323  1.00  0.00    -0.344 N
ATOM      3  H1  UNL     1      48.451   2.792  64.321  1.00  0.00     0.167 HD
HETATM    4  C3  UNL     1      49.861   3.170  65.739  1.00  0.00     0.102 A
HETATM    5  C4  UNL     1      50.140   3.255  67.085  1.00  0.00    -0.008 A
HETATM    6  C21 UNL     1      49.100   2.993  67.968  1.00  0.00     0.047 A
HETATM    7  C22 UNL     1      47.829   2.658  67.548  1.00  0.00     0.080 A
ENDROOT
BRANCH   5   8
HETATM    8  C5  UNL     1      51.476   3.614  67.583  1.00  0.00    -0.024 A
HETATM    9  C6  UNL     1      52.274   4.563  67.021  1.00  0.00     0.014 A
HETATM   10  C7  UNL     1      53.538   4.863  67.529  1.00  0.00     0.031 A
HETATM   11  C8  UNL     1      53.953   4.156  68.633  1.00  0.00     0.044 A
HETATM   12  C9  UNL     1      53.195   3.188  69.245  1.00  0.00     0.002 A
HETATM   13  N2  UNL     1      55.104   4.230  69.322  1.00  0.00    -0.360 N
HETATM   14  C10 UNL     1      51.951   2.934  68.696  1.00  0.00     0.026 A
HETATM   15  C11 UNL     1      53.903   2.664  70.331  1.00  0.00    -0.002 A
HETATM   16  C19 UNL     1      55.085   3.341  70.340  1.00  0.00     0.101 A
HETATM   17  C20 UNL     1      56.200   5.117  69.031  1.00  0.00     0.155 C
BRANCH  15  18
HETATM   18  C12 UNL     1      53.396   1.588  71.193  1.00  0.00     0.154 C
BRANCH  18  19
HETATM   19  O2  UNL     1      53.570   0.330  70.557  1.00  0.00    -0.391 OA
ATOM     20  H2  UNL     1      53.586  -0.364  71.205  1.00  0.00     0.210 HD
ENDBRANCH  18  19
BRANCH  18  21
HETATM   21  C13 UNL     1      53.997   1.580  72.554  1.00  0.00     0.041 C
BRANCH  21  22
HETATM   22  C14 UNL     1      53.689   0.335  73.316  1.00  0.00    -0.012 C
HETATM   23  C15 UNL     1      52.196   0.266  73.653  1.00  0.00     0.005 C
HETATM   24  C16 UNL     1      52.078  -0.626  74.851  1.00  0.00     0.000 C
HETATM   25  C17 UNL     1      53.463  -0.619  75.462  1.00  0.00     0.000 C
HETATM   26  C18 UNL     1      54.260   0.433  74.730  1.00  0.00     0.005 C
ENDBRANCH  21  22
ENDBRANCH  18  21
ENDBRANCH  15  18
ENDBRANCH   5   8
BRANCH   7  27
HETATM   27  N3  UNL     1      46.761   2.394  68.432  1.00  0.00    -0.382 N
ATOM     28  H3  UNL     1      46.442   3.125  69.068  1.00  0.00     0.160 HD
BRANCH  27  29
HETATM   29  C23 UNL     1      46.118   1.108  68.446  1.00  0.00     0.164 C
BRANCH  29  30
HETATM   30  C24 UNL     1      45.797   0.624  69.853  1.00  0.00     0.078 C
BRANCH  30  31
HETATM   31  N4  UNL     1      45.333  -0.693  69.810  1.00  0.00    -0.382 N
HETATM   32  C25 UNL     1      46.185  -1.661  69.230  1.00  0.00     0.122 C
HETATM   33  C26 UNL     1      46.416  -2.881  70.056  1.00  0.00     0.020 C
HETATM   34  C27 UNL     1      45.095  -3.477  70.442  1.00  0.00     0.004 C
HETATM   35  C28 UNL     1      43.923  -2.584  70.215  1.00  0.00     0.031 C
HETATM   36  C29 UNL     1      44.217  -1.111  70.520  1.00  0.00     0.148 C
BRANCH  36  37
HETATM   37  C30 UNL     1      44.156  -0.941  71.990  1.00  0.00     0.375 C
HETATM   38  F1  UNL     1      43.458   0.169  72.420  1.00  0.00    -0.212 F
HETATM   39  F2  UNL     1      45.361  -1.075  72.652  1.00  0.00    -0.212 F
ENDBRANCH  36  37
ENDBRANCH  30  31
ENDBRANCH  29  30
ENDBRANCH  27  29
ENDBRANCH   7  27
BRANCH   1  40
HETATM   40  O1  UNL     1      46.372   2.261  65.722  1.00  0.00    -0.339 OA
HETATM   41  C1  UNL     1      46.123   2.105  64.328  1.00  0.00     0.211 C
ENDBRANCH   1  40
TORSDOF 11
ENDMDL