MODEL 3
REMARK VINA RESULT: -8.167036883      3.333      5.043
REMARK  10 active torsions:
REMARK  status: ('A' for Active; 'I' for Inactive)
REMARK    1  A    between atoms: O1_1  and  C1_3
REMARK    2  A    between atoms: C1_3  and  N1_4
REMARK    3  A    between atoms: C1_3  and  C15_23
REMARK    4  A    between atoms: N1_4  and  C2_6
REMARK    5  A    between atoms: C2_6  and  C3_7
REMARK    6  A    between atoms: C2_6  and  C9_15
REMARK    7  A    between atoms: C3_7  and  C4_8
REMARK    8  A    between atoms: C4_8  and  N2_9
REMARK    9  A    between atoms: C20_28  and  O2_29
REMARK   10  A    between atoms: O2_29  and  C21_30
ROOT
HETATM    1  N1  UNL     1      53.360  -1.426  79.815  1.00  0.00    -0.385 N
ATOM      2  H1  UNL     1      52.752  -0.710  80.213  1.00  0.00     0.156 HD
ENDROOT
BRANCH   1   3
HETATM    3  C1  UNL     1      53.436  -1.522  78.424  1.00  0.00     0.251 C
BRANCH   3   4
HETATM    4  O1  UNL     1      54.438  -0.599  77.980  1.00  0.00    -0.373 OA
ATOM      5  H1  UNL     1      54.154  -0.246  77.146  1.00  0.00     0.212 HD
ENDBRANCH   3   4
BRANCH   3   6
HETATM    6  C15 UNL     1      52.152  -1.132  77.745  1.00  0.00     0.023 A
HETATM    7  C16 UNL     1      51.064  -0.768  78.481  1.00  0.00     0.014 A
HETATM    8  C17 UNL     1      49.856  -0.387  77.952  1.00  0.00     0.001 A
HETATM    9  C18 UNL     1      49.762  -0.381  76.577  1.00  0.00     0.003 A
HETATM   10  C19 UNL     1      50.839  -0.743  75.809  1.00  0.00     0.038 A
HETATM   11  C20 UNL     1      52.052  -1.124  76.354  1.00  0.00     0.086 A
BRANCH  11  12
HETATM   12  O2  UNL     1      53.156  -1.492  75.644  1.00  0.00    -0.308 OA
BRANCH  12  13
HETATM   13  C21 UNL     1      53.249  -1.816  74.314  1.00  0.00     0.097 A
HETATM   14  C22 UNL     1      52.879  -3.090  73.866  1.00  0.00     0.039 A
HETATM   15  C23 UNL     1      52.995  -3.354  72.528  1.00  0.00     0.003 A
HETATM   16  C24 UNL     1      53.455  -2.430  71.625  1.00  0.00     0.002 A
HETATM   17  C25 UNL     1      53.818  -1.184  72.065  1.00  0.00     0.026 A
HETATM   18  C26 UNL     1      53.711  -0.879  73.429  1.00  0.00     0.067 A
HETATM   19 CL3  UNL     1      54.238   0.742  73.933  1.00  0.00    -0.081 Cl
ENDBRANCH  12  13
ENDBRANCH  11  12
ENDBRANCH   3   6
ENDBRANCH   1   3
BRANCH   1  20
HETATM   20  C2  UNL     1      54.061  -2.243  80.690  1.00  0.00     0.114 C
BRANCH  20  21
HETATM   21  C3  UNL     1      55.104  -1.743  81.597  1.00  0.00     0.060 C
BRANCH  21  22
HETATM   22  C4  UNL     1      55.511  -0.336  81.604  1.00  0.00     0.275 C
BRANCH  22  23
HETATM   23  N2  UNL     1      55.226   0.336  82.902  1.00  0.00     0.090 N
HETATM   24  C5  UNL     1      55.061  -0.824  83.820  1.00  0.00     0.282 C
HETATM   25  C6  UNL     1      55.368  -0.252  85.203  1.00  0.00     0.104 C
HETATM   26  S1  UNL     1      54.081   0.960  85.546  1.00  0.00    -0.166 SA
HETATM   27  C7  UNL     1      53.512   1.710  84.020  1.00  0.00     0.104 C
HETATM   28  C8  UNL     1      53.910   0.954  82.776  1.00  0.00     0.282 C
ENDBRANCH  22  23
ENDBRANCH  21  22
ENDBRANCH  20  21
BRANCH  20  29
HETATM   29  C9  UNL     1      53.050  -2.960  81.575  1.00  0.00    -0.034 A
HETATM   30  C10 UNL     1      53.227  -4.304  81.811  1.00  0.00     0.011 A
HETATM   31  C11 UNL     1      52.331  -5.017  82.610  1.00  0.00     0.026 A
HETATM   32  C12 UNL     1      51.271  -4.353  83.156  1.00  0.00     0.055 A
HETATM   33 CL1  UNL     1      50.092  -5.159  84.174  1.00  0.00    -0.083 Cl
HETATM   34  C13 UNL     1      51.090  -3.017  82.926  1.00  0.00     0.056 A
HETATM   35 CL2  UNL     1      49.753  -2.150  83.605  1.00  0.00    -0.083 Cl
HETATM   36  C14 UNL     1      51.976  -2.308  82.133  1.00  0.00     0.034 A
ENDBRANCH  20  29
ENDBRANCH   1  20
TORSDOF 10
ENDMDL