MODEL 2
REMARK VINA RESULT: -9.418658296      1.261      2.301
REMARK  13 active torsions:
REMARK  status: ('A' for Active; 'I' for Inactive)
REMARK    1  A    between atoms: C5_5  and  C6_6
REMARK    2  A    between atoms: C8_9  and  O2_10
REMARK    3  A    between atoms: C14_17  and  C15_18
REMARK    4  A    between atoms: C16_19  and  C17_20
REMARK    5  A    between atoms: C17_20  and  C18_21
REMARK    6  A    between atoms: C18_21  and  C19_22
REMARK    7  A    between atoms: C21_24  and  C22_25
REMARK    8  A    between atoms: C22_25  and  O4_27
REMARK    9  A    between atoms: O4_27  and  C23_28
REMARK   10  A    between atoms: C23_28  and  C24_29
REMARK   11  A    between atoms: C24_29  and  C25_30
REMARK   12  A    between atoms: C25_30  and  C26_31
REMARK   13  A    between atoms: C26_31  and  C27_32
ROOT
HETATM    1  C18 UNL     1      51.579  -0.657  75.055  1.00  0.00     0.017 C
ENDROOT
BRANCH   1   2
HETATM    2  C17 UNL     1      51.742  -1.027  76.253  1.00  0.00     0.001 C
BRANCH   2   3
HETATM    3  C16 UNL     1      52.799  -1.808  76.837  1.00  0.00    -0.004 C
HETATM    4  C15 UNL     1      53.235  -1.695  78.097  1.00  0.00    -0.021 C
BRANCH   4   5
HETATM    5  C14 UNL     1      52.717  -0.769  79.083  1.00  0.00     0.016 C
HETATM    6  C2  UNL     1      53.885  -0.259  79.903  1.00  0.00    -0.033 C
HETATM    7  C1  UNL     1      55.171  -0.392  79.098  1.00  0.00     0.016 C
HETATM    8  C3  UNL     1      53.667   1.197  80.253  1.00  0.00     0.011 C
HETATM    9  C10 UNL     1      54.075  -0.949  81.208  1.00  0.00     0.003 C
HETATM   10  C4  UNL     1      53.614   1.298  81.746  1.00  0.00     0.010 C
HETATM   11  C5  UNL     1      53.432  -0.096  82.282  1.00  0.00     0.025 C
HETATM   12  C11 UNL     1      53.584  -2.357  81.252  1.00  0.00     0.006 C
HETATM   13  C12 UNL     1      52.169  -2.529  80.807  1.00  0.00     0.001 C
HETATM   14  C13 UNL     1      51.651  -1.417  79.960  1.00  0.00     0.009 C
BRANCH  11  15
HETATM   15  C6  UNL     1      54.216  -0.323  83.542  1.00  0.00    -0.026 A
HETATM   16  C7  UNL     1      53.729  -0.570  84.790  1.00  0.00     0.152 A
HETATM   17  O1  UNL     1      54.747  -0.710  85.626  1.00  0.00    -0.300 OA
HETATM   18  C8  UNL     1      55.868  -0.565  84.976  1.00  0.00     0.183 A
HETATM   19  C9  UNL     1      55.597  -0.317  83.649  1.00  0.00     0.073 A
BRANCH  18  20
HETATM   20  O2  UNL     1      57.140  -0.648  85.531  1.00  0.00    -0.341 OA
ATOM     21  H2  UNL     1      57.786   0.048  85.534  1.00  0.00     0.220 HD
ENDBRANCH  18  20
ENDBRANCH  11  15
ENDBRANCH   4   5
ENDBRANCH   2   3
ENDBRANCH   1   2
BRANCH   1  22
HETATM   22  C19 UNL     1      52.333  -0.738  73.845  1.00  0.00     0.036 A
HETATM   23  C20 UNL     1      52.699   0.480  73.202  1.00  0.00     0.054 A
HETATM   24  C21 UNL     1      53.317   0.542  71.992  1.00  0.00     0.124 A
HETATM   25  N1  UNL     1      53.587  -0.620  71.389  1.00  0.00    -0.292 N
HETATM   26  N2  UNL     1      53.267  -1.776  71.942  1.00  0.00    -0.265 N
ATOM     27  H1  UNL     1      54.051  -0.614  70.482  1.00  0.00     0.187 HD
HETATM   28  C28 UNL     1      52.643  -1.873  73.160  1.00  0.00     0.270 A
ATOM     29  H2  UNL     1      53.494  -2.635  71.441  1.00  0.00     0.190 HD
HETATM   30  O5  UNL     1      52.391  -3.057  73.545  1.00  0.00    -0.266 OA
BRANCH  24  31
HETATM   31  C22 UNL     1      53.693   1.817  71.332  1.00  0.00     0.311 C
HETATM   32  O3  UNL     1      54.476   2.539  71.990  1.00  0.00    -0.258 OA
BRANCH  31  33
HETATM   33  O4  UNL     1      53.281   2.219  70.167  1.00  0.00    -0.316 OA
BRANCH  33  34
HETATM   34  C23 UNL     1      52.336   2.734  69.365  1.00  0.00     0.183 C
BRANCH  34  35
HETATM   35  C24 UNL     1      52.662   3.161  68.002  1.00  0.00     0.054 C
BRANCH  35  36
HETATM   36  C25 UNL     1      53.271   4.449  67.739  1.00  0.00    -0.020 C
BRANCH  36  37
HETATM   37  C26 UNL     1      54.712   4.596  67.698  1.00  0.00     0.084 C
BRANCH  37  38
HETATM   38  C27 UNL     1      55.619   5.124  68.692  1.00  0.00     0.407 C
HETATM   39  F1  UNL     1      56.754   5.671  68.184  1.00  0.00    -0.167 F
HETATM   40  F2  UNL     1      55.123   5.834  69.753  1.00  0.00    -0.167 F
HETATM   41  F3  UNL     1      56.081   3.912  69.414  1.00  0.00    -0.167 F
ENDBRANCH  37  38
ENDBRANCH  36  37
ENDBRANCH  35  36
ENDBRANCH  34  35
ENDBRANCH  33  34
ENDBRANCH  31  33
ENDBRANCH  24  31
ENDBRANCH   1  22
TORSDOF 13
ENDMDL