MODEL 3
REMARK VINA RESULT: -10.009781596      1.204      1.875
REMARK  10 active torsions:
REMARK  status: ('A' for Active; 'I' for Inactive)
REMARK    1  A    between atoms: C2_2  and  C4_4
REMARK    2  A    between atoms: C4_4  and  C5_5
REMARK    3  A    between atoms: C5_5  and  N1_6
REMARK    4  A    between atoms: C5_5  and  C14_16
REMARK    5  A    between atoms: C15_21  and  C16_22
REMARK    6  A    between atoms: C16_22  and  N4_23
REMARK    7  A    between atoms: C19_26  and  O1_27
REMARK    8  A    between atoms: C19_26  and  C20_29
REMARK    9  A    between atoms: C20_29  and  C21_30
REMARK   10  A    between atoms: C26_35  and  C27_36
ROOT
HETATM    1  C14 UNL     1      54.004   3.212  69.627  1.00  0.00     0.163 A
HETATM    2  N2  UNL     1      52.852   2.539  69.431  1.00  0.00    -0.280 N
ATOM      3  H2  UNL     1      52.267   2.589  68.597  1.00  0.00     0.189 HD
HETATM    4  N3  UNL     1      52.609   1.803  70.505  1.00  0.00    -0.280 N
ATOM      5  H3  UNL     1      51.808   1.188  70.645  1.00  0.00     0.189 HD
HETATM    6  C15 UNL     1      53.610   2.013  71.377  1.00  0.00     0.168 A
HETATM    7  O2  UNL     1      54.427   2.871  70.803  1.00  0.00    -0.278 OA
ENDROOT
BRANCH   6   8
HETATM    8  C16 UNL     1      53.839   1.453  72.716  1.00  0.00     0.358 C
BRANCH   8   9
HETATM    9  N4  UNL     1      53.010   0.335  73.060  1.00  0.00     0.096 N
HETATM   10  C17 UNL     1      53.726  -0.923  73.154  1.00  0.00     0.276 C
HETATM   11  C18 UNL     1      53.751  -1.403  74.611  1.00  0.00     0.068 C
HETATM   12  C19 UNL     1      52.391  -1.746  75.086  1.00  0.00     0.065 C
HETATM   13  C28 UNL     1      51.457  -0.588  74.749  1.00  0.00     0.068 C
HETATM   14  C29 UNL     1      52.179   0.600  74.194  1.00  0.00     0.276 C
BRANCH  12  15
HETATM   15  O1  UNL     1      51.945  -2.808  74.256  1.00  0.00    -0.389 OA
ATOM     16  H1  UNL     1      51.634  -2.400  73.457  1.00  0.00     0.210 HD
ENDBRANCH  12  15
BRANCH  12  17
HETATM   17  C20 UNL     1      52.198  -2.157  76.511  1.00  0.00     0.077 C
BRANCH  17  18
HETATM   18  C21 UNL     1      51.663  -1.158  77.435  1.00  0.00    -0.040 A
HETATM   19  C22 UNL     1      50.321  -0.803  77.206  1.00  0.00     0.008 A
HETATM   20  C23 UNL     1      49.684   0.054  78.054  1.00  0.00     0.001 A
HETATM   21  C24 UNL     1      50.299   0.606  79.156  1.00  0.00     0.001 A
HETATM   22  C25 UNL     1      51.606   0.246  79.357  1.00  0.00     0.017 A
HETATM   23  C26 UNL     1      52.310  -0.635  78.506  1.00  0.00     0.054 A
BRANCH  23  24
HETATM   24  C27 UNL     1      53.736  -0.888  78.771  1.00  0.00     0.418 C
HETATM   25  F1  UNL     1      54.565  -0.591  77.694  1.00  0.00    -0.166 F
HETATM   26  F2  UNL     1      54.118   0.193  79.669  1.00  0.00    -0.166 F
HETATM   27  F3  UNL     1      54.079  -1.974  79.493  1.00  0.00    -0.166 F
ENDBRANCH  23  24
ENDBRANCH  17  18
ENDBRANCH  12  17
ENDBRANCH   8   9
ENDBRANCH   6   8
BRANCH   1  28
HETATM   28  C5  UNL     1      54.654   4.185  68.623  1.00  0.00     0.158 C
BRANCH  28  29
HETATM   29  C4  UNL     1      54.953   5.400  69.393  1.00  0.00     0.037 C
BRANCH  29  30
HETATM   30  C2  UNL     1      56.335   5.816  69.666  1.00  0.00    -0.020 C
HETATM   31  C1  UNL     1      56.957   6.640  68.557  1.00  0.00     0.009 C
HETATM   32  C3  UNL     1      57.152   4.479  69.741  1.00  0.00     0.009 C
ENDBRANCH  29  30
ENDBRANCH  28  29
BRANCH  28  33
HETATM   33  N1  UNL     1      53.906   4.187  67.504  1.00  0.00    -0.384 N
HETATM   34  C6  UNL     1      52.749   4.715  67.039  1.00  0.00    -0.014 C
HETATM   35  C7  UNL     1      52.534   6.220  67.025  1.00  0.00     0.053 C
HETATM   36  C12 UNL     1      51.471   3.957  66.985  1.00  0.00     0.027 C
HETATM   37  C8  UNL     1      51.726   6.552  65.807  1.00  0.00     0.010 C
HETATM   38  C9  UNL     1      50.601   5.642  65.480  1.00  0.00    -0.018 C
HETATM   39  C10 UNL     1      50.234   5.925  64.007  1.00  0.00     0.010 C
HETATM   40  C11 UNL     1      50.896   4.177  65.551  1.00  0.00     0.014 C
HETATM   41  C13 UNL     1      50.349   4.454  67.866  1.00  0.00     0.016 C
ATOM     42  H1  UNL     1      54.346   3.614  66.784  1.00  0.00     0.160 HD
ENDBRANCH  28  33
ENDBRANCH   1  28
TORSDOF 10
ENDMDL