MODEL 1
REMARK VINA RESULT: -8.148958156      0.000      0.000
REMARK  9 active torsions:
REMARK  status: ('A' for Active; 'I' for Inactive)
REMARK    1  A    between atoms: O1_2  and  C2_3
REMARK    2  A    between atoms: C3_4  and  C4_5
REMARK    3  A    between atoms: C5_8  and  C6_9
REMARK    4  A    between atoms: C6_9  and  C8_11
REMARK    5  A    between atoms: C11_20  and  C12_21
REMARK    6  A    between atoms: C14_25  and  O4_26
REMARK    7  A    between atoms: O4_26  and  C15_27
REMARK    8  A    between atoms: C15_27  and  C17_29
REMARK    9  A    between atoms: C25_37  and  C26_38
ROOT
HETATM    1  C4  UNL     1      52.022  -0.408  80.956  1.00  0.00     0.074 A
HETATM    2  N1  UNL     1      52.223  -0.928  82.197  1.00  0.00    -0.343 N
ATOM      3  H1  UNL     1      51.931  -0.486  83.069  1.00  0.00     0.167 HD
HETATM    4  C5  UNL     1      52.863  -2.111  82.110  1.00  0.00     0.088 A
HETATM    5  N3  UNL     1      53.065  -2.332  80.802  1.00  0.00    -0.343 N
ATOM      6  H3  UNL     1      53.531  -3.153  80.416  1.00  0.00     0.167 HD
HETATM    7  C11 UNL     1      52.560  -1.302  80.058  1.00  0.00     0.073 A
ENDROOT
BRANCH   7   8
HETATM    8  C12 UNL     1      52.593  -1.164  78.622  1.00  0.00     0.014 A
HETATM    9  C13 UNL     1      51.429  -1.189  77.894  1.00  0.00     0.104 A
HETATM   10  N4  UNL     1      51.468  -1.068  76.544  1.00  0.00    -0.346 N
HETATM   11  C14 UNL     1      52.615  -0.921  75.860  1.00  0.00     0.142 A
ATOM     12  H4  UNL     1      50.590  -1.090  76.026  1.00  0.00     0.167 HD
HETATM   13  C20 UNL     1      53.798  -0.891  76.556  1.00  0.00     0.063 A
HETATM   14  C21 UNL     1      53.785  -1.013  77.956  1.00  0.00    -0.044 A
HETATM   15  C22 UNL     1      55.097  -0.979  78.652  1.00  0.00     0.049 C
BRANCH  11  16
HETATM   16  O4  UNL     1      52.627  -0.798  74.463  1.00  0.00    -0.330 OA
BRANCH  16  17
HETATM   17  C15 UNL     1      53.650  -1.398  73.688  1.00  0.00     0.129 C
HETATM   18  C16 UNL     1      53.911  -0.393  72.548  1.00  0.00     0.040 C
BRANCH  17  19
HETATM   19  C17 UNL     1      53.112  -2.645  73.031  1.00  0.00     0.006 C
HETATM   20  C18 UNL     1      53.408  -2.560  71.553  1.00  0.00     0.012 C
HETATM   21  C19 UNL     1      53.635  -3.893  73.662  1.00  0.00     0.012 C
ENDBRANCH  17  19
ENDBRANCH  16  17
ENDBRANCH  11  16
ENDBRANCH   7   8
BRANCH   1  22
HETATM   22  C3  UNL     1      51.341   0.863  80.736  1.00  0.00     0.029 A
HETATM   23  C2  UNL     1      51.924   2.089  80.975  1.00  0.00     0.120 A
HETATM   24  C27 UNL     1      51.181   3.242  80.736  1.00  0.00     0.162 A
HETATM   25  C25 UNL     1      49.886   3.193  80.269  1.00  0.00     0.047 A
HETATM   26  F3  UNL     1      51.770   4.462  80.977  1.00  0.00    -0.202 F
HETATM   27  C24 UNL     1      49.300   1.974  80.028  1.00  0.00     0.017 A
HETATM   28  C23 UNL     1      50.043   0.851  80.269  1.00  0.00     0.017 A
BRANCH  23  29
HETATM   29  O1  UNL     1      53.236   2.172  81.449  1.00  0.00    -0.352 OA
HETATM   30  C1  UNL     1      53.605   2.331  82.786  1.00  0.00     0.210 C
ENDBRANCH  23  29
BRANCH  25  31
HETATM   31  C26 UNL     1      49.081   4.418  80.008  1.00  0.00     0.389 C
HETATM   32  F1  UNL     1      48.593   4.977  81.154  1.00  0.00    -0.209 F
HETATM   33  F2  UNL     1      48.008   4.076  79.192  1.00  0.00    -0.209 F
ENDBRANCH  25  31
ENDBRANCH   1  22
BRANCH   4  34
HETATM   34  C6  UNL     1      53.261  -2.981  83.249  1.00  0.00     0.080 C
HETATM   35  C7  UNL     1      53.653  -2.157  84.456  1.00  0.00     0.020 C
BRANCH  34  36
HETATM   36  C8  UNL     1      52.172  -3.979  83.587  1.00  0.00     0.162 C
HETATM   37  C9  UNL     1      51.719  -3.766  84.997  1.00  0.00     0.158 C
HETATM   38  N2  UNL     1      50.272  -3.634  84.915  1.00  0.00    -0.334 N
HETATM   39  C10 UNL     1      49.876  -3.678  83.561  1.00  0.00     0.361 C
ATOM     40  H2  UNL     1      49.643  -3.525  85.711  1.00  0.00     0.164 HD
HETATM   41  O2  UNL     1      48.726  -3.643  83.050  1.00  0.00    -0.239 OA
HETATM   42  O3  UNL     1      51.016  -3.777  82.800  1.00  0.00    -0.296 OA
ENDBRANCH  34  36
ENDBRANCH   4  34
TORSDOF 9
ENDMDL