MODEL 1
REMARK VINA RESULT: -11.663498083      0.000      0.000
REMARK  12 active torsions:
REMARK  status: ('A' for Active; 'I' for Inactive)
REMARK    1  A    between atoms: O1_2  and  C2_3
REMARK    2  A    between atoms: C4_5  and  O2_6
REMARK    3  A    between atoms: C8_12  and  O4_13
REMARK    4  A    between atoms: O4_13  and  C9_14
REMARK    5  A    between atoms: C9_14  and  C10_15
REMARK    6  A    between atoms: N3_20  and  C11_21
REMARK    7  A    between atoms: C20_36  and  C21_37
REMARK    8  A    between atoms: C20_36  and  C24_43
REMARK    9  A    between atoms: C21_37  and  O7_38
REMARK   10  A    between atoms: O7_38  and  C22_39
REMARK   11  A    between atoms: C22_39  and  C23_40
REMARK   12  A    between atoms: C26_49  and  O14_50
ROOT
HETATM    1  C11 UNL     1     -11.675   7.504  25.230  1.00  0.00     0.148 C
HETATM    2  C12 UNL     1     -10.390   6.926  25.194  1.00  0.00     0.059 C
HETATM    3  N4  UNL     1      -9.323   7.793  25.761  1.00  0.00    -0.324 N
ATOM      4  H4  UNL     1      -9.283   8.802  25.614  1.00  0.00     0.169 HD
HETATM    5  C13 UNL     1      -8.382   7.090  26.515  1.00  0.00     0.261 C
HETATM    6  O5  UNL     1      -7.830   7.652  27.488  1.00  0.00    -0.270 OA
HETATM    7  C14 UNL     1      -8.085   5.715  26.136  1.00  0.00     0.194 C
HETATM    8  O6  UNL     1      -8.686   5.407  24.922  1.00  0.00    -0.354 OA
HETATM    9  C15 UNL     1     -10.085   5.520  25.264  1.00  0.00     0.176 C
HETATM   10  C16 UNL     1     -10.155   4.670  26.438  1.00  0.00     0.065 C
HETATM   11  C17 UNL     1      -8.846   4.863  27.166  1.00  0.00     0.145 C
HETATM   12  N5  UNL     1      -8.009   3.702  27.219  1.00  0.00    -0.138 NA
HETATM   13  N6  UNL     1      -6.740   4.244  27.317  1.00  0.00    -0.123 NA
HETATM   14  C18 UNL     1      -6.706   5.241  26.277  1.00  0.00     0.179 C
HETATM   15  C19 UNL     1      -6.247   4.559  24.969  1.00  0.00     0.095 C
HETATM   16  C20 UNL     1      -5.074   5.345  24.474  1.00  0.00     0.182 C
HETATM   17  O12 UNL     1      -5.141   6.564  25.249  1.00  0.00    -0.295 OA
HETATM   18  C25 UNL     1      -5.628   6.229  26.515  1.00  0.00     0.290 C
HETATM   19  O13 UNL     1      -5.251   6.653  27.614  1.00  0.00    -0.263 OA
ENDROOT
BRANCH   1  20
HETATM   20  N3  UNL     1     -12.439   7.984  26.317  1.00  0.00    -0.227 N
HETATM   21  N2  UNL     1     -11.982   8.674  27.395  1.00  0.00    -0.234 N
HETATM   22  N1  UNL     1     -12.980   9.034  28.171  1.00  0.00    -0.283 N
ATOM     23  H2  UNL     1     -11.000   8.883  27.576  1.00  0.00     0.209 HD
HETATM   24  C10 UNL     1     -14.123   8.599  27.633  1.00  0.00     0.103 A
ATOM     25  H1  UNL     1     -12.896   9.560  29.041  1.00  0.00     0.188 HD
HETATM   26  C26 UNL     1     -13.775   7.921  26.455  1.00  0.00     0.189 A
BRANCH  24  27
HETATM   27  C9  UNL     1     -15.496   8.697  28.195  1.00  0.00     0.234 C
BRANCH  27  28
HETATM   28  O4  UNL     1     -15.564   9.660  29.221  1.00  0.00    -0.347 OA
BRANCH  28  29
HETATM   29  C8  UNL     1     -16.312  10.756  28.921  1.00  0.00     0.342 A
HETATM   30  O3  UNL     1     -15.947  11.852  29.720  1.00  0.00    -0.312 OA
HETATM   31  C6  UNL     1     -17.016  12.284  30.529  1.00  0.00     0.092 A
HETATM   32  C5  UNL     1     -18.125  11.468  30.284  1.00  0.00     0.082 A
HETATM   33  C7  UNL     1     -17.152  13.289  31.456  1.00  0.00     0.074 A
HETATM   34  C4  UNL     1     -19.288  11.737  31.011  1.00  0.00     0.085 A
HETATM   35  C27 UNL     1     -17.742  10.544  29.236  1.00  0.00     0.220 A
HETATM   36  C3  UNL     1     -19.420  12.736  31.940  1.00  0.00     0.074 A
HETATM   37  C2  UNL     1     -18.317  13.528  32.157  1.00  0.00     0.073 A
HETATM   38  O15 UNL     1     -18.530   9.705  28.693  1.00  0.00    -0.287 OA
BRANCH  34  39
HETATM   39  O2  UNL     1     -20.422  10.914  30.790  1.00  0.00    -0.360 OA
ATOM     40  H2  UNL     1     -20.362  10.013  31.085  1.00  0.00     0.217 HD
ENDBRANCH  34  39
BRANCH  37  41
HETATM   41  O1  UNL     1     -18.331  14.587  33.074  1.00  0.00    -0.356 OA
HETATM   42  C1  UNL     1     -17.116  15.034  33.601  1.00  0.00     0.210 C
ENDBRANCH  37  41
ENDBRANCH  28  29
ENDBRANCH  27  28
ENDBRANCH  24  27
BRANCH  26  43
HETATM   43  O14 UNL     1     -14.763   7.359  25.685  1.00  0.00    -0.343 OA
ATOM     44  H14 UNL     1     -15.379   7.923  25.233  1.00  0.00     0.219 HD
ENDBRANCH  26  43
ENDBRANCH   1  20
BRANCH  16  45
HETATM   45  C21 UNL     1      -5.081   5.648  23.033  1.00  0.00     0.218 C
BRANCH  45  46
HETATM   46  O7  UNL     1      -5.041   7.012  22.690  1.00  0.00    -0.377 OA
BRANCH  46  47
HETATM   47  C22 UNL     1      -6.233   7.274  22.000  1.00  0.00     0.280 C
BRANCH  47  48
HETATM   48  C23 UNL     1      -7.313   7.869  22.771  1.00  0.00     0.197 C
HETATM   49  O8  UNL     1      -8.515   7.747  22.555  1.00  0.00    -0.646 OA
HETATM   50  O9  UNL     1      -6.921   8.666  23.884  1.00  0.00    -0.646 OA
ENDBRANCH  47  48
ENDBRANCH  46  47
ENDBRANCH  45  46
ENDBRANCH  16  45
BRANCH  16  51
HETATM   51  C24 UNL     1      -3.835   4.581  24.763  1.00  0.00     0.212 C
HETATM   52  O10 UNL     1      -2.782   5.065  24.286  1.00  0.00    -0.646 OA
HETATM   53  O11 UNL     1      -3.777   3.428  25.485  1.00  0.00    -0.646 OA
ENDBRANCH  16  51
TORSDOF 12
ENDMDL