MODEL 1
REMARK VINA RESULT: -8.035065703      0.000      0.000
REMARK  20 active torsions:
REMARK  status: ('A' for Active; 'I' for Inactive)
REMARK    1  A    between atoms: O1_2  and  C2_3
REMARK    2  A    between atoms: C2_3  and  C3_5
REMARK    3  A    between atoms: C5_8  and  C6_9
REMARK    4  A    between atoms: C6_9  and  O4_10
REMARK    5  A    between atoms: C6_9  and  C9_14
REMARK    6  A    between atoms: O4_10  and  C7_11
REMARK    7  A    between atoms: C13_18  and  C14_19
REMARK    8  A    between atoms: C14_19  and  C15_21
REMARK    9  A    between atoms: C16_24  and  O9_25
REMARK   10  A    between atoms: C18_28  and  O10_29
REMARK   11  A    between atoms: O10_29  and  C19_30
REMARK   12  A    between atoms: C19_30  and  C20_32
REMARK   13  A    between atoms: C20_32  and  O12_33
REMARK   14  A    between atoms: C20_32  and  C21_35
REMARK   15  A    between atoms: C21_35  and  O13_36
REMARK   16  A    between atoms: C21_35  and  O14_38
REMARK   17  A    between atoms: C23_40  and  O15_41
REMARK   18  A    between atoms: O15_41  and  C24_42
REMARK   19  A    between atoms: C26_45  and  O17_46
REMARK   20  A    between atoms: C26_45  and  C27_48
ROOT
HETATM    1  C9  UNL     1      -6.481   5.808  24.713  1.00  0.00     0.055 C
HETATM    2  C10 UNL     1      -5.697   6.551  23.653  1.00  0.00     0.008 C
HETATM    3  C11 UNL     1      -5.198   5.669  22.569  1.00  0.00     0.042 C
HETATM    4  C12 UNL     1      -5.665   6.214  21.263  1.00  0.00    -0.047 C
HETATM    5  C13 UNL     1      -5.192   5.815  20.126  1.00  0.00     0.067 C
HETATM    6  C16 UNL     1      -6.691   7.220  21.539  1.00  0.00     0.154 C
HETATM    7  C17 UNL     1      -6.660   7.533  23.028  1.00  0.00     0.056 C
HETATM    8  C18 UNL     1      -7.967   7.319  23.713  1.00  0.00     0.169 C
HETATM    9  C23 UNL     1      -7.535   6.772  25.088  1.00  0.00     0.169 C
ENDROOT
BRANCH   1  10
HETATM   10  C6  UNL     1      -5.618   5.314  25.834  1.00  0.00     0.172 C
BRANCH  10  11
HETATM   11  C5  UNL     1      -6.364   4.812  27.005  1.00  0.00     0.208 C
HETATM   12  O3  UNL     1      -7.786   4.881  26.887  1.00  0.00    -0.350 OA
HETATM   13  C4  UNL     1      -8.235   4.077  27.949  1.00  0.00     0.152 C
HETATM   14  C3  UNL     1      -7.364   3.135  28.195  1.00  0.00     0.086 C
HETATM   15  C26 UNL     1      -6.251   3.316  27.222  1.00  0.00     0.210 C
BRANCH  14  16
HETATM   16  C2  UNL     1      -7.424   2.098  29.196  1.00  0.00     0.294 C
HETATM   17  O2  UNL     1      -8.285   1.161  29.165  1.00  0.00    -0.259 OA
BRANCH  16  18
HETATM   18  O1  UNL     1      -6.533   2.063  30.262  1.00  0.00    -0.323 OA
HETATM   19  C1  UNL     1      -6.921   1.504  31.503  1.00  0.00     0.213 C
ENDBRANCH  16  18
ENDBRANCH  14  16
BRANCH  15  20
HETATM   20  O17 UNL     1      -5.046   2.913  27.739  1.00  0.00    -0.372 OA
ATOM     21  H17 UNL     1      -4.623   2.263  27.192  1.00  0.00     0.211 HD
ENDBRANCH  15  20
BRANCH  15  22
HETATM   22  C27 UNL     1      -6.676   2.532  26.029  1.00  0.00     0.217 C
HETATM   23  O18 UNL     1      -5.814   2.227  25.187  1.00  0.00    -0.645 OA
HETATM   24  O19 UNL     1      -7.990   2.164  25.873  1.00  0.00    -0.645 OA
ENDBRANCH  15  22
ENDBRANCH  10  11
BRANCH  10  25
HETATM   25  O4  UNL     1      -4.740   6.335  26.266  1.00  0.00    -0.313 OA
BRANCH  25  26
HETATM   26  C7  UNL     1      -3.863   6.266  27.309  1.00  0.00     0.255 C
HETATM   27  C8  UNL     1      -3.643   7.378  28.281  1.00  0.00     0.126 C
HETATM   28  O5  UNL     1      -3.201   5.228  27.478  1.00  0.00    -0.266 OA
ENDBRANCH  25  26
ENDBRANCH  10  25
ENDBRANCH   1  10
BRANCH   9  29
HETATM   29  O15 UNL     1      -7.056   7.863  25.816  1.00  0.00    -0.313 OA
BRANCH  29  30
HETATM   30  C24 UNL     1      -7.557   8.229  27.051  1.00  0.00     0.255 C
HETATM   31  C25 UNL     1      -6.723   9.032  27.973  1.00  0.00     0.126 C
HETATM   32  O16 UNL     1      -8.724   7.851  27.331  1.00  0.00    -0.266 OA
ENDBRANCH  29  30
ENDBRANCH   9  29
BRANCH   8  33
HETATM   33  O10 UNL     1      -8.699   8.472  23.971  1.00  0.00    -0.311 OA
BRANCH  33  34
HETATM   34  C19 UNL     1     -10.079   8.477  24.136  1.00  0.00     0.293 C
HETATM   35  O11 UNL     1     -10.617   9.601  24.096  1.00  0.00    -0.262 OA
BRANCH  34  36
HETATM   36  C20 UNL     1     -10.883   7.270  24.346  1.00  0.00     0.272 C
BRANCH  36  37
HETATM   37  O12 UNL     1     -11.603   7.004  23.185  1.00  0.00    -0.381 OA
ATOM     38  H12 UNL     1     -11.478   6.092  22.950  1.00  0.00     0.210 HD
ENDBRANCH  36  37
BRANCH  36  39
HETATM   39  C21 UNL     1     -11.906   7.570  25.429  1.00  0.00     0.294 C
BRANCH  39  40
HETATM   40  O13 UNL     1     -11.274   8.192  26.502  1.00  0.00    -0.368 OA
ATOM     41  H13 UNL     1     -11.891   8.291  27.217  1.00  0.00     0.212 HD
ENDBRANCH  39  40
BRANCH  39  42
HETATM   42  O14 UNL     1     -12.480   6.377  25.799  1.00  0.00    -0.363 OA
HETATM   43  C22 UNL     1     -11.488   5.547  26.314  1.00  0.00     0.204 C
ENDBRANCH  39  42
ENDBRANCH  36  39
ENDBRANCH  34  36
ENDBRANCH  33  34
ENDBRANCH   8  33
BRANCH   6  44
HETATM   44  O9  UNL     1      -7.929   6.678  21.178  1.00  0.00    -0.391 OA
ATOM     45  H9  UNL     1      -8.547   7.395  21.098  1.00  0.00     0.210 HD
ENDBRANCH   6  44
BRANCH   5  46
HETATM   46  C14 UNL     1      -5.648   6.346  18.860  1.00  0.00     0.248 C
HETATM   47  O6  UNL     1      -5.150   7.357  18.356  1.00  0.00    -0.281 OA
BRANCH  46  48
HETATM   48  C15 UNL     1      -6.743   5.647  18.159  1.00  0.00     0.251 C
HETATM   49  O7  UNL     1      -6.518   4.699  17.382  1.00  0.00    -0.642 OA
HETATM   50  O8  UNL     1      -8.027   6.074  18.386  1.00  0.00    -0.642 OA
ENDBRANCH  46  48
ENDBRANCH   5  46
TORSDOF 20
ENDMDL