MODEL 4
REMARK VINA RESULT: -9.007676485      2.565     10.157
REMARK  15 active torsions:
REMARK  status: ('A' for Active; 'I' for Inactive)
REMARK    1  A    between atoms: C2_3  and  C3_4
REMARK       I    between atoms: C3_4  and  N2_6
REMARK    2  A    between atoms: N2_6  and  C4_8
REMARK    3  A    between atoms: C4_8  and  C5_9
REMARK    4  A    between atoms: C5_9  and  S1_10
REMARK    5  A    between atoms: C6_17  and  O6_18
REMARK    6  A    between atoms: C6_17  and  C7_20
REMARK    7  A    between atoms: C7_20  and  N6_27
REMARK    8  A    between atoms: N4_21  and  O7_23
REMARK    9  A    between atoms: O7_23  and  C8_24
REMARK   10  A    between atoms: N6_27  and  C9_29
REMARK   11  A    between atoms: C11_33  and  C12_34
REMARK   12  A    between atoms: C13_37  and  S2_38
REMARK   13  A    between atoms: S2_38  and  C14_39
REMARK   14  A    between atoms: C14_39  and  C15_40
REMARK   15  A    between atoms: C17_45  and  O15_46
ROOT
HETATM    1  C7  UNL     1      -6.373   4.494  26.671  1.00  0.00     0.187 C
HETATM    2  N4  UNL     1      -5.449   4.832  25.853  1.00  0.00    -0.237 N
ATOM      3  H4  UNL     1      -5.268   5.829  25.736  1.00  0.00     0.196 HD
ENDROOT
BRANCH   1   4
HETATM    4  C6  UNL     1      -6.632   3.019  26.837  1.00  0.00     0.335 C
HETATM    5  N1  UNL     1      -5.923   2.608  28.050  1.00  0.00    -0.302 N
HETATM    6  C1  UNL     1      -4.620   3.076  28.433  1.00  0.00     0.157 C
HETATM    7  C2  UNL     1      -6.783   1.713  28.700  1.00  0.00     0.197 C
HETATM    8  N3  UNL     1      -8.007   1.866  28.199  1.00  0.00    -0.240 N
HETATM    9  O5  UNL     1      -7.985   2.821  27.251  1.00  0.00    -0.209 OA
ATOM     10  H3  UNL     1      -8.832   1.340  28.489  1.00  0.00     0.196 HD
BRANCH   7  11
HETATM   11  C3  UNL     1      -6.465   0.755  29.748  1.00  0.00     0.287 C
HETATM   12  O1  UNL     1      -6.646  -0.489  29.442  1.00  0.00    -0.264 OA
HETATM   13  N2  UNL     1      -5.991   1.040  31.036  1.00  0.00    -0.353 N
ATOM     14  H2  UNL     1      -5.823   2.007  31.312  1.00  0.00     0.162 HD
BRANCH  13  15
HETATM   15  C4  UNL     1      -5.737  -0.032  31.979  1.00  0.00     0.140 C
BRANCH  15  16
HETATM   16  C5  UNL     1      -4.494   0.210  32.770  1.00  0.00     0.184 C
BRANCH  16  17
HETATM   17  S1  UNL     1      -3.107   0.025  31.657  1.00  0.00     0.103 S
HETATM   18  O2  UNL     1      -1.874  -0.366  32.388  1.00  0.00    -0.595 OA
HETATM   19  O3  UNL     1      -2.888   1.360  31.001  1.00  0.00    -0.595 OA
HETATM   20  O4  UNL     1      -3.519  -1.068  30.469  1.00  0.00    -0.595 OA
ENDBRANCH  16  17
ENDBRANCH  15  16
ENDBRANCH  13  15
ENDBRANCH   7  11
BRANCH   4  21
HETATM   21  O6  UNL     1      -6.313   2.279  25.735  1.00  0.00    -0.341 OA
ATOM     22  H6  UNL     1      -5.524   2.569  25.294  1.00  0.00     0.215 HD
ENDBRANCH   4  21
ENDBRANCH   1   4
BRANCH   1  23
HETATM   23  N6  UNL     1      -7.153   5.386  27.414  1.00  0.00    -0.356 N
ATOM     24  H6  UNL     1      -6.918   5.432  28.406  1.00  0.00     0.162 HD
BRANCH  23  25
HETATM   25  C9  UNL     1      -8.210   6.230  27.019  1.00  0.00     0.209 C
HETATM   26  C10 UNL     1      -7.900   7.359  26.081  1.00  0.00     0.251 C
HETATM   27  O9  UNL     1      -6.987   8.074  25.668  1.00  0.00    -0.271 OA
HETATM   28  N7  UNL     1      -9.304   7.304  25.776  1.00  0.00    -0.292 N
HETATM   29  C11 UNL     1     -10.543   7.923  25.477  1.00  0.00     0.129 C
HETATM   30  C19 UNL     1      -9.111   5.863  25.889  1.00  0.00     0.187 C
HETATM   31  C13 UNL     1     -11.714   7.574  26.019  1.00  0.00     0.022 C
HETATM   32  C18 UNL     1     -11.670   6.345  26.984  1.00  0.00     0.124 C
HETATM   33  S3  UNL     1     -10.654   5.033  26.276  1.00  0.00    -0.135 SA
BRANCH  29  34
HETATM   34  C12 UNL     1     -10.509   8.952  24.463  1.00  0.00     0.228 C
HETATM   35  O10 UNL     1     -11.399   9.712  24.087  1.00  0.00    -0.643 OA
HETATM   36  O11 UNL     1      -9.289   9.162  23.768  1.00  0.00    -0.643 OA
ENDBRANCH  29  34
BRANCH  31  37
HETATM   37  S2  UNL     1     -13.272   8.160  25.824  1.00  0.00    -0.124 SA
BRANCH  37  38
HETATM   38  C14 UNL     1     -14.401   9.037  26.702  1.00  0.00     0.149 C
BRANCH  38  39
HETATM   39  C15 UNL     1     -15.630   8.199  27.058  1.00  0.00     0.127 A
HETATM   40  O12 UNL     1     -15.957   7.121  26.420  1.00  0.00    -0.254 OA
HETATM   41  C16 UNL     1     -17.066   6.655  26.991  1.00  0.00     0.418 A
HETATM   42  O13 UNL     1     -17.723   5.622  26.680  1.00  0.00    -0.229 OA
HETATM   43  O14 UNL     1     -17.410   7.453  27.976  1.00  0.00    -0.229 OA
HETATM   44  C17 UNL     1     -16.536   8.431  28.050  1.00  0.00     0.219 A
BRANCH  44  45
HETATM   45  O15 UNL     1     -16.529   9.488  28.950  1.00  0.00    -0.339 OA
ATOM     46  H15 UNL     1     -16.091  10.325  28.841  1.00  0.00     0.220 HD
ENDBRANCH  44  45
ENDBRANCH  38  39
ENDBRANCH  37  38
ENDBRANCH  31  37
ENDBRANCH  23  25
ENDBRANCH   1  23
BRANCH   2  47
HETATM   47  O7  UNL     1      -4.687   3.966  25.127  1.00  0.00    -0.182 OA
BRANCH  47  48
HETATM   48  C8  UNL     1      -3.725   4.550  24.284  1.00  0.00     0.394 C
HETATM   49  N5  UNL     1      -3.950   5.764  23.595  1.00  0.00    -0.031 NA
HETATM   50  O8  UNL     1      -2.597   3.991  24.112  1.00  0.00    -0.240 OA
ENDBRANCH  47  48
ENDBRANCH   2  47
TORSDOF 15
ENDMDL