MODEL 4
REMARK VINA RESULT: -6.352838760      1.575      2.133
REMARK  14 active torsions:
REMARK  status: ('A' for Active; 'I' for Inactive)
REMARK    1  A    between atoms: O1_2  and  C2_3
REMARK    2  A    between atoms: C3_4  and  O2_5
REMARK    3  A    between atoms: C4_7  and  N1_8
REMARK    4  A    between atoms: C9_20  and  S2_21
REMARK    5  A    between atoms: S2_21  and  O5_24
REMARK    6  A    between atoms: C14_30  and  N4_31
REMARK    7  A    between atoms: N4_31  and  C15_33
REMARK    8  A    between atoms: C18_41  and  O8_42
REMARK    9  A    between atoms: O8_42  and  C19_43
REMARK   10  A    between atoms: C19_43  and  C20_44
REMARK   11  A    between atoms: C20_44  and  O9_45
REMARK   12  A    between atoms: C20_44  and  C21_47
REMARK   13  A    between atoms: C21_47  and  N7_48
REMARK   14  A    between atoms: N7_48  and  S3_50
ROOT
HETATM    1  C2  UNL     1      -3.246   8.264  16.932  1.00  0.00     0.192 C
HETATM    2  C3  UNL     1      -3.119   9.770  16.615  1.00  0.00     0.181 C
HETATM    3  C4  UNL     1      -2.225  10.358  17.629  1.00  0.00     0.222 C
HETATM    4  C5  UNL     1      -1.818   9.163  18.492  1.00  0.00     0.071 C
HETATM    5  C6  UNL     1      -0.534   8.729  17.967  1.00  0.00     0.091 C
HETATM    6  S1  UNL     1       0.328   7.449  18.924  1.00  0.00    -0.110 SA
HETATM    7  C7  UNL     1      -0.702   7.206  20.382  1.00  0.00     0.099 A
HETATM    8  N2  UNL     1      -0.265   7.182  21.614  1.00  0.00    -0.291 N
ATOM      9  H2  UNL     1       0.702   7.289  21.918  1.00  0.00     0.188 HD
HETATM   10  N3  UNL     1      -1.282   6.997  22.362  1.00  0.00    -0.283 N
HETATM   11  C8  UNL     1      -1.252   6.904  23.827  1.00  0.00     0.179 C
HETATM   12  C9  UNL     1      -2.480   6.884  21.682  1.00  0.00     0.187 A
HETATM   13  C11 UNL     1      -2.052   7.028  20.350  1.00  0.00     0.084 A
HETATM   14  C12 UNL     1      -2.867   6.988  19.105  1.00  0.00     0.236 C
HETATM   15  O6  UNL     1      -2.088   6.246  18.151  1.00  0.00    -0.344 OA
HETATM   16  C13 UNL     1      -2.135   4.938  18.584  1.00  0.00     0.225 C
HETATM   17  C14 UNL     1      -3.515   4.841  19.189  1.00  0.00     0.251 C
HETATM   18  O7  UNL     1      -3.892   6.154  19.274  1.00  0.00    -0.321 OA
HETATM   19  C18 UNL     1      -3.053   8.294  18.413  1.00  0.00     0.157 C
ENDROOT
BRANCH  19  20
HETATM   20  O8  UNL     1      -4.063   9.108  18.889  1.00  0.00    -0.368 OA
BRANCH  20  21
HETATM   21  C19 UNL     1      -5.300   9.036  18.423  1.00  0.00     0.202 C
BRANCH  21  22
HETATM   22  C20 UNL     1      -6.235   8.099  19.180  1.00  0.00     0.160 C
BRANCH  22  23
HETATM   23  O9  UNL     1      -6.624   8.519  20.408  1.00  0.00    -0.392 OA
ATOM     24  H9  UNL     1      -6.181   8.112  21.144  1.00  0.00     0.210 HD
ENDBRANCH  22  23
BRANCH  22  25
HETATM   25  C21 UNL     1      -7.484   7.826  18.353  1.00  0.00     0.165 C
BRANCH  25  26
HETATM   26  N7  UNL     1      -7.180   7.512  16.996  1.00  0.00    -0.317 N
ATOM     27  H7  UNL     1      -6.270   7.244  16.623  1.00  0.00     0.172 HD
BRANCH  26  28
HETATM   28  S3  UNL     1      -8.668   7.678  16.097  1.00  0.00     0.222 S
HETATM   29  C22 UNL     1      -8.381   7.194  14.401  1.00  0.00     0.185 C
HETATM   30  O10 UNL     1      -9.719   6.759  16.649  1.00  0.00    -0.206 OA
HETATM   31  O11 UNL     1      -9.186   9.075  16.159  1.00  0.00    -0.206 OA
ENDBRANCH  26  28
ENDBRANCH  25  26
ENDBRANCH  22  25
ENDBRANCH  21  22
ENDBRANCH  20  21
ENDBRANCH  19  20
BRANCH  12  32
HETATM   32  S2  UNL     1      -4.187   6.599  22.305  1.00  0.00     0.315 S
HETATM   33  O3  UNL     1      -3.638   6.148  23.900  1.00  0.00    -0.192 OA
HETATM   34  O4  UNL     1      -4.549   8.619  22.134  1.00  0.00    -0.192 OA
BRANCH  32  35
HETATM   35  O5  UNL     1      -5.560   6.789  22.984  1.00  0.00    -0.276 OA
HETATM   36  C10 UNL     1      -6.472   5.782  23.138  1.00  0.00     0.226 C
ENDBRANCH  32  35
ENDBRANCH  12  32
BRANCH  17  37
HETATM   37  N4  UNL     1      -4.438   4.086  18.402  1.00  0.00    -0.334 N
ATOM     38  H4  UNL     1      -4.052   3.437  17.715  1.00  0.00     0.165 HD
BRANCH  37  39
HETATM   39  C15 UNL     1      -5.846   4.173  18.505  1.00  0.00     0.173 C
HETATM   40  N5  UNL     1      -6.675   3.894  17.569  1.00  0.00    -0.361 N
HETATM   41  C16 UNL     1      -8.039   4.084  17.988  1.00  0.00     0.142 C
ATOM     42  H5  UNL     1      -6.402   3.576  16.639  1.00  0.00     0.162 HD
HETATM   43  C17 UNL     1      -7.963   4.333  19.485  1.00  0.00     0.142 C
HETATM   44  N6  UNL     1      -6.549   4.589  19.679  1.00  0.00    -0.361 N
ATOM     45  H6  UNL     1      -6.126   4.997  20.513  1.00  0.00     0.162 HD
ENDBRANCH  37  39
ENDBRANCH  17  37
BRANCH   1  46
HETATM   46  O1  UNL     1      -2.407   7.503  16.186  1.00  0.00    -0.385 OA
HETATM   47  C1  UNL     1      -3.052   6.882  15.150  1.00  0.00     0.202 C
ENDBRANCH   1  46
BRANCH   2  48
HETATM   48  O2  UNL     1      -2.657   9.942  15.310  1.00  0.00    -0.391 OA
ATOM     49  H2  UNL     1      -3.146  10.635  14.883  1.00  0.00     0.210 HD
ENDBRANCH   2  48
BRANCH   3  50
HETATM   50  N1  UNL     1      -2.734  11.428  18.409  1.00  0.00    -0.072 N
ATOM     51  H13 UNL     1      -2.088  11.625  19.174  1.00  0.00     0.274 HD
ATOM     52  H12 UNL     1      -2.669  12.295  17.877  1.00  0.00     0.274 HD
ATOM     53  H11 UNL     1      -3.678  11.331  18.781  1.00  0.00     0.274 HD
ENDBRANCH   3  50
TORSDOF 14
ENDMDL