MODEL 5
REMARK VINA RESULT: -8.771262968      3.023      7.110
REMARK  15 active torsions:
REMARK  status: ('A' for Active; 'I' for Inactive)
REMARK    1  A    between atoms: O1_2  and  C2_3
REMARK    2  A    between atoms: C2_3  and  C3_5
REMARK    3  A    between atoms: C3_5  and  O3_6
REMARK    4  A    between atoms: C3_5  and  C4_8
REMARK    5  A    between atoms: C3_5  and  C21_44
REMARK    6  A    between atoms: C4_8  and  S1_9
REMARK    7  A    between atoms: S1_9  and  C5_10
REMARK    8  A    between atoms: C5_10  and  C6_11
REMARK       I    between atoms: N4_23  and  C12_24
REMARK    9  A    between atoms: C15_30  and  C16_31
REMARK       I    between atoms: C16_31  and  N5_33
REMARK   10  A    between atoms: N5_33  and  C17_35
REMARK   11  A    between atoms: C17_35  and  C19_37
REMARK   12  A    between atoms: C21_44  and  C22_45
REMARK   13  A    between atoms: C21_44  and  O11_48
REMARK   14  A    between atoms: C22_45  and  O10_46
REMARK   15  A    between atoms: O11_48  and  C23_49
ROOT
HETATM    1  C6  UNL     1      -7.103   6.725  22.232  1.00  0.00     0.071 A
HETATM    2  N1  UNL     1      -7.660   7.808  21.620  1.00  0.00    -0.262 N
ATOM      3  H1  UNL     1      -7.553   8.070  20.639  1.00  0.00     0.194 HD
HETATM    4  O4  UNL     1      -8.352   8.442  22.519  1.00  0.00    -0.239 OA
HETATM    5  C7  UNL     1      -8.315   7.896  23.670  1.00  0.00     0.112 A
HETATM    6  C8  UNL     1      -7.464   6.691  23.550  1.00  0.00     0.092 A
HETATM    7  N2  UNL     1      -7.355   5.995  24.760  1.00  0.00    -0.323 N
HETATM    8  C9  UNL     1      -6.534   6.414  25.896  1.00  0.00     0.211 C
HETATM    9  N3  UNL     1      -7.501   7.182  26.743  1.00  0.00    -0.356 N
ATOM     10  H3  UNL     1      -7.290   7.585  27.656  1.00  0.00     0.163 HD
HETATM   11  C10 UNL     1      -8.794   7.270  26.062  1.00  0.00     0.095 C
HETATM   12  C11 UNL     1      -8.937   8.258  24.971  1.00  0.00     0.146 C
HETATM   13  N4  UNL     1      -9.303   5.953  25.875  1.00  0.00    -0.249 N
HETATM   14  C12 UNL     1     -10.549   5.417  26.166  1.00  0.00     0.293 C
HETATM   15  O5  UNL     1     -11.421   6.171  26.680  1.00  0.00    -0.629 OA
HETATM   16  O6  UNL     1     -10.926   4.104  25.934  1.00  0.00    -0.629 OA
HETATM   17  C13 UNL     1      -8.289   4.987  25.253  1.00  0.00     0.266 C
HETATM   18  S2  UNL     1      -7.814   3.930  26.563  1.00  0.00    -0.109 SA
HETATM   19  C14 UNL     1      -6.473   4.545  27.588  1.00  0.00     0.132 C
HETATM   20  C15 UNL     1      -5.483   3.453  27.746  1.00  0.00     0.105 C
HETATM   21  N6  UNL     1      -4.754   3.387  26.664  1.00  0.00    -0.301 N
ATOM     22  H6  UNL     1      -3.996   2.724  26.503  1.00  0.00     0.182 HD
HETATM   23  N7  UNL     1      -5.180   4.382  25.746  1.00  0.00    -0.131 NA
HETATM   24  C20 UNL     1      -5.722   5.431  26.587  1.00  0.00     0.161 C
ENDROOT
BRANCH   1  25
HETATM   25  C5  UNL     1      -6.212   5.690  21.644  1.00  0.00     0.135 C
BRANCH  25  26
HETATM   26  S1  UNL     1      -5.567   6.343  20.102  1.00  0.00    -0.159 SA
BRANCH  26  27
HETATM   27  C4  UNL     1      -3.790   6.488  20.020  1.00  0.00     0.125 C
BRANCH  27  28
HETATM   28  C3  UNL     1      -3.203   7.609  20.829  1.00  0.00     0.182 C
BRANCH  28  29
HETATM   29  C2  UNL     1      -3.988   8.854  20.731  1.00  0.00     0.296 C
HETATM   30  O2  UNL     1      -4.753   9.258  21.669  1.00  0.00    -0.262 OA
BRANCH  29  31
HETATM   31  O1  UNL     1      -3.950   9.672  19.612  1.00  0.00    -0.324 OA
HETATM   32  C1  UNL     1      -5.006   9.683  18.652  1.00  0.00     0.213 C
ENDBRANCH  29  31
ENDBRANCH  28  29
BRANCH  28  33
HETATM   33  O3  UNL     1      -3.301   7.182  22.184  1.00  0.00    -0.376 OA
ATOM     34  H3  UNL     1      -4.228   7.069  22.360  1.00  0.00     0.211 HD
ENDBRANCH  28  33
BRANCH  28  35
HETATM   35  C21 UNL     1      -1.717   7.808  20.620  1.00  0.00     0.200 C
BRANCH  35  36
HETATM   36  C22 UNL     1      -0.837   7.157  21.631  1.00  0.00     0.200 C
BRANCH  36  37
HETATM   37  O10 UNL     1       0.504   7.480  21.562  1.00  0.00    -0.398 OA
ATOM     38  H10 UNL     1       1.010   7.320  22.350  1.00  0.00     0.209 HD
ENDBRANCH  36  37
ENDBRANCH  35  36
BRANCH  35  39
HETATM   39  O11 UNL     1      -1.389   7.370  19.296  1.00  0.00    -0.310 OA
BRANCH  39  40
HETATM   40  C23 UNL     1      -0.591   8.150  18.503  1.00  0.00     0.255 C
HETATM   41  C24 UNL     1      -1.189   9.087  17.522  1.00  0.00     0.126 C
HETATM   42  O12 UNL     1       0.643   8.066  18.611  1.00  0.00    -0.266 OA
ENDBRANCH  39  40
ENDBRANCH  35  39
ENDBRANCH  28  35
ENDBRANCH  27  28
ENDBRANCH  26  27
ENDBRANCH  25  26
ENDBRANCH   1  25
BRANCH  20  43
HETATM   43  C16 UNL     1      -5.359   2.604  28.919  1.00  0.00     0.267 C
HETATM   44  O7  UNL     1      -4.431   2.810  29.738  1.00  0.00    -0.266 OA
HETATM   45  N5  UNL     1      -6.255   1.537  29.185  1.00  0.00    -0.342 N
ATOM     46  H5  UNL     1      -7.018   1.350  28.535  1.00  0.00     0.163 HD
BRANCH  45  47
HETATM   47  C17 UNL     1      -6.107   0.720  30.347  1.00  0.00     0.181 C
HETATM   48  C18 UNL     1      -6.612  -0.687  30.006  1.00  0.00     0.043 C
BRANCH  47  49
HETATM   49  C19 UNL     1      -6.802   1.257  31.533  1.00  0.00     0.196 C
HETATM   50  O8  UNL     1      -8.033   1.482  31.530  1.00  0.00    -0.646 OA
HETATM   51  O9  UNL     1      -6.066   1.521  32.684  1.00  0.00    -0.646 OA
ENDBRANCH  47  49
ENDBRANCH  45  47
ENDBRANCH  20  43
TORSDOF 15
ENDMDL