MODEL 1
REMARK VINA RESULT: -9.816095460      0.000      0.000
REMARK  18 active torsions:
REMARK  status: ('A' for Active; 'I' for Inactive)
REMARK    1  A    between atoms: O1_2  and  C2_3
REMARK    2  A    between atoms: C2_3  and  C3_5
REMARK    3  A    between atoms: C3_5  and  O3_6
REMARK    4  A    between atoms: C4_9  and  N1_10
REMARK    5  A    between atoms: C6_15  and  C7_16
REMARK       I    between atoms: C7_16  and  N3_18
REMARK    6  A    between atoms: N3_18  and  C8_19
REMARK    7  A    between atoms: C8_19  and  C9_20
REMARK    8  A    between atoms: C9_20  and  O7_21
REMARK    9  A    between atoms: C9_20  and  N4_23
REMARK   10  A    between atoms: N4_23  and  C10_24
REMARK   11  A    between atoms: C10_24  and  C11_25
REMARK   12  A    between atoms: C11_25  and  N5_26
REMARK   13  A    between atoms: C12_27  and  N6_28
REMARK   14  A    between atoms: C17_37  and  N8_38
REMARK   15  A    between atoms: C18_43  and  S1_44
REMARK   16  A    between atoms: S1_44  and  C19_45
REMARK   17  A    between atoms: C22_51  and  O11_52
REMARK   18  A    between atoms: C23_54  and  O12_55
ROOT
HETATM    1  N1  UNL     1      -7.969   7.369  26.986  1.00  0.00    -0.256 N
HETATM    2  C5  UNL     1      -8.388   8.620  26.766  1.00  0.00     0.331 A
HETATM    3  O5  UNL     1      -7.674   9.594  27.087  1.00  0.00    -0.246 OA
HETATM    4  N2  UNL     1      -9.593   8.898  26.192  1.00  0.00    -0.302 N
ATOM      5  H2  UNL     1      -9.855   9.874  26.051  1.00  0.00     0.171 HD
HETATM    6  C6  UNL     1     -10.437   7.958  25.811  1.00  0.00     0.137 A
HETATM    7  C16 UNL     1     -10.062   6.619  26.010  1.00  0.00     0.086 A
HETATM    8  C17 UNL     1     -10.894   5.596  25.629  1.00  0.00     0.117 A
HETATM    9  N9  UNL     1     -10.448   4.312  25.855  1.00  0.00    -0.322 N
ATOM     10  H9  UNL     1     -11.039   3.525  25.585  1.00  0.00     0.169 HD
HETATM   11  C18 UNL     1      -9.279   4.075  26.408  1.00  0.00     0.154 A
HETATM   12  N10 UNL     1      -8.468   5.081  26.784  1.00  0.00    -0.321 N
ATOM     13  H10 UNL     1      -7.568   4.870  27.216  1.00  0.00     0.169 HD
HETATM   14  C20 UNL     1      -8.834   6.361  26.594  1.00  0.00     0.132 A
ENDROOT
BRANCH   6  15
HETATM   15  C7  UNL     1     -11.779   8.225  25.245  1.00  0.00     0.343 C
HETATM   16  O6  UNL     1     -11.862   8.330  24.021  1.00  0.00    -0.249 OA
HETATM   17  N3  UNL     1     -12.884   8.318  26.183  1.00  0.00    -0.372 NA
BRANCH  17  18
HETATM   18  C8  UNL     1     -13.897   8.404  26.979  1.00  0.00     0.258 C
BRANCH  18  19
HETATM   19  C9  UNL     1     -13.954   9.316  28.185  1.00  0.00     0.242 C
BRANCH  19  20
HETATM   20  O7  UNL     1     -13.034   8.998  29.047  1.00  0.00    -0.334 OA
ATOM     21  H7  UNL     1     -13.396   8.953  29.924  1.00  0.00     0.220 HD
ENDBRANCH  19  20
BRANCH  19  22
HETATM   22  N4  UNL     1     -14.821  10.347  28.408  1.00  0.00    -0.394 NA
BRANCH  22  23
HETATM   23  C10 UNL     1     -15.697  11.387  28.633  1.00  0.00     0.178 C
BRANCH  23  24
HETATM   24  C11 UNL     1     -15.956  11.804  30.075  1.00  0.00     0.191 C
BRANCH  24  25
HETATM   25  N5  UNL     1     -17.346  11.907  30.424  1.00  0.00    -0.311 N
HETATM   26  C12 UNL     1     -17.938  12.716  31.352  1.00  0.00     0.193 A
HETATM   27  C13 UNL     1     -19.318  12.462  31.336  1.00  0.00     0.144 A
HETATM   28  N7  UNL     1     -19.553  11.529  30.429  1.00  0.00    -0.352 N
HETATM   29  C14 UNL     1     -18.367  11.197  29.884  1.00  0.00     0.081 A
ATOM     30  H7  UNL     1     -20.462  11.135  30.186  1.00  0.00     0.166 HD
HETATM   31  C15 UNL     1     -18.290  10.118  28.842  1.00  0.00     0.089 C
BRANCH  26  32
HETATM   32  N6  UNL     1     -17.270  13.608  32.213  1.00  0.00    -0.096 N
HETATM   33  O8  UNL     1     -16.373  13.128  32.987  1.00  0.00    -0.530 OA
HETATM   34  O9  UNL     1     -17.471  14.941  32.337  1.00  0.00    -0.530 OA
ENDBRANCH  26  32
ENDBRANCH  24  25
ENDBRANCH  23  24
ENDBRANCH  22  23
ENDBRANCH  19  22
ENDBRANCH  18  19
ENDBRANCH  17  18
ENDBRANCH   6  15
BRANCH   8  35
HETATM   35  N8  UNL     1     -12.060   5.739  25.099  1.00  0.00    -0.385 N
ATOM     36  H82 UNL     1     -12.805   5.122  25.420  1.00  0.00     0.157 HD
ATOM     37  H81 UNL     1     -12.306   6.433  24.392  1.00  0.00     0.157 HD
ENDBRANCH   8  35
BRANCH   1  38
HETATM   38  C4  UNL     1      -6.728   7.004  27.610  1.00  0.00     0.241 C
HETATM   39  O4  UNL     1      -6.041   6.099  26.785  1.00  0.00    -0.319 OA
HETATM   40  C3  UNL     1      -4.941   5.518  27.401  1.00  0.00     0.284 C
HETATM   41  C23 UNL     1      -4.513   6.221  28.650  1.00  0.00     0.220 C
HETATM   42  C22 UNL     1      -4.449   7.692  28.407  1.00  0.00     0.157 C
HETATM   43  C21 UNL     1      -5.755   8.160  27.782  1.00  0.00     0.089 C
BRANCH  40  44
HETATM   44  C2  UNL     1      -3.799   5.506  26.451  1.00  0.00     0.324 C
HETATM   45  O2  UNL     1      -3.182   6.509  26.041  1.00  0.00    -0.259 OA
BRANCH  44  46
HETATM   46  O1  UNL     1      -3.354   4.274  25.958  1.00  0.00    -0.322 OA
HETATM   47  C1  UNL     1      -3.259   4.023  24.561  1.00  0.00     0.213 C
ENDBRANCH  44  46
ENDBRANCH  40  44
BRANCH  40  48
HETATM   48  O3  UNL     1      -5.173   4.168  27.761  1.00  0.00    -0.355 OA
ATOM     49  H3  UNL     1      -5.732   3.803  27.084  1.00  0.00     0.213 HD
ENDBRANCH  40  48
BRANCH  41  50
HETATM   50  O12 UNL     1      -3.217   5.709  28.942  1.00  0.00    -0.387 OA
ATOM     51  H12 UNL     1      -2.782   6.395  29.435  1.00  0.00     0.210 HD
ENDBRANCH  41  50
BRANCH  42  52
HETATM   52  O11 UNL     1      -4.218   8.316  29.649  1.00  0.00    -0.393 OA
ATOM     53  H11 UNL     1      -4.400   7.728  30.373  1.00  0.00     0.210 HD
ENDBRANCH  42  52
ENDBRANCH   1  38
BRANCH  11  54
HETATM   54  S1  UNL     1      -8.686   2.386  26.648  1.00  0.00    -0.025 SA
BRANCH  54  55
HETATM   55  C19 UNL     1      -7.033   2.363  25.937  1.00  0.00     0.312 C
HETATM   56  O10 UNL     1      -6.603   3.231  25.198  1.00  0.00    -0.295 OA
ENDBRANCH  54  55
ENDBRANCH  11  54
TORSDOF 18
ENDMDL