MODEL 1
REMARK VINA RESULT: -11.083612468      0.000      0.000
REMARK  13 active torsions:
REMARK  status: ('A' for Active; 'I' for Inactive)
REMARK    1  A    between atoms: C2_2  and  C3_3
REMARK    2  A    between atoms: C3_3  and  O1_4
REMARK    3  A    between atoms: C3_3  and  C4_6
REMARK       I    between atoms: C4_6  and  N1_8
REMARK    4  A    between atoms: N1_8  and  C5_9
REMARK    5  A    between atoms: C8_14  and  S2_15
REMARK    6  A    between atoms: S2_15  and  C9_16
REMARK       I    between atoms: N2_18  and  C11_19
REMARK    7  A    between atoms: C14_26  and  N4_27
REMARK    8  A    between atoms: N4_27  and  C15_29
REMARK    9  A    between atoms: C15_29  and  O5_30
REMARK   10  A    between atoms: C15_29  and  C16_32
REMARK   11  A    between atoms: N7_37  and  N8_38
REMARK   12  A    between atoms: C17_40  and  C18_41
REMARK   13  A    between atoms: C21_50  and  C22_51
ROOT
HETATM    1  C9  UNL     1      -8.009   6.390  25.523  1.00  0.00     0.120 C
HETATM    2  C10 UNL     1      -6.968   7.499  25.789  1.00  0.00     0.147 C
HETATM    3  N2  UNL     1      -6.275   7.114  26.994  1.00  0.00    -0.327 N
HETATM    4  C11 UNL     1      -5.699   8.155  27.778  1.00  0.00     0.217 C
HETATM    5  C12 UNL     1      -4.919   7.924  28.987  1.00  0.00     0.117 C
HETATM    6  O4  UNL     1      -5.880   9.379  27.394  1.00  0.00    -0.274 OA
HETATM    7  C13 UNL     1      -6.121   5.739  27.439  1.00  0.00     0.362 C
HETATM    8  N3  UNL     1      -7.421   5.055  27.436  1.00  0.00    -0.037 N
ATOM      9  H31 UNL     1      -7.661   4.673  28.351  1.00  0.00     0.281 HD
ATOM     10  H32 UNL     1      -7.397   4.176  26.918  1.00  0.00     0.281 HD
HETATM   11  C14 UNL     1      -8.423   5.960  26.937  1.00  0.00     0.299 C
ENDROOT
BRANCH  11  12
HETATM   12  N4  UNL     1      -9.748   5.504  27.087  1.00  0.00    -0.363 N
ATOM     13  H4  UNL     1     -10.098   5.161  27.980  1.00  0.00     0.158 HD
BRANCH  12  14
HETATM   14  C15 UNL     1     -10.576   5.546  25.922  1.00  0.00     0.287 C
BRANCH  14  15
HETATM   15  O5  UNL     1     -11.352   4.352  25.905  1.00  0.00    -0.370 OA
ATOM     16  H5  UNL     1     -12.157   4.529  26.379  1.00  0.00     0.212 HD
ENDBRANCH  14  15
BRANCH  14  17
HETATM   17  C16 UNL     1     -11.568   6.655  26.004  1.00  0.00     0.164 A
HETATM   18  N5  UNL     1     -12.183   7.231  24.931  1.00  0.00    -0.267 N
HETATM   19  N6  UNL     1     -12.966   8.157  25.354  1.00  0.00    -0.204 N
ATOM     20  H5  UNL     1     -12.044   6.970  23.955  1.00  0.00     0.190 HD
HETATM   21  N7  UNL     1     -12.924   8.249  26.692  1.00  0.00    -0.115 N
ATOM     22  H6  UNL     1     -13.544   8.745  24.753  1.00  0.00     0.212 HD
HETATM   23  N11 UNL     1     -12.042   7.297  27.081  1.00  0.00    -0.246 N
ATOM     24  H11 UNL     1     -11.779   7.100  28.047  1.00  0.00     0.192 HD
BRANCH  21  25
HETATM   25  N8  UNL     1     -13.682   9.121  27.405  1.00  0.00    -0.272 N
HETATM   26  C17 UNL     1     -14.860   9.213  27.772  1.00  0.00     0.141 C
ATOM     27  H8  UNL     1     -13.130   9.917  27.724  1.00  0.00     0.189 HD
BRANCH  26  28
HETATM   28  C18 UNL     1     -15.935   8.289  27.515  1.00  0.00     0.065 A
HETATM   29  C19 UNL     1     -17.092   8.192  28.173  1.00  0.00     0.119 A
HETATM   30  N9  UNL     1     -17.824   7.219  27.625  1.00  0.00    -0.360 N
HETATM   31  C20 UNL     1     -17.148   6.709  26.635  1.00  0.00     0.180 A
ATOM     32  H9  UNL     1     -18.753   6.926  27.927  1.00  0.00     0.166 HD
HETATM   33  N10 UNL     1     -15.921   7.304  26.461  1.00  0.00    -0.350 N
ATOM     34  H10 UNL     1     -15.196   7.104  25.772  1.00  0.00     0.166 HD
ENDBRANCH  26  28
ENDBRANCH  21  25
ENDBRANCH  14  17
ENDBRANCH  12  14
ENDBRANCH  11  12
BRANCH   1  35
HETATM   35  S2  UNL     1      -7.135   4.941  24.850  1.00  0.00    -0.113 SA
BRANCH  35  36
HETATM   36  C8  UNL     1      -5.929   5.310  23.599  1.00  0.00     0.084 C
HETATM   37  C7  UNL     1      -6.347   5.828  22.253  1.00  0.00     0.201 C
HETATM   38  C6  UNL     1      -5.177   5.527  21.384  1.00  0.00     0.234 C
HETATM   39  O3  UNL     1      -7.380   6.382  21.882  1.00  0.00    -0.288 OA
HETATM   40  S1  UNL     1      -4.914   6.788  20.135  1.00  0.00    -0.087 SA
HETATM   41  N12 UNL     1      -4.112   5.799  22.323  1.00  0.00    -0.286 N
HETATM   42  C5  UNL     1      -3.270   7.397  20.721  1.00  0.00     0.323 C
HETATM   43  C23 UNL     1      -3.000   6.431  21.815  1.00  0.00     0.272 C
HETATM   44  O8  UNL     1      -1.814   6.223  22.225  1.00  0.00    -0.268 OA
HETATM   45  C21 UNL     1      -4.618   5.268  23.601  1.00  0.00     0.136 C
BRANCH  42  46
HETATM   46  N1  UNL     1      -2.365   7.408  19.758  1.00  0.00    -0.387 NA
HETATM   47  C4  UNL     1      -1.401   7.417  18.721  1.00  0.00     0.317 C
HETATM   48  O2  UNL     1      -1.585   7.047  17.554  1.00  0.00    -0.255 OA
BRANCH  47  49
HETATM   49  C3  UNL     1      -0.034   7.916  19.065  1.00  0.00     0.224 C
BRANCH  49  50
HETATM   50  C2  UNL     1       0.737   6.947  19.904  1.00  0.00     0.038 C
HETATM   51  C1  UNL     1       2.164   7.344  20.150  1.00  0.00     0.008 C
ENDBRANCH  49  50
BRANCH  49  52
HETATM   52  O1  UNL     1       0.622   8.163  17.857  1.00  0.00    -0.385 OA
ATOM     53  H1  UNL     1       0.439   7.478  17.224  1.00  0.00     0.210 HD
ENDBRANCH  49  52
ENDBRANCH  47  49
ENDBRANCH  42  46
BRANCH  45  54
HETATM   54  C22 UNL     1      -3.772   4.838  24.693  1.00  0.00     0.228 C
HETATM   55  O6  UNL     1      -3.566   3.632  24.955  1.00  0.00    -0.643 OA
HETATM   56  O7  UNL     1      -3.127   5.774  25.526  1.00  0.00    -0.643 OA
ENDBRANCH  45  54
ENDBRANCH  35  36
ENDBRANCH   1  35
TORSDOF 13
ENDMDL