MODEL 5
REMARK VINA RESULT: -8.154846303      5.498     10.322
REMARK  15 active torsions:
REMARK  status: ('A' for Active; 'I' for Inactive)
REMARK    1  A    between atoms: C2_2  and  S1_4
REMARK    2  A    between atoms: S1_4  and  C3_5
REMARK    3  A    between atoms: C3_5  and  C4_6
REMARK    4  A    between atoms: C5_7  and  C6_8
REMARK    5  A    between atoms: C9_15  and  C10_16
REMARK    6  A    between atoms: C11_19  and  C12_20
REMARK    7  A    between atoms: C12_20  and  O6_21
REMARK    8  A    between atoms: C13_25  and  S2_26
REMARK    9  A    between atoms: S2_26  and  S3_27
REMARK   10  A    between atoms: S3_27  and  C14_28
REMARK   11  A    between atoms: C18_38  and  S4_39
REMARK   12  A    between atoms: S4_39  and  C19_40
REMARK   13  A    between atoms: C19_40  and  C20_41
REMARK   14  A    between atoms: C20_41  and  O7_42
REMARK   15  A    between atoms: C21_46  and  C22_47
ROOT
HETATM    1  C4  UNL     1      -2.761   6.140  30.965  1.00  0.00     0.036 C
HETATM    2  C5  UNL     1      -2.550   5.339  31.972  1.00  0.00     0.074 C
HETATM    3  C7  UNL     1      -3.371   4.061  31.912  1.00  0.00     0.222 A
HETATM    4  C8  UNL     1      -2.802   2.827  32.437  1.00  0.00     0.134 A
HETATM    5  N1  UNL     1      -2.367   1.886  33.293  1.00  0.00    -0.335 N
ATOM      6  H1  UNL     1      -2.384   1.967  34.310  1.00  0.00     0.167 HD
HETATM    7  C9  UNL     1      -1.907   0.827  32.616  1.00  0.00     0.138 A
HETATM    8  C11 UNL     1      -2.078   1.159  31.264  1.00  0.00     0.093 A
HETATM    9  N2  UNL     1      -2.623   2.372  31.155  1.00  0.00    -0.235 N
HETATM   10  N3  UNL     1      -3.155   3.550  30.602  1.00  0.00    -0.245 N
HETATM   11  C13 UNL     1      -3.464   4.384  29.505  1.00  0.00     0.174 C
HETATM   12  N8  UNL     1      -3.256   5.671  29.672  1.00  0.00    -0.337 N
ATOM     13  H8  UNL     1      -3.438   6.331  28.914  1.00  0.00     0.168 HD
ENDROOT
BRANCH  11  14
HETATM   14  S2  UNL     1      -4.163   3.722  28.034  1.00  0.00    -0.017 SA
BRANCH  14  15
HETATM   15  S3  UNL     1      -6.147   3.046  28.269  1.00  0.00    -0.061 SA
BRANCH  15  16
HETATM   16  C14 UNL     1      -7.268   4.224  27.460  1.00  0.00     0.190 C
HETATM   17  N4  UNL     1      -6.666   4.855  26.343  1.00  0.00    -0.358 N
HETATM   18  C15 UNL     1      -7.158   5.516  25.368  1.00  0.00     0.133 A
ATOM     19  H4  UNL     1      -5.651   4.765  26.313  1.00  0.00     0.162 HD
HETATM   20  N5  UNL     1      -6.417   6.069  24.356  1.00  0.00    -0.337 N
HETATM   21  C17 UNL     1      -8.486   5.857  25.063  1.00  0.00     0.111 A
HETATM   22  C16 UNL     1      -7.242   6.700  23.502  1.00  0.00     0.182 A
ATOM     23  H5  UNL     1      -5.403   6.010  24.265  1.00  0.00     0.168 HD
HETATM   24  N6  UNL     1      -8.498   6.572  23.932  1.00  0.00    -0.347 N
ATOM     25  H6  UNL     1      -9.327   6.953  23.475  1.00  0.00     0.167 HD
HETATM   26  C18 UNL     1      -9.610   5.518  25.689  1.00  0.00     0.097 C
HETATM   27  N7  UNL     1      -9.580   4.596  26.814  1.00  0.00    -0.366 N
HETATM   28  C21 UNL     1      -8.586   3.587  27.119  1.00  0.00     0.217 C
ATOM     29  H7  UNL     1     -10.358   4.669  27.471  1.00  0.00     0.161 HD
BRANCH  26  30
HETATM   30  S4  UNL     1     -11.185   6.053  25.155  1.00  0.00    -0.108 SA
BRANCH  30  31
HETATM   31  C19 UNL     1     -12.432   6.358  26.362  1.00  0.00     0.107 C
BRANCH  31  32
HETATM   32  C20 UNL     1     -12.641   7.859  26.529  1.00  0.00     0.174 C
BRANCH  32  33
HETATM   33  O7  UNL     1     -12.304   8.203  27.836  1.00  0.00    -0.400 OA
ATOM     34  H7  UNL     1     -12.955   8.815  28.159  1.00  0.00     0.209 HD
ENDBRANCH  32  33
ENDBRANCH  31  32
ENDBRANCH  30  31
ENDBRANCH  26  30
BRANCH  28  35
HETATM   35  C22 UNL     1      -8.439   2.563  26.061  1.00  0.00     0.199 C
HETATM   36  O8  UNL     1      -7.325   2.283  25.594  1.00  0.00    -0.646 OA
HETATM   37  O9  UNL     1      -9.562   1.917  25.593  1.00  0.00    -0.646 OA
ENDBRANCH  28  35
ENDBRANCH  15  16
ENDBRANCH  14  15
ENDBRANCH  11  14
BRANCH   1  38
HETATM   38  C3  UNL     1      -2.294   7.567  30.923  1.00  0.00     0.140 C
BRANCH  38  39
HETATM   39  S1  UNL     1      -3.424   8.536  29.948  1.00  0.00    -0.087 SA
BRANCH  39  40
HETATM   40  C2  UNL     1      -4.984   8.837  30.690  1.00  0.00     0.182 C
HETATM   41  C1  UNL     1      -5.164   8.958  32.148  1.00  0.00     0.104 C
HETATM   42  O1  UNL     1      -6.009   8.958  29.958  1.00  0.00    -0.286 OA
ENDBRANCH  39  40
ENDBRANCH  38  39
ENDBRANCH   1  38
BRANCH   2  43
HETATM   43  C6  UNL     1      -1.831   5.642  33.177  1.00  0.00     0.209 C
HETATM   44  O2  UNL     1      -2.282   6.105  34.221  1.00  0.00    -0.644 OA
HETATM   45  O3  UNL     1      -0.454   5.390  33.190  1.00  0.00    -0.644 OA
ENDBRANCH   2  43
BRANCH   8  46
HETATM   46  C12 UNL     1      -1.629   0.182  30.228  1.00  0.00     0.226 C
BRANCH  46  47
HETATM   47  O6  UNL     1      -1.482   0.706  28.971  1.00  0.00    -0.395 OA
ATOM     48  H6  UNL     1      -0.732   0.378  28.488  1.00  0.00     0.209 HD
ENDBRANCH  46  47
ENDBRANCH   8  46
BRANCH   7  49
HETATM   49  C10 UNL     1      -1.347  -0.412  33.156  1.00  0.00     0.229 C
HETATM   50  O4  UNL     1      -2.156  -1.145  33.819  1.00  0.00    -0.643 OA
HETATM   51  O5  UNL     1      -0.051  -0.815  32.995  1.00  0.00    -0.643 OA
ENDBRANCH   7  49
TORSDOF 15
ENDMDL