MODEL 5
REMARK VINA RESULT: -8.239039354      5.674      9.539
REMARK  15 active torsions:
REMARK  status: ('A' for Active; 'I' for Inactive)
REMARK    1  A    between atoms: O1_2  and  C2_3
REMARK    2  A    between atoms: C2_3  and  O2_4
REMARK    3  A    between atoms: O2_4  and  C3_5
REMARK    4  A    between atoms: C3_5  and  O3_6
REMARK    5  A    between atoms: C3_5  and  C4_8
REMARK    6  A    between atoms: C4_8  and  O4_9
REMARK    7  A    between atoms: C4_8  and  N1_11
REMARK    8  A    between atoms: C7_15  and  N3_16
REMARK       I    between atoms: N3_16  and  C8_18
REMARK    9  A    between atoms: C8_18  and  C9_20
REMARK   10  A    between atoms: C11_22  and  C12_23
REMARK       I    between atoms: C12_23  and  N4_25
REMARK   11  A    between atoms: C13_27  and  C14_28
REMARK   12  A    between atoms: C16_35  and  O8_36
REMARK   13  A    between atoms: N8_41  and  C17_42
REMARK   14  A    between atoms: C19_44  and  O9_45
REMARK   15  A    between atoms: O9_45  and  S2_46
ROOT
HETATM    1  N1  UNL     1      -7.642   6.696  25.383  1.00  0.00    -0.230 N
HETATM    2  C6  UNL     1      -6.605   7.065  24.606  1.00  0.00     0.222 A
HETATM    3  N2  UNL     1      -5.679   6.108  24.589  1.00  0.00    -0.184 N
ATOM      4  H2  UNL     1      -4.796   6.132  24.080  1.00  0.00     0.185 HD
HETATM    5  C7  UNL     1      -6.128   5.092  25.373  1.00  0.00     0.709 A
HETATM    6  N8  UNL     1      -7.317   5.473  25.841  1.00  0.00    -0.061 N
ENDROOT
BRANCH   5   7
HETATM    7  N3  UNL     1      -5.483   3.993  25.587  1.00  0.00    -0.153 N
HETATM    8  C8  UNL     1      -4.218   3.771  26.053  1.00  0.00     0.278 C
HETATM    9  O5  UNL     1      -3.268   3.620  25.216  1.00  0.00    -0.266 OA
ATOM     10  H3  UNL     1      -6.008   3.146  25.370  1.00  0.00     0.187 HD
BRANCH   8  11
HETATM   11  C9  UNL     1      -3.825   3.680  27.477  1.00  0.00     0.092 A
HETATM   12  C10 UNL     1      -3.275   2.616  28.140  1.00  0.00     0.061 A
HETATM   13  C11 UNL     1      -2.986   2.792  29.434  1.00  0.00     0.108 A
HETATM   14  N7  UNL     1      -3.260   3.994  29.965  1.00  0.00    -0.321 N
HETATM   15  S1  UNL     1      -3.910   4.868  28.692  1.00  0.00    -0.009 SA
ATOM     16  H7  UNL     1      -3.107   4.305  30.924  1.00  0.00     0.174 HD
BRANCH  13  17
HETATM   17  C12 UNL     1      -2.391   1.762  30.334  1.00  0.00     0.272 C
HETATM   18  O6  UNL     1      -2.255   0.614  29.846  1.00  0.00    -0.266 OA
HETATM   19  N4  UNL     1      -2.000   2.006  31.624  1.00  0.00    -0.329 N
HETATM   20  C13 UNL     1      -2.459   2.162  32.753  1.00  0.00     0.125 C
ATOM     21  H4  UNL     1      -0.984   2.084  31.659  1.00  0.00     0.168 HD
BRANCH  20  22
HETATM   22  C14 UNL     1      -3.867   2.120  33.145  1.00  0.00     0.103 A
HETATM   23  N5  UNL     1      -4.612   3.031  33.788  1.00  0.00    -0.304 N
HETATM   24  C15 UNL     1      -5.875   2.576  33.913  1.00  0.00     0.326 A
ATOM     25  H5  UNL     1      -4.275   3.931  34.130  1.00  0.00     0.171 HD
HETATM   26  O7  UNL     1      -6.800   3.220  34.478  1.00  0.00    -0.247 OA
HETATM   27  N6  UNL     1      -5.916   1.369  33.343  1.00  0.00    -0.287 N
HETATM   28  C16 UNL     1      -4.716   1.049  32.860  1.00  0.00     0.172 A
ATOM     29  H6  UNL     1      -6.744   0.778  33.285  1.00  0.00     0.172 HD
BRANCH  28  30
HETATM   30  O8  UNL     1      -4.350  -0.129  32.191  1.00  0.00    -0.344 OA
ATOM     31  H8  UNL     1      -4.643  -0.386  31.325  1.00  0.00     0.219 HD
ENDBRANCH  28  30
ENDBRANCH  20  22
ENDBRANCH  13  17
ENDBRANCH   8  11
ENDBRANCH   5   7
BRANCH   6  32
HETATM   32  C17 UNL     1      -8.207   4.766  26.720  1.00  0.00     0.164 C
HETATM   33  C18 UNL     1      -7.666   4.107  27.913  1.00  0.00     0.149 C
HETATM   34  C19 UNL     1      -7.329   2.643  27.833  1.00  0.00     0.353 C
HETATM   35  N9  UNL     1      -7.674   2.167  26.509  1.00  0.00    -0.026 N
HETATM   36  C20 UNL     1      -9.003   2.621  26.239  1.00  0.00     0.411 C
ATOM     37  H92 UNL     1      -7.001   2.446  25.795  1.00  0.00     0.282 HD
ATOM     38  H91 UNL     1      -7.564   1.159  26.403  1.00  0.00     0.282 HD
HETATM   39  O13 UNL     1      -9.119   3.966  26.080  1.00  0.00    -0.309 OA
BRANCH  34  40
HETATM   40  O9  UNL     1      -8.086   1.865  28.717  1.00  0.00    -0.222 OA
BRANCH  40  41
HETATM   41  S2  UNL     1      -7.090   1.451  29.999  1.00  0.00     0.253 S
HETATM   42  O10 UNL     1      -6.083   2.482  30.341  1.00  0.00    -0.572 OA
HETATM   43  O11 UNL     1      -8.007   1.241  31.197  1.00  0.00    -0.572 OA
HETATM   44  O12 UNL     1      -6.378  -0.028  29.603  1.00  0.00    -0.572 OA
ENDBRANCH  40  41
ENDBRANCH  34  40
ENDBRANCH   6  32
BRANCH   1  45
HETATM   45  C4  UNL     1      -8.816   7.466  25.654  1.00  0.00     0.300 C
BRANCH  45  46
HETATM   46  C3  UNL     1      -9.708   7.463  24.160  1.00  0.00     0.310 C
BRANCH  46  47
HETATM   47  O2  UNL     1     -10.613   8.319  24.603  1.00  0.00    -0.333 OA
BRANCH  47  48
HETATM   48  C2  UNL     1     -11.913   7.809  24.718  1.00  0.00     0.340 C
BRANCH  48  49
HETATM   49  O1  UNL     1     -12.356   8.067  26.024  1.00  0.00    -0.372 OA
HETATM   50  C1  UNL     1     -13.482   7.283  26.309  1.00  0.00     0.204 C
ENDBRANCH  48  49
ENDBRANCH  47  48
ENDBRANCH  46  47
BRANCH  46  51
HETATM   51  O3  UNL     1     -10.558   6.181  24.668  1.00  0.00    -0.367 OA
ATOM     52  H3  UNL     1      -9.929   5.565  24.313  1.00  0.00     0.212 HD
ENDBRANCH  46  51
ENDBRANCH  45  46
BRANCH  45  53
HETATM   53  O4  UNL     1      -8.644   8.819  25.748  1.00  0.00    -0.365 OA
HETATM   54  C5  UNL     1      -8.059   9.315  26.869  1.00  0.00     0.204 C
ENDBRANCH  45  53
ENDBRANCH   1  45
TORSDOF 15
ENDMDL