MODEL 3
REMARK VINA RESULT: -8.047469800      2.753      4.921
REMARK  7 active torsions:
REMARK  status: ('A' for Active; 'I' for Inactive)
REMARK    1  A    between atoms: C2_2  and  C10_15
REMARK    2  A    between atoms: N1_3  and  S1_5
REMARK    3  A    between atoms: S1_5  and  C3_8
REMARK    4  A    between atoms: C11_16  and  O3_17
REMARK    5  A    between atoms: O3_17  and  S2_18
REMARK    6  A    between atoms: S2_18  and  C12_21
REMARK    7  A    between atoms: C16_28  and  O7_29
ROOT
HETATM    1  C12 UNL     1      70.211  -6.159  48.614  1.00  0.00     0.348 C
HETATM    2  C13 UNL     1      70.003  -5.531  47.320  1.00  0.00     0.097 C
HETATM    3  N2  UNL     1      69.820  -5.033  46.305  1.00  0.00    -0.195 NA
HETATM    4  C14 UNL     1      70.448  -7.583  48.521  1.00  0.00     0.097 C
HETATM    5  N3  UNL     1      70.614  -8.726  48.444  1.00  0.00    -0.195 NA
ENDROOT
BRANCH   1   6
HETATM    6  S2  UNL     1      71.505  -5.291  49.456  1.00  0.00     0.300 S
HETATM    7  O4  UNL     1      72.801  -5.688  48.754  1.00  0.00    -0.196 OA
HETATM    8  O5  UNL     1      71.335  -3.814  49.172  1.00  0.00    -0.196 OA
BRANCH   6   9
HETATM    9  O3  UNL     1      71.620  -5.636  51.090  1.00  0.00    -0.228 OA
BRANCH   9  10
HETATM   10  C11 UNL     1      70.541  -5.425  51.930  1.00  0.00     0.128 A
HETATM   11  C10 UNL     1      70.175  -4.251  52.535  1.00  0.00     0.082 A
HETATM   12  C16 UNL     1      69.031  -4.562  53.271  1.00  0.00     0.198 A
HETATM   13  O6  UNL     1      68.748  -5.834  53.108  1.00  0.00    -0.297 OA
HETATM   14  C15 UNL     1      69.613  -6.402  52.319  1.00  0.00     0.184 A
BRANCH  11  15
HETATM   15  C2  UNL     1      70.806  -2.942  52.471  1.00  0.00     0.034 C
HETATM   16  C1  UNL     1      71.791  -2.456  53.465  1.00  0.00     0.070 C
HETATM   17  N1  UNL     1      70.523  -2.111  51.512  1.00  0.00    -0.283 N
ATOM     18  H1  UNL     1      69.847  -2.422  50.814  1.00  0.00     0.178 HD
BRANCH  17  19
HETATM   19  S1  UNL     1      71.177  -0.557  51.315  1.00  0.00     0.263 S
HETATM   20  O1  UNL     1      71.109   0.205  52.603  1.00  0.00    -0.200 OA
HETATM   21  O2  UNL     1      72.626  -0.563  50.874  1.00  0.00    -0.200 OA
BRANCH  19  22
HETATM   22  C3  UNL     1      70.291   0.306  50.048  1.00  0.00     0.079 A
HETATM   23  C4  UNL     1      69.359   1.265  50.380  1.00  0.00     0.026 A
HETATM   24  C5  UNL     1      68.648   1.959  49.396  1.00  0.00     0.008 A
HETATM   25  C6  UNL     1      68.882   1.680  48.067  1.00  0.00    -0.062 A
HETATM   26  C7  UNL     1      68.109   2.433  47.030  1.00  0.00     0.048 C
HETATM   27  C8  UNL     1      69.806   0.725  47.731  1.00  0.00     0.008 A
HETATM   28  C9  UNL     1      70.516   0.034  48.715  1.00  0.00     0.026 A
ENDBRANCH  19  22
ENDBRANCH  17  19
ENDBRANCH  11  15
BRANCH  12  29
HETATM   29  O7  UNL     1      68.349  -3.623  54.035  1.00  0.00    -0.340 OA
ATOM     30  H7  UNL     1      68.775  -2.872  54.431  1.00  0.00     0.220 HD
ENDBRANCH  12  29
ENDBRANCH   9  10
ENDBRANCH   6   9
ENDBRANCH   1   6
TORSDOF 7
ENDMDL