MODEL 2
REMARK VINA RESULT: -7.994745859      1.591      6.600
REMARK  9 active torsions:
REMARK  status: ('A' for Active; 'I' for Inactive)
REMARK    1  A    between atoms: C3_3  and  C5_5
REMARK    2  A    between atoms: C5_5  and  O2_7
REMARK    3  A    between atoms: O2_7  and  C6_8
REMARK    4  A    between atoms: C8_10  and  C9_11
REMARK    5  A    between atoms: C9_11  and  O3_12
REMARK    6  A    between atoms: C9_11  and  C10_14
REMARK    7  A    between atoms: C10_14  and  O4_15
REMARK    8  A    between atoms: O4_15  and  C11_16
REMARK    9  A    between atoms: C14_20  and  C16_22
ROOT
HETATM    1  C6  UNL     1      70.211  -5.767  52.101  1.00  0.00     0.172 C
HETATM    2  C7  UNL     1      70.560  -4.985  50.906  1.00  0.00     0.043 C
HETATM    3  C8  UNL     1      71.488  -5.594  49.896  1.00  0.00     0.022 C
HETATM    4  C13 UNL     1      72.298  -6.725  50.388  1.00  0.00     0.053 C
HETATM    5  C14 UNL     1      71.548  -8.066  50.280  1.00  0.00     0.118 C
HETATM    6  C15 UNL     1      72.255  -9.060  51.162  1.00  0.00     0.054 C
HETATM    7  O7  UNL     1      70.237  -7.975  50.330  1.00  0.00    -0.364 OA
HETATM    8  C18 UNL     1      69.407  -8.025  51.322  1.00  0.00     0.163 C
HETATM    9  C19 UNL     1      69.658  -8.764  52.585  1.00  0.00     0.038 C
HETATM   10  C20 UNL     1      68.341  -8.446  53.326  1.00  0.00     0.038 C
HETATM   11  C21 UNL     1      68.288  -6.958  53.187  1.00  0.00     0.163 A
HETATM   12  O8  UNL     1      67.736  -6.321  52.105  1.00  0.00    -0.364 OA
HETATM   13  C22 UNL     1      69.022  -6.652  51.896  1.00  0.00     0.140 A
ENDROOT
BRANCH   3  14
HETATM   14  C9  UNL     1      72.405  -4.516  49.308  1.00  0.00     0.146 C
BRANCH  14  15
HETATM   15  O3  UNL     1      71.918  -3.263  49.833  1.00  0.00    -0.393 OA
ATOM     16  H3  UNL     1      71.357  -2.902  49.156  1.00  0.00     0.210 HD
ENDBRANCH  14  15
BRANCH  14  17
HETATM   17  C10 UNL     1      72.236  -4.336  47.824  1.00  0.00     0.210 C
BRANCH  17  18
HETATM   18  O4  UNL     1      71.526  -5.407  47.233  1.00  0.00    -0.319 OA
BRANCH  18  19
HETATM   19  C11 UNL     1      70.229  -5.322  46.796  1.00  0.00     0.254 C
HETATM   20  C12 UNL     1      69.093  -5.979  47.523  1.00  0.00     0.126 C
HETATM   21  O5  UNL     1      69.973  -4.674  45.756  1.00  0.00    -0.266 OA
ENDBRANCH  18  19
ENDBRANCH  17  18
ENDBRANCH  14  17
ENDBRANCH   3  14
BRANCH   1  22
HETATM   22  O2  UNL     1      70.013  -4.967  53.263  1.00  0.00    -0.309 OA
BRANCH  22  23
HETATM   23  C5  UNL     1      69.570  -3.680  53.268  1.00  0.00     0.289 C
HETATM   24  O1  UNL     1      68.371  -3.447  53.497  1.00  0.00    -0.260 OA
BRANCH  23  25
HETATM   25  C3  UNL     1      70.552  -2.616  52.996  1.00  0.00     0.009 C
HETATM   26  C2  UNL     1      70.214  -1.517  52.366  1.00  0.00    -0.018 C
HETATM   27  C1  UNL     1      71.196  -0.451  52.096  1.00  0.00     0.036 C
HETATM   28  C4  UNL     1      71.970  -2.759  53.436  1.00  0.00     0.054 C
ENDBRANCH  23  25
ENDBRANCH  22  23
ENDBRANCH   1  22
BRANCH   5  29
HETATM   29  C16 UNL     1      71.862  -8.538  48.866  1.00  0.00     0.157 C
HETATM   30  C17 UNL     1      73.181  -8.417  48.240  1.00  0.00     0.094 C
HETATM   31  O6  UNL     1      70.931  -9.033  48.266  1.00  0.00    -0.295 OA
ENDBRANCH   5  29
TORSDOF 9
ENDMDL