MODEL 2
REMARK VINA RESULT: -7.297156742      3.983      8.046
REMARK  8 active torsions:
REMARK  status: ('A' for Active; 'I' for Inactive)
REMARK    1  A    between atoms: O1_2  and  C2_3
REMARK    2  A    between atoms: C2_3  and  C3_4
REMARK    3  A    between atoms: C3_4  and  O2_5
REMARK    4  A    between atoms: C3_4  and  O3_7
REMARK    5  A    between atoms: O3_7  and  C4_8
REMARK    6  A    between atoms: C8_12  and  C9_13
REMARK    7  A    between atoms: C19_26  and  O7_27
REMARK    8  A    between atoms: C21_29  and  O8_30
ROOT
HETATM    1  C4  UNL     1      73.707 -10.641  49.466  1.00  0.00     0.114 A
HETATM    2  C5  UNL     1      72.751 -10.676  50.454  1.00  0.00    -0.025 A
HETATM    3  C6  UNL     1      72.460 -11.927  51.200  1.00  0.00     0.051 C
HETATM    4  C7  UNL     1      71.990  -9.544  50.794  1.00  0.00     0.022 A
HETATM    5  C8  UNL     1      72.155  -8.346  50.162  1.00  0.00     0.009 A
HETATM    6  C19 UNL     1      73.116  -8.307  49.165  1.00  0.00     0.113 A
HETATM    7  C21 UNL     1      73.870  -9.414  48.825  1.00  0.00     0.136 A
ENDROOT
BRANCH   5   8
HETATM    8  C9  UNL     1      71.364  -7.119  50.471  1.00  0.00     0.183 C
HETATM    9  O4  UNL     1      70.965  -6.495  49.235  1.00  0.00    -0.307 OA
HETATM   10  C10 UNL     1      69.749  -6.751  48.621  1.00  0.00     0.283 C
HETATM   11  O5  UNL     1      69.573  -6.496  47.380  1.00  0.00    -0.260 OA
HETATM   12  C11 UNL     1      68.691  -7.319  49.438  1.00  0.00     0.086 C
HETATM   13  C12 UNL     1      68.910  -7.567  50.696  1.00  0.00    -0.060 C
HETATM   14  C13 UNL     1      67.867  -8.140  51.578  1.00  0.00     0.040 C
HETATM   15  C18 UNL     1      70.227  -7.313  51.393  1.00  0.00     0.118 C
HETATM   16  C14 UNL     1      67.851  -7.322  52.857  1.00  0.00    -0.008 C
HETATM   17  C15 UNL     1      66.441  -7.050  53.322  1.00  0.00     0.010 C
HETATM   18  C16 UNL     1      68.537  -5.975  52.702  1.00  0.00     0.083 C
HETATM   19  C17 UNL     1      69.933  -6.091  52.216  1.00  0.00     0.138 C
HETATM   20  O6  UNL     1      70.741  -5.258  52.476  1.00  0.00    -0.297 OA
ENDBRANCH   5   8
BRANCH   6  21
HETATM   21  O7  UNL     1      73.292  -7.079  48.509  1.00  0.00    -0.352 OA
HETATM   22  C20 UNL     1      74.426  -6.304  48.839  1.00  0.00     0.210 C
ENDBRANCH   6  21
BRANCH   7  23
HETATM   23  O8  UNL     1      74.809  -9.303  47.827  1.00  0.00    -0.351 OA
HETATM   24  C22 UNL     1      74.519  -9.374  46.443  1.00  0.00     0.210 C
ENDBRANCH   7  23
BRANCH   1  25
HETATM   25  O3  UNL     1      74.459 -11.747  49.128  1.00  0.00    -0.315 OA
BRANCH  25  26
HETATM   26  C3  UNL     1      74.398 -12.580  48.036  1.00  0.00     0.287 C
BRANCH  26  27
HETATM   27  C2  UNL     1      75.793 -13.177  47.785  1.00  0.00     0.228 C
BRANCH  27  28
HETATM   28  O1  UNL     1      75.605 -14.460  47.322  1.00  0.00    -0.391 OA
HETATM   29  C1  UNL     1      76.798 -15.064  46.978  1.00  0.00     0.201 C
ENDBRANCH  27  28
ENDBRANCH  26  27
BRANCH  26  30
HETATM   30  O2  UNL     1      73.565 -13.671  48.448  1.00  0.00    -0.369 OA
ATOM     31  H2  UNL     1      73.126 -13.981  47.665  1.00  0.00     0.212 HD
ENDBRANCH  26  30
ENDBRANCH  25  26
ENDBRANCH   1  25
TORSDOF 8
ENDMDL