MODEL 2
REMARK VINA RESULT: -6.960587228      3.829      5.477
REMARK  8 active torsions:
REMARK  status: ('A' for Active; 'I' for Inactive)
REMARK    1  A    between atoms: O1_2  and  C2_3
REMARK    2  A    between atoms: C2_3  and  C3_5
REMARK    3  A    between atoms: C3_5  and  C4_6
REMARK    4  A    between atoms: C4_6  and  C6_8
REMARK    5  A    between atoms: C7_10  and  C8_11
REMARK    6  A    between atoms: C11_14  and  S2_15
REMARK    7  A    between atoms: C14_22  and  C15_23
REMARK    8  A    between atoms: C18_27  and  O6_28
ROOT
HETATM    1  C6  UNL     1      69.323  -6.456  50.695  1.00  0.00     0.081 C
HETATM    2  S1  UNL     1      70.978  -5.858  50.276  1.00  0.00    -0.149 SA
HETATM    3  C7  UNL     1      71.685  -7.001  49.083  1.00  0.00     0.108 C
HETATM    4  C14 UNL     1      70.910  -8.206  48.755  1.00  0.00     0.077 C
HETATM    5  C17 UNL     1      69.680  -8.511  49.483  1.00  0.00     0.046 C
HETATM    6  C18 UNL     1      69.501  -7.936  50.859  1.00  0.00     0.133 C
ENDROOT
BRANCH   3   7
HETATM    7  C8  UNL     1      72.010  -6.197  47.870  1.00  0.00     0.023 A
HETATM    8  C9  UNL     1      73.301  -6.237  47.387  1.00  0.00     0.027 A
HETATM    9  C10 UNL     1      73.715  -5.538  46.279  1.00  0.00     0.027 A
HETATM   10  C11 UNL     1      72.802  -4.763  45.616  1.00  0.00     0.074 A
HETATM   11  C13 UNL     1      71.512  -4.728  46.103  1.00  0.00     0.111 A
HETATM   12  N1  UNL     1      71.128  -5.431  47.208  1.00  0.00    -0.367 N
ATOM     13  H1  UNL     1      70.163  -5.375  47.534  1.00  0.00     0.165 HD
BRANCH  10  14
HETATM   14  S2  UNL     1      73.212  -3.830  44.194  1.00  0.00     0.173 S
HETATM   15  C12 UNL     1      73.261  -2.103  44.686  1.00  0.00     0.167 C
HETATM   16  O3  UNL     1      72.146  -4.048  43.168  1.00  0.00    -0.223 OA
HETATM   17  O4  UNL     1      74.564  -4.256  43.719  1.00  0.00    -0.223 OA
ENDBRANCH  10  14
ENDBRANCH   3   7
BRANCH   4  18
HETATM   18  C15 UNL     1      71.801  -9.402  48.786  1.00  0.00     0.128 C
HETATM   19  C16 UNL     1      71.725 -10.443  47.732  1.00  0.00     0.091 C
HETATM   20  O5  UNL     1      72.604  -9.533  49.686  1.00  0.00    -0.298 OA
ENDBRANCH   4  18
BRANCH   1  21
HETATM   21  C4  UNL     1      68.757  -5.759  51.899  1.00  0.00     0.007 C
HETATM   22  C5  UNL     1      69.644  -4.714  52.485  1.00  0.00     0.011 C
BRANCH  21  23
HETATM   23  C3  UNL     1      68.378  -6.753  52.974  1.00  0.00     0.116 C
BRANCH  23  24
HETATM   24  C2  UNL     1      66.900  -6.927  53.027  1.00  0.00     0.258 C
HETATM   25  O2  UNL     1      66.159  -5.993  53.445  1.00  0.00    -0.265 OA
BRANCH  24  26
HETATM   26  O1  UNL     1      66.332  -8.107  52.620  1.00  0.00    -0.326 OA
HETATM   27  C1  UNL     1      66.864  -9.353  53.010  1.00  0.00     0.213 C
ENDBRANCH  24  26
ENDBRANCH  23  24
ENDBRANCH  21  23
ENDBRANCH   1  21
BRANCH   6  28
HETATM   28  O6  UNL     1      70.555  -8.260  51.708  1.00  0.00    -0.394 OA
ATOM     29  H6  UNL     1      71.300  -8.626  51.245  1.00  0.00     0.210 HD
ENDBRANCH   6  28
TORSDOF 8
ENDMDL