MODEL 3
REMARK VINA RESULT: -7.416746483      3.507      5.794
REMARK  7 active torsions:
REMARK  status: ('A' for Active; 'I' for Inactive)
REMARK    1  A    between atoms: C2_2  and  C4_4
REMARK    2  A    between atoms: C4_4  and  N1_5
REMARK    3  A    between atoms: N2_10  and  C8_12
REMARK    4  A    between atoms: N3_15  and  C11_16
REMARK    5  A    between atoms: C11_16  and  C12_17
REMARK    6  A    between atoms: C12_17  and  C13_18
REMARK    7  A    between atoms: C13_18  and  N4_19
ROOT
HETATM    1  N1  UNL     1      69.664  -7.412  51.672  1.00  0.00    -0.343 N
HETATM    2  C5  UNL     1      69.380  -6.479  50.717  1.00  0.00     0.112 A
HETATM    3  C6  UNL     1      70.393  -6.442  49.788  1.00  0.00     0.043 A
HETATM    4  S1  UNL     1      70.773  -5.587  48.355  1.00  0.00    -0.052 SA
HETATM    5  C7  UNL     1      72.250  -6.047  47.663  1.00  0.00     0.150 A
HETATM    6  N2  UNL     1      72.752  -5.526  46.569  1.00  0.00    -0.366 N
ATOM      7  H2  UNL     1      73.648  -5.843  46.197  1.00  0.00     0.162 HD
HETATM    8  N3  UNL     1      72.916  -7.029  48.349  1.00  0.00    -0.290 N
HETATM    9  C19 UNL     1      72.498  -7.606  49.459  1.00  0.00     0.264 A
HETATM   10  O1  UNL     1      73.248  -8.502  49.976  1.00  0.00    -0.267 OA
HETATM   11  C20 UNL     1      71.331  -7.362  50.158  1.00  0.00     0.092 A
HETATM   12  C21 UNL     1      70.842  -7.946  51.337  1.00  0.00     0.135 A
HETATM   13  N6  UNL     1      71.487  -8.962  52.120  1.00  0.00    -0.081 NA
ENDROOT
BRANCH   8  14
HETATM   14  C11 UNL     1      74.209  -7.391  47.738  1.00  0.00     0.163 C
BRANCH  14  15
HETATM   15  C12 UNL     1      74.128  -8.285  46.572  1.00  0.00     0.010 C
BRANCH  15  16
HETATM   16  C13 UNL     1      74.800  -9.584  46.541  1.00  0.00     0.088 C
BRANCH  16  17
HETATM   17  N4  UNL     1      74.223 -10.709  47.115  1.00  0.00    -0.367 N
HETATM   18  C14 UNL     1      74.922 -11.419  48.097  1.00  0.00     0.082 C
HETATM   19  C15 UNL     1      74.242 -12.730  48.411  1.00  0.00     0.161 C
HETATM   20  N5  UNL     1      72.937 -12.470  48.920  1.00  0.00    -0.411 N
HETATM   21  C16 UNL     1      72.825 -12.503  50.345  1.00  0.00     0.143 C
HETATM   22  C17 UNL     1      72.234 -11.385  48.333  1.00  0.00     0.137 C
HETATM   23  C18 UNL     1      72.821 -10.884  47.037  1.00  0.00     0.146 C
ENDBRANCH  16  17
ENDBRANCH  15  16
ENDBRANCH  14  15
ENDBRANCH   8  14
BRANCH   6  24
HETATM   24  C8  UNL     1      71.985  -4.479  45.902  1.00  0.00     0.075 C
HETATM   25  C9  UNL     1      72.430  -3.112  46.301  1.00  0.00     0.032 C
HETATM   26  C10 UNL     1      72.036  -4.618  44.415  1.00  0.00     0.032 C
ENDBRANCH   6  24
BRANCH   1  27
HETATM   27  C4  UNL     1      68.796  -7.713  52.782  1.00  0.00     0.133 C
BRANCH  27  28
HETATM   28  C2  UNL     1      67.373  -7.904  52.409  1.00  0.00    -0.004 C
HETATM   29  C1  UNL     1      66.558  -6.805  53.112  1.00  0.00     0.011 C
HETATM   30  C3  UNL     1      66.813  -9.209  52.909  1.00  0.00     0.011 C
ENDBRANCH  27  28
ENDBRANCH   1  27
TORSDOF 7
ENDMDL