MODEL 5
REMARK VINA RESULT: -7.327006507      3.702      6.491
REMARK  8 active torsions:
REMARK  status: ('A' for Active; 'I' for Inactive)
REMARK    1  A    between atoms: C2_2  and  O1_3
REMARK    2  A    between atoms: O1_3  and  C3_4
REMARK    3  A    between atoms: C3_4  and  C4_6
REMARK    4  A    between atoms: C6_9  and  N1_10
REMARK    5  A    between atoms: N1_10  and  S2_12
REMARK    6  A    between atoms: S2_12  and  C7_15
REMARK    7  A    between atoms: C9_17  and  N2_18
REMARK    8  A    between atoms: C10_21  and  O7_22
ROOT
HETATM    1  S2  UNL     1      71.344  -6.443  48.693  1.00  0.00     0.265 S
HETATM    2  O3  UNL     1      71.670  -7.899  48.387  1.00  0.00    -0.200 OA
HETATM    3  O4  UNL     1      72.598  -5.686  48.951  1.00  0.00    -0.200 OA
ENDROOT
BRANCH   1   4
HETATM    4  N1  UNL     1      70.583  -5.783  47.321  1.00  0.00    -0.260 N
ATOM      5  H1  UNL     1      69.735  -6.207  46.943  1.00  0.00     0.181 HD
BRANCH   4   6
HETATM    6  C6  UNL     1      71.110  -4.717  46.759  1.00  0.00     0.158 A
HETATM    7  S1  UNL     1      72.246  -4.620  45.490  1.00  0.00    -0.063 SA
HETATM    8  C5  UNL     1      72.369  -2.924  45.394  1.00  0.00     0.089 A
HETATM    9  C4  UNL     1      71.496  -2.513  46.379  1.00  0.00     0.117 A
HETATM   10  N3  UNL     1      70.876  -3.439  47.050  1.00  0.00    -0.331 N
ATOM     11  H3  UNL     1      70.219  -3.189  47.789  1.00  0.00     0.168 HD
BRANCH   9  12
HETATM   12  C3  UNL     1      71.317  -1.047  46.612  1.00  0.00     0.310 C
HETATM   13  O2  UNL     1      72.325  -0.302  46.620  1.00  0.00    -0.258 OA
BRANCH  12  14
HETATM   14  O1  UNL     1      70.097  -0.475  46.821  1.00  0.00    -0.317 OA
BRANCH  14  15
HETATM   15  C2  UNL     1      69.971   0.587  47.745  1.00  0.00     0.175 C
HETATM   16  C1  UNL     1      68.526   1.070  47.658  1.00  0.00     0.034 C
ENDBRANCH  14  15
ENDBRANCH  12  14
ENDBRANCH   9  12
ENDBRANCH   4   6
ENDBRANCH   1   4
BRANCH   1  17
HETATM   17  C7  UNL     1      70.289  -6.484  50.083  1.00  0.00     0.088 A
HETATM   18  C8  UNL     1      69.624  -7.608  50.464  1.00  0.00     0.064 A
HETATM   19  C9  UNL     1      68.786  -7.600  51.587  1.00  0.00     0.138 A
HETATM   20  C10 UNL     1      68.615  -6.454  52.333  1.00  0.00     0.107 A
HETATM   21  C12 UNL     1      69.288  -5.314  51.946  1.00  0.00    -0.019 A
HETATM   22  C13 UNL     1      69.129  -4.058  52.724  1.00  0.00     0.052 C
HETATM   23  C14 UNL     1      70.121  -5.334  50.822  1.00  0.00    -0.030 A
HETATM   24  C15 UNL     1      70.836  -4.094  50.429  1.00  0.00     0.050 C
BRANCH  19  25
HETATM   25  N2  UNL     1      68.099  -8.780  51.969  1.00  0.00    -0.113 N
HETATM   26  O5  UNL     1      67.141  -9.182  51.283  1.00  0.00    -0.532 OA
HETATM   27  O6  UNL     1      68.446  -9.522  53.080  1.00  0.00    -0.532 OA
ENDBRANCH  19  25
BRANCH  20  28
HETATM   28  O7  UNL     1      67.778  -6.441  53.459  1.00  0.00    -0.353 OA
HETATM   29  C11 UNL     1      66.360  -6.439  53.248  1.00  0.00     0.210 C
ENDBRANCH  20  28
ENDBRANCH   1  17
TORSDOF 8
ENDMDL