MODEL 4
REMARK VINA RESULT: -6.922208674      1.902      2.596
REMARK  8 active torsions:
REMARK  status: ('A' for Active; 'I' for Inactive)
REMARK    1  A    between atoms: C2_2  and  O1_3
REMARK    2  A    between atoms: O1_3  and  C3_4
REMARK    3  A    between atoms: C3_4  and  C4_6
REMARK    4  A    between atoms: C5_8  and  N1_9
REMARK       I    between atoms: N1_9  and  C6_11
REMARK    5  A    between atoms: C6_11  and  C7_13
REMARK    6  A    between atoms: C9_16  and  S2_17
REMARK    7  A    between atoms: C11_21  and  O7_22
REMARK    8  A    between atoms: C13_26  and  C14_27
ROOT
HETATM    1  N1  UNL     1      73.449  -9.469  49.966  1.00  0.00    -0.303 N
ATOM      2  H1  UNL     1      74.287  -8.912  49.798  1.00  0.00     0.171 HD
HETATM    3  C6  UNL     1      73.438 -10.874  49.775  1.00  0.00     0.262 C
HETATM    4  O3  UNL     1      72.437 -11.580  50.064  1.00  0.00    -0.267 OA
ENDROOT
BRANCH   1   5
HETATM    5  C5  UNL     1      72.320  -8.919  50.374  1.00  0.00     0.152 A
HETATM    6  S1  UNL     1      71.868  -8.662  51.994  1.00  0.00    -0.046 SA
HETATM    7  C4  UNL     1      70.317  -8.000  51.735  1.00  0.00     0.106 A
HETATM    8  C13 UNL     1      70.233  -8.008  50.366  1.00  0.00     0.038 A
HETATM    9  N2  UNL     1      71.269  -8.483  49.695  1.00  0.00    -0.338 N
ATOM     10  H2  UNL     1      71.260  -8.512  48.676  1.00  0.00     0.168 HD
BRANCH   7  11
HETATM   11  C3  UNL     1      69.265  -7.695  52.723  1.00  0.00     0.302 C
HETATM   12  O2  UNL     1      68.741  -8.698  53.290  1.00  0.00    -0.259 OA
BRANCH  11  13
HETATM   13  O1  UNL     1      68.832  -6.453  53.043  1.00  0.00    -0.317 OA
BRANCH  13  14
HETATM   14  C2  UNL     1      69.640  -5.331  52.930  1.00  0.00     0.174 C
HETATM   15  C1  UNL     1      69.016  -4.004  53.198  1.00  0.00     0.034 C
ENDBRANCH  13  14
ENDBRANCH  11  13
ENDBRANCH   7  11
BRANCH   8  16
HETATM   16  C14 UNL     1      69.066  -7.359  49.686  1.00  0.00     0.029 C
HETATM   17  C15 UNL     1      68.725  -8.018  48.356  1.00  0.00     0.016 C
HETATM   18  C16 UNL     1      69.559  -5.949  49.195  1.00  0.00     0.016 C
ENDBRANCH   8  16
ENDBRANCH   1   5
BRANCH   3  19
HETATM   19  C7  UNL     1      74.599 -11.562  49.222  1.00  0.00     0.091 A
HETATM   20  C8  UNL     1      75.929 -11.452  49.653  1.00  0.00     0.163 A
HETATM   21  O4  UNL     1      76.662 -12.229  48.918  1.00  0.00    -0.308 OA
HETATM   22  C9  UNL     1      75.947 -12.854  48.026  1.00  0.00     0.203 A
HETATM   23  C11 UNL     1      74.638 -12.463  48.186  1.00  0.00     0.131 A
BRANCH  22  24
HETATM   24  S2  UNL     1      76.522 -13.992  46.827  1.00  0.00     0.196 S
HETATM   25  C10 UNL     1      78.301 -13.965  46.834  1.00  0.00     0.169 C
HETATM   26  O5  UNL     1      76.013 -13.678  45.455  1.00  0.00    -0.221 OA
HETATM   27  O6  UNL     1      76.043 -15.376  47.161  1.00  0.00    -0.221 OA
ENDBRANCH  22  24
BRANCH  23  28
HETATM   28  O7  UNL     1      73.545 -12.893  47.444  1.00  0.00    -0.351 OA
HETATM   29  C12 UNL     1      72.803 -12.057  46.572  1.00  0.00     0.210 C
ENDBRANCH  23  28
ENDBRANCH   3  19
TORSDOF 8
ENDMDL