MODEL 4
REMARK VINA RESULT: -8.012872810      4.425      7.575
REMARK  6 active torsions:
REMARK  status: ('A' for Active; 'I' for Inactive)
REMARK    1  A    between atoms: C5_6  and  N1_7
REMARK    2  A    between atoms: N1_7  and  C6_8
REMARK    3  A    between atoms: C6_8  and  C7_9
REMARK    4  A    between atoms: C7_9  and  C8_10
REMARK    5  A    between atoms: C8_10  and  O2_13
REMARK    6  A    between atoms: C19_28  and  S1_29
ROOT
HETATM    1  C1  UNL     1      74.027  -0.855  49.357  1.00  0.00     0.210 C
HETATM    2  O1  UNL     1      73.251  -1.534  49.983  1.00  0.00    -0.354 OA
HETATM    3  C2  UNL     1      72.380  -2.304  50.672  1.00  0.00     0.090 A
HETATM    4  C3  UNL     1      71.850  -3.424  50.027  1.00  0.00     0.055 A
HETATM    5  C4  UNL     1      70.969  -4.220  50.709  1.00  0.00     0.036 A
HETATM    6  C5  UNL     1      70.484  -5.341  49.996  1.00  0.00     0.147 A
HETATM    7  C11 UNL     1      69.582  -6.164  50.713  1.00  0.00     0.101 A
HETATM    8  N3  UNL     1      69.118  -7.242  50.038  1.00  0.00    -0.360 N
ATOM      9  H3  UNL     1      69.409  -7.429  49.079  1.00  0.00     0.165 HD
HETATM   10  C12 UNL     1      68.250  -8.068  50.682  1.00  0.00     0.111 A
HETATM   11  C13 UNL     1      67.856  -7.812  51.989  1.00  0.00     0.062 A
HETATM   12  C14 UNL     1      66.934  -8.696  52.670  1.00  0.00     0.101 C
HETATM   13  N4  UNL     1      66.213  -9.411  53.220  1.00  0.00    -0.191 NA
HETATM   14  C15 UNL     1      68.333  -6.708  52.676  1.00  0.00     0.056 A
HETATM   15  C16 UNL     1      69.226  -5.867  52.000  1.00  0.00     0.064 A
HETATM   16  N5  UNL     1      69.737  -4.782  52.595  1.00  0.00    -0.353 N
ATOM     17  H5  UNL     1      69.456  -4.584  53.555  1.00  0.00     0.166 HD
HETATM   18  C17 UNL     1      70.593  -3.947  52.005  1.00  0.00     0.048 A
HETATM   19  C18 UNL     1      71.117  -2.836  52.646  1.00  0.00     0.056 A
HETATM   20  C19 UNL     1      71.996  -2.039  51.974  1.00  0.00     0.094 A
ENDROOT
BRANCH  20  21
HETATM   21  S1  UNL     1      72.688  -0.631  52.727  1.00  0.00     0.174 S
HETATM   22  C20 UNL     1      72.124   0.850  51.938  1.00  0.00     0.167 C
HETATM   23  O3  UNL     1      72.239  -0.587  54.160  1.00  0.00    -0.223 OA
HETATM   24  O4  UNL     1      74.195  -0.717  52.740  1.00  0.00    -0.223 OA
ENDBRANCH  20  21
BRANCH   6  25
HETATM   25  N1  UNL     1      70.829  -5.539  48.887  1.00  0.00    -0.419 NA
BRANCH  25  26
HETATM   26  C6  UNL     1      71.225  -5.763  47.627  1.00  0.00     0.159 C
BRANCH  26  27
HETATM   27  C7  UNL     1      70.476  -4.980  46.537  1.00  0.00     0.106 C
BRANCH  27  28
HETATM   28  C8  UNL     1      71.479  -4.021  45.935  1.00  0.00     0.232 C
HETATM   29  C9  UNL     1      71.020  -2.658  46.302  1.00  0.00     0.091 C
HETATM   30  N2  UNL     1      70.683  -1.591  46.591  1.00  0.00    -0.195 NA
BRANCH  28  31
HETATM   31  O2  UNL     1      71.495  -4.178  44.550  1.00  0.00    -0.376 OA
HETATM   32  C10 UNL     1      72.790  -3.995  44.106  1.00  0.00     0.203 C
ENDBRANCH  28  31
ENDBRANCH  27  28
ENDBRANCH  26  27
ENDBRANCH  25  26
ENDBRANCH   6  25
TORSDOF 6
ENDMDL