MODEL 3
REMARK VINA RESULT: -8.670174887      2.399      3.916
REMARK  7 active torsions:
REMARK  status: ('A' for Active; 'I' for Inactive)
REMARK    1  A    between atoms: C2_2  and  O2_4
REMARK    2  A    between atoms: O2_4  and  C3_5
REMARK    3  A    between atoms: C4_7  and  C5_8
REMARK    4  A    between atoms: C5_8  and  C6_9
REMARK    5  A    between atoms: C11_17  and  O7_18
REMARK    6  A    between atoms: O7_18  and  C12_19
REMARK    7  A    between atoms: C12_19  and  C13_20
ROOT
HETATM    1  C3  UNL     1      70.344  -6.210  50.368  1.00  0.00     0.299 C
HETATM    2  O3  UNL     1      69.022  -5.897  50.639  1.00  0.00    -0.352 OA
HETATM    3  C4  UNL     1      68.741  -5.786  51.981  1.00  0.00     0.135 C
HETATM    4  C7  UNL     1      69.747  -5.143  52.827  1.00  0.00     0.040 C
HETATM    5  C8  UNL     1      71.094  -4.907  52.279  1.00  0.00     0.033 C
HETATM    6  C9  UNL     1      71.536  -3.457  52.337  1.00  0.00     0.072 C
HETATM    7  C10 UNL     1      71.248  -2.755  53.591  1.00  0.00     0.183 C
HETATM    8  O6  UNL     1      70.537  -1.580  53.249  1.00  0.00    -0.338 OA
HETATM    9  C11 UNL     1      71.280  -0.999  52.195  1.00  0.00     0.415 C
HETATM   10  O8  UNL     1      70.983  -1.645  50.973  1.00  0.00    -0.308 OA
HETATM   11  C20 UNL     1      70.608  -2.929  51.231  1.00  0.00     0.272 C
HETATM   12  O9  UNL     1      70.792  -3.837  50.226  1.00  0.00    -0.350 OA
HETATM   13  C21 UNL     1      71.175  -5.044  50.756  1.00  0.00     0.185 C
ENDROOT
BRANCH   9  14
HETATM   14  O7  UNL     1      71.076   0.356  52.117  1.00  0.00    -0.335 OA
BRANCH  14  15
HETATM   15  C12 UNL     1      71.570   0.823  50.910  1.00  0.00     0.201 C
BRANCH  15  16
HETATM   16  C13 UNL     1      70.852   2.035  50.438  1.00  0.00     0.002 C
HETATM   17  C14 UNL     1      70.111   1.972  49.344  1.00  0.00    -0.082 C
HETATM   18  C15 UNL     1      69.378   3.163  48.840  1.00  0.00     0.034 C
HETATM   19  C19 UNL     1      69.990   0.704  48.584  1.00  0.00     0.034 C
HETATM   20  C16 UNL     1      67.910   2.797  48.696  1.00  0.00     0.004 C
HETATM   21  C17 UNL     1      67.757   1.514  47.938  1.00  0.00     0.001 C
HETATM   22  C18 UNL     1      69.060   0.965  47.420  1.00  0.00     0.004 C
ENDBRANCH  15  16
ENDBRANCH  14  15
ENDBRANCH   9  14
BRANCH   1  23
HETATM   23  O2  UNL     1      70.494  -6.608  49.044  1.00  0.00    -0.287 OA
BRANCH  23  24
HETATM   24  C2  UNL     1      69.402  -6.777  48.218  1.00  0.00     0.257 C
HETATM   25  C1  UNL     1      68.697  -8.093  48.213  1.00  0.00     0.126 C
HETATM   26  O1  UNL     1      69.050  -5.807  47.501  1.00  0.00    -0.266 OA
ENDBRANCH  23  24
ENDBRANCH   1  23
BRANCH   3  27
HETATM   27  C5  UNL     1      68.415  -7.191  52.485  1.00  0.00     0.145 C
BRANCH  27  28
HETATM   28  C6  UNL     1      67.037  -7.310  52.946  1.00  0.00     0.175 C
HETATM   29  O4  UNL     1      66.393  -6.296  53.289  1.00  0.00    -0.648 OA
HETATM   30  O5  UNL     1      66.429  -8.546  53.010  1.00  0.00    -0.648 OA
ENDBRANCH  27  28
ENDBRANCH   3  27
TORSDOF 7
ENDMDL