MODEL 5
REMARK VINA RESULT: -7.369592572      4.282      6.007
REMARK  6 active torsions:
REMARK  status: ('A' for Active; 'I' for Inactive)
REMARK    1  A    between atoms: O1_2  and  C2_3
REMARK    2  A    between atoms: C2_3  and  O2_4
REMARK    3  A    between atoms: O2_4  and  N1_5
REMARK    4  A    between atoms: N2_11  and  N3_12
REMARK    5  A    between atoms: N3_12  and  S3_14
REMARK    6  A    between atoms: S3_14  and  C4_17
ROOT
HETATM    1  N3  UNL     1      70.884  -6.514  48.255  1.00  0.00    -0.212 N
ATOM      2  H3  UNL     1      70.308  -7.313  47.989  1.00  0.00     0.201 HD
ENDROOT
BRANCH   1   3
HETATM    3  N2  UNL     1      71.730  -5.881  47.331  1.00  0.00    -0.191 N
HETATM    4  C3  UNL     1      73.113  -6.153  47.203  1.00  0.00     0.169 C
HETATM    5  S1  UNL     1      73.776  -4.857  46.167  1.00  0.00    -0.018 SA
HETATM    6  S2  UNL     1      73.978  -7.359  47.843  1.00  0.00    -0.050 SA
HETATM    7  C2  UNL     1      72.273  -3.788  46.237  1.00  0.00     0.337 C
HETATM    8  C13 UNL     1      71.268  -4.874  46.441  1.00  0.00     0.322 C
HETATM    9  O7  UNL     1      70.163  -4.814  45.847  1.00  0.00    -0.264 OA
BRANCH   7  10
HETATM   10  O1  UNL     1      72.420  -2.978  47.323  1.00  0.00    -0.342 OA
HETATM   11  C1  UNL     1      71.499  -1.935  47.372  1.00  0.00     0.207 C
ENDBRANCH   7  10
BRANCH   7  12
HETATM   12  O2  UNL     1      72.133  -3.175  45.001  1.00  0.00    -0.158 OA
BRANCH  12  13
HETATM   13  N1  UNL     1      72.720  -3.753  43.904  1.00  0.00     0.009 N
HETATM   14  O3  UNL     1      73.791  -3.367  43.407  1.00  0.00    -0.511 OA
HETATM   15  O4  UNL     1      72.093  -4.826  43.312  1.00  0.00    -0.511 OA
ENDBRANCH  12  13
ENDBRANCH   7  12
ENDBRANCH   1   3
BRANCH   1  16
HETATM   16  S3  UNL     1      70.859  -5.899  49.820  1.00  0.00     0.277 S
HETATM   17  O5  UNL     1      72.160  -6.108  50.587  1.00  0.00    -0.199 OA
HETATM   18  O6  UNL     1      70.522  -4.408  49.898  1.00  0.00    -0.199 OA
BRANCH  16  19
HETATM   19  C4  UNL     1      69.612  -6.716  50.773  1.00  0.00     0.092 A
HETATM   20  C5  UNL     1      68.822  -7.721  50.270  1.00  0.00    -0.038 A
HETATM   21  C6  UNL     1      68.976  -8.192  48.869  1.00  0.00     0.050 C
HETATM   22  C7  UNL     1      67.861  -8.295  51.107  1.00  0.00     0.015 A
HETATM   23  C8  UNL     1      67.679  -7.896  52.399  1.00  0.00    -0.061 A
HETATM   24  C9  UNL     1      66.629  -8.542  53.259  1.00  0.00     0.048 C
HETATM   25  C10 UNL     1      68.481  -6.889  52.884  1.00  0.00     0.015 A
HETATM   26  C11 UNL     1      69.443  -6.296  52.089  1.00  0.00    -0.038 A
HETATM   27  C12 UNL     1      70.275  -5.234  52.697  1.00  0.00     0.050 C
ENDBRANCH  16  19
ENDBRANCH   1  16
TORSDOF 6
ENDMDL