MODEL 3
REMARK VINA RESULT: -8.256665088      1.409      3.600
REMARK  4 active torsions:
REMARK  status: ('A' for Active; 'I' for Inactive)
REMARK    1  A    between atoms: C2_2  and  S1_4
REMARK    2  A    between atoms: S1_4  and  C4_5
REMARK    3  A    between atoms: C6_7  and  C7_8
REMARK    4  A    between atoms: N4_24  and  C15_25
ROOT
HETATM    1  C4  UNL     1      43.088  37.672  54.292  1.00  0.00     0.073 A
HETATM    2  C5  UNL     1      43.333  38.433  55.416  1.00  0.00     0.051 A
HETATM    3  C6  UNL     1      44.684  38.522  55.594  1.00  0.00    -0.005 A
HETATM    4  C14 UNL     1      45.274  37.814  54.580  1.00  0.00     0.104 A
HETATM    5  N4  UNL     1      44.294  37.316  53.815  1.00  0.00    -0.344 N
ENDROOT
BRANCH   3   6
HETATM    6  C7  UNL     1      45.406  39.232  56.656  1.00  0.00     0.015 A
HETATM    7  C8  UNL     1      46.074  38.491  57.602  1.00  0.00     0.018 A
HETATM    8  C9  UNL     1      46.785  39.055  58.637  1.00  0.00     0.033 A
HETATM    9  C10 UNL     1      46.799  40.448  58.687  1.00  0.00     0.065 A
HETATM   10  N1  UNL     1      47.384  41.298  59.545  1.00  0.00    -0.298 N
HETATM   11  C12 UNL     1      46.143  41.207  57.758  1.00  0.00     0.076 A
HETATM   12  N2  UNL     1      47.113  42.530  59.180  1.00  0.00    -0.285 N
ATOM     13  H1  UNL     1      47.950  41.030  60.351  1.00  0.00     0.187 HD
HETATM   14  C11 UNL     1      46.338  42.539  58.064  1.00  0.00     0.129 A
ATOM     15  H2  UNL     1      47.439  43.365  59.667  1.00  0.00     0.188 HD
HETATM   16  N3  UNL     1      45.917  43.603  57.480  1.00  0.00    -0.384 N
ATOM     17  H32 UNL     1      46.061  44.587  57.706  1.00  0.00     0.157 HD
ATOM     18  H31 UNL     1      45.335  43.609  56.642  1.00  0.00     0.157 HD
HETATM   19  C13 UNL     1      45.440  40.607  56.733  1.00  0.00     0.143 A
HETATM   20  F1  UNL     1      44.786  41.352  55.809  1.00  0.00    -0.204 F
ENDBRANCH   3   6
BRANCH   1  21
HETATM   21  S1  UNL     1      41.558  37.198  53.534  1.00  0.00    -0.108 SA
BRANCH  21  22
HETATM   22  C2  UNL     1      41.098  35.508  53.867  1.00  0.00     0.045 C
HETATM   23  C1  UNL     1      39.619  35.282  53.638  1.00  0.00     0.021 C
HETATM   24  C3  UNL     1      41.569  35.029  55.207  1.00  0.00     0.021 C
ENDBRANCH  21  22
ENDBRANCH   1  21
BRANCH   5  25
HETATM   25  C15 UNL     1      44.522  36.492  52.614  1.00  0.00     0.107 C
HETATM   26  C16 UNL     1      44.641  35.067  52.988  1.00  0.00     0.029 C
HETATM   27  C17 UNL     1      45.964  34.430  52.747  1.00  0.00     0.021 C
HETATM   28  C18 UNL     1      46.386  34.842  51.329  1.00  0.00     0.114 C
HETATM   29  N5  UNL     1      46.676  36.236  51.414  1.00  0.00    -0.419 N
HETATM   30  C19 UNL     1      45.608  37.081  51.809  1.00  0.00     0.139 C
ATOM     31  H5  UNL     1      47.603  36.606  51.201  1.00  0.00     0.153 HD
ENDBRANCH   5  25
TORSDOF 4
ENDMDL