MODEL 1
REMARK VINA RESULT: -8.177742875      0.000      0.000
REMARK  5 active torsions:
REMARK  status: ('A' for Active; 'I' for Inactive)
REMARK    1  A    between atoms: C3_7  and  C4_8
REMARK    2  A    between atoms: C7_11  and  N3_12
REMARK       I    between atoms: N3_12  and  C8_14
REMARK       I    between atoms: C8_14  and  N4_16
REMARK    3  A    between atoms: N4_16  and  C9_18
REMARK    4  A    between atoms: C10_21  and  S1_22
REMARK    5  A    between atoms: S1_22  and  C11_23
ROOT
HETATM    1  N3  UNL     1      46.154  38.971  56.066  1.00  0.00    -0.305 N
ATOM      2  H3  UNL     1      47.069  38.674  55.726  1.00  0.00     0.171 HD
HETATM    3  C8  UNL     1      45.021  38.195  55.708  1.00  0.00     0.326 C
HETATM    4  O1  UNL     1      43.851  38.493  56.090  1.00  0.00    -0.247 OA
HETATM    5  N4  UNL     1      45.227  37.048  54.891  1.00  0.00    -0.293 N
ATOM      6  H4  UNL     1      46.183  36.783  54.654  1.00  0.00     0.172 HD
ENDROOT
BRANCH   5   7
HETATM    7  C9  UNL     1      44.261  36.328  54.438  1.00  0.00     0.136 A
HETATM    8  N5  UNL     1      43.075  36.165  55.021  1.00  0.00    -0.321 N
HETATM    9  C10 UNL     1      42.090  35.408  54.522  1.00  0.00     0.147 A
ATOM     10  H5  UNL     1      42.906  36.646  55.904  1.00  0.00     0.169 HD
HETATM   11  N6  UNL     1      42.301  34.777  53.367  1.00  0.00    -0.324 N
HETATM   12  C14 UNL     1      43.494  34.899  52.713  1.00  0.00     0.143 A
ATOM     13  H6  UNL     1      41.564  34.196  52.967  1.00  0.00     0.169 HD
HETATM   14  N7  UNL     1      43.742  34.241  51.490  1.00  0.00    -0.081 NA
HETATM   15  C15 UNL     1      44.500  35.678  53.234  1.00  0.00     0.119 A
HETATM   16 CL1  UNL     1      46.026  35.833  52.395  1.00  0.00    -0.077 Cl
BRANCH   9  17
HETATM   17  S1  UNL     1      40.550  35.261  55.386  1.00  0.00    -0.090 SA
BRANCH  17  18
HETATM   18  C11 UNL     1      39.454  36.657  55.136  1.00  0.00     0.047 C
HETATM   19  C12 UNL     1      40.013  37.945  55.690  1.00  0.00     0.021 C
HETATM   20  C13 UNL     1      39.029  36.747  53.707  1.00  0.00     0.021 C
ENDBRANCH  17  18
ENDBRANCH   9  17
ENDBRANCH   5   7
BRANCH   1  21
HETATM   21  C7  UNL     1      46.081  40.142  56.875  1.00  0.00     0.084 A
HETATM   22  C2  UNL     1      45.464  41.319  56.428  1.00  0.00     0.050 A
HETATM   23  C1  UNL     1      44.836  41.521  55.097  1.00  0.00     0.072 C
HETATM   24  N1  UNL     1      45.572  42.182  57.450  1.00  0.00    -0.303 N
HETATM   25  N2  UNL     1      46.200  41.618  58.466  1.00  0.00    -0.302 N
ATOM     26  H1  UNL     1      45.218  43.139  57.443  1.00  0.00     0.186 HD
HETATM   27  C3  UNL     1      46.542  40.332  58.153  1.00  0.00     0.058 A
ATOM     28  H2  UNL     1      46.402  42.076  59.356  1.00  0.00     0.186 HD
BRANCH  27  29
HETATM   29  C4  UNL     1      47.249  39.356  59.009  1.00  0.00     0.031 C
HETATM   30  C5  UNL     1      47.849  40.031  60.234  1.00  0.00     0.016 C
HETATM   31  C6  UNL     1      48.293  38.547  58.274  1.00  0.00     0.016 C
ENDBRANCH  27  29
ENDBRANCH   1  21
TORSDOF 5
ENDMDL