MODEL 5
REMARK VINA RESULT: -7.242701173      3.929     10.332
REMARK  7 active torsions:
REMARK  status: ('A' for Active; 'I' for Inactive)
REMARK    1  A    between atoms: O1_1  and  C1_3
REMARK    2  A    between atoms: C3_5  and  C4_6
REMARK    3  A    between atoms: N1_7  and  N2_9
REMARK    4  A    between atoms: N2_9  and  C5_11
REMARK    5  A    between atoms: C5_11  and  N3_13
REMARK    6  A    between atoms: N3_13  and  C6_15
REMARK    7  A    between atoms: C12_22  and  C13_23
ROOT
HETATM    1  C1  UNL     1      46.146  39.185  57.712  1.00  0.00     0.087 A
HETATM    2  C2  UNL     1      46.408  40.353  58.317  1.00  0.00     0.058 A
HETATM    3  C3  UNL     1      46.136  41.499  57.614  1.00  0.00     0.025 A
HETATM    4  S2  UNL     1      45.528  40.911  56.140  1.00  0.00    -0.082 SA
HETATM    5  C12 UNL     1      45.630  39.234  56.445  1.00  0.00     0.083 A
ENDROOT
BRANCH   3   6
HETATM    6  C4  UNL     1      46.337  42.895  58.061  1.00  0.00     0.126 C
HETATM    7  N1  UNL     1      46.809  43.146  59.216  1.00  0.00    -0.308 N
ATOM      8  H1  UNL     1      47.044  42.360  59.822  1.00  0.00     0.186 HD
BRANCH   7   9
HETATM    9  N2  UNL     1      47.021  44.431  59.693  1.00  0.00    -0.277 N
ATOM     10  H2  UNL     1      47.774  44.991  59.292  1.00  0.00     0.189 HD
BRANCH   9  11
HETATM   11  C5  UNL     1      46.208  44.998  60.739  1.00  0.00     0.186 C
HETATM   12  S1  UNL     1      44.659  45.358  60.321  1.00  0.00    -0.040 SA
BRANCH  11  13
HETATM   13  N3  UNL     1      46.739  45.223  62.023  1.00  0.00    -0.361 N
ATOM     14  H3  UNL     1      46.448  44.570  62.752  1.00  0.00     0.162 HD
BRANCH  13  15
HETATM   15  C6  UNL     1      47.642  46.263  62.428  1.00  0.00     0.083 C
HETATM   16  C7  UNL     1      47.170  47.580  61.905  1.00  0.00     0.025 C
HETATM   17  C8  UNL     1      48.214  48.678  61.987  1.00  0.00     0.002 C
HETATM   18  C9  UNL     1      49.403  48.220  61.170  1.00  0.00     0.000 C
HETATM   19  C10 UNL     1      49.995  47.053  61.955  1.00  0.00     0.002 C
HETATM   20  C11 UNL     1      49.054  45.899  62.040  1.00  0.00     0.025 C
ENDBRANCH  13  15
ENDBRANCH  11  13
ENDBRANCH   9  11
ENDBRANCH   7   9
ENDBRANCH   3   6
BRANCH   1  21
HETATM   21  O1  UNL     1      46.385  37.929  58.340  1.00  0.00    -0.359 OA
ATOM     22  H1  UNL     1      45.716  37.258  58.408  1.00  0.00     0.217 HD
ENDBRANCH   1  21
BRANCH   5  23
HETATM   23  C13 UNL     1      45.252  38.111  55.554  1.00  0.00     0.126 A
HETATM   24  N4  UNL     1      44.758  36.954  56.026  1.00  0.00    -0.331 N
HETATM   25  C14 UNL     1      44.514  36.138  54.985  1.00  0.00     0.120 A
ATOM     26  H4  UNL     1      44.595  36.732  57.009  1.00  0.00     0.168 HD
HETATM   27 CL1  UNL     1      43.860  34.501  55.033  1.00  0.00    -0.063 Cl
HETATM   28  C15 UNL     1      44.879  36.843  53.863  1.00  0.00     0.132 A
HETATM   29  N5  UNL     1      45.340  38.076  54.244  1.00  0.00    -0.348 N
ATOM     30  H5  UNL     1      45.682  38.818  53.632  1.00  0.00     0.167 HD
ENDBRANCH   5  23
TORSDOF 7
ENDMDL