MODEL 2
REMARK VINA RESULT: -8.213211629      0.511      1.078
REMARK  6 active torsions:
REMARK  status: ('A' for Active; 'I' for Inactive)
REMARK    1  A    between atoms: C4_6  and  C5_7
REMARK    2  A    between atoms: C6_10  and  C7_11
REMARK    3  A    between atoms: C7_11  and  C8_12
REMARK    4  A    between atoms: C8_12  and  C9_14
REMARK    5  A    between atoms: C18_23  and  O1_24
REMARK    6  A    between atoms: C19_26  and  O2_27
ROOT
HETATM    1  C5  UNL     1      41.345  39.625  53.446  1.00  0.00     0.093 A
HETATM    2  N2  UNL     1      42.617  39.708  53.903  1.00  0.00    -0.354 N
ATOM      3  H2  UNL     1      43.194  40.547  53.844  1.00  0.00     0.166 HD
HETATM    4  C6  UNL     1      43.022  38.561  54.440  1.00  0.00     0.038 A
HETATM    5  C15 UNL     1      41.940  37.689  54.319  1.00  0.00     0.061 A
HETATM    6  C16 UNL     1      40.903  38.363  53.698  1.00  0.00     0.004 A
HETATM    7  C17 UNL     1      39.634  37.693  53.441  1.00  0.00     0.079 C
HETATM    8  C18 UNL     1      39.281  36.647  54.455  1.00  0.00     0.171 C
HETATM    9  C19 UNL     1      40.419  35.864  54.977  1.00  0.00     0.247 C
HETATM   10  N3  UNL     1      41.727  36.348  54.686  1.00  0.00    -0.360 N
ATOM     11  H3  UNL     1      42.522  35.712  54.744  1.00  0.00     0.162 HD
ENDROOT
BRANCH   4  12
HETATM   12  C7  UNL     1      44.319  38.198  55.052  1.00  0.00     0.080 C
BRANCH  12  13
HETATM   13  C8  UNL     1      45.208  39.371  55.293  1.00  0.00     0.092 C
HETATM   14 CL1  UNL     1      46.779  39.142  54.500  1.00  0.00    -0.124 Cl
BRANCH  13  15
HETATM   15  C9  UNL     1      45.450  39.651  56.753  1.00  0.00     0.004 C
HETATM   16  C10 UNL     1      46.511  38.798  57.362  1.00  0.00     0.006 C
HETATM   17  C11 UNL     1      46.578  39.146  58.843  1.00  0.00     0.000 C
HETATM   18  C12 UNL     1      47.176  40.535  58.928  1.00  0.00     0.000 C
HETATM   19  C13 UNL     1      46.178  41.486  58.309  1.00  0.00     0.000 C
HETATM   20  C14 UNL     1      45.865  41.101  56.881  1.00  0.00     0.006 C
ENDBRANCH  13  15
ENDBRANCH  12  13
ENDBRANCH   4  12
BRANCH   1  21
HETATM   21  C4  UNL     1      40.608  40.701  52.802  1.00  0.00     0.175 A
HETATM   22  N1  UNL     1      40.681  42.023  53.016  1.00  0.00    -0.342 N
HETATM   23  C3  UNL     1      39.828  42.674  52.210  1.00  0.00     0.122 A
ATOM     24  H1  UNL     1      41.298  42.470  53.694  1.00  0.00     0.167 HD
HETATM   25  C2  UNL     1      39.205  41.695  51.469  1.00  0.00     0.067 A
HETATM   26  C1  UNL     1      38.161  41.954  50.427  1.00  0.00     0.078 C
HETATM   27  O3  UNL     1      39.695  40.544  51.851  1.00  0.00    -0.295 OA
ENDBRANCH   1  21
BRANCH   9  28
HETATM   28  O2  UNL     1      40.307  35.675  56.369  1.00  0.00    -0.374 OA
ATOM     29  H2  UNL     1      41.162  35.669  56.782  1.00  0.00     0.212 HD
ENDBRANCH   9  28
BRANCH   8  30
HETATM   30  O1  UNL     1      38.686  37.320  55.547  1.00  0.00    -0.391 OA
ATOM     31  H1  UNL     1      39.285  37.240  56.280  1.00  0.00     0.210 HD
ENDBRANCH   8  30
TORSDOF 6
ENDMDL