MODEL 2
REMARK VINA RESULT: -6.654190511      2.717      4.758
REMARK  7 active torsions:
REMARK  status: ('A' for Active; 'I' for Inactive)
REMARK    1  A    between atoms: C2_2  and  O1_3
REMARK    2  A    between atoms: O1_3  and  C3_4
REMARK    3  A    between atoms: C3_4  and  C4_5
REMARK    4  A    between atoms: C8_12  and  N3_13
REMARK    5  A    between atoms: C9_16  and  C10_17
REMARK    6  A    between atoms: C12_21  and  N5_22
REMARK    7  A    between atoms: C13_27  and  C14_28
ROOT
HETATM    1  C4  UNL     1      45.911  40.066  56.972  1.00  0.00    -0.030 A
HETATM    2  C5  UNL     1      45.477  41.360  56.805  1.00  0.00     0.036 A
HETATM    3  C6  UNL     1      44.789  41.732  55.648  1.00  0.00     0.031 A
HETATM    4  C7  UNL     1      44.341  43.146  55.511  1.00  0.00     0.070 C
HETATM    5  N1  UNL     1      44.549  40.813  54.689  1.00  0.00    -0.259 N
HETATM    6  N2  UNL     1      43.917  40.918  53.548  1.00  0.00    -0.278 N
ATOM      7  H2  UNL     1      43.497  41.775  53.188  1.00  0.00     0.189 HD
HETATM    8  C8  UNL     1      43.902  39.713  52.909  1.00  0.00     0.127 A
HETATM    9  C9  UNL     1      44.565  38.799  53.692  1.00  0.00     0.051 A
HETATM   10  C17 UNL     1      44.958  39.515  54.803  1.00  0.00     0.072 A
HETATM   11  C18 UNL     1      45.632  39.189  55.955  1.00  0.00     0.042 A
ENDROOT
BRANCH   9  12
HETATM   12  C10 UNL     1      44.745  37.404  53.375  1.00  0.00     0.021 A
HETATM   13  C11 UNL     1      45.963  37.055  52.723  1.00  0.00     0.120 A
HETATM   14  N4  UNL     1      46.277  35.804  52.409  1.00  0.00    -0.201 N
HETATM   15  C12 UNL     1      45.396  34.845  52.730  1.00  0.00     0.675 A
ATOM     16  H4  UNL     1      47.156  35.580  51.942  1.00  0.00     0.183 HD
HETATM   17  N6  UNL     1      44.270  35.153  53.330  1.00  0.00    -0.193 N
HETATM   18  C13 UNL     1      43.865  36.425  53.690  1.00  0.00     0.062 A
ATOM     19  H6  UNL     1      43.637  34.385  53.550  1.00  0.00     0.184 HD
BRANCH  15  20
HETATM   20  N5  UNL     1      45.703  33.614  52.422  1.00  0.00    -0.234 N
ATOM     21  H52 UNL     1      45.386  32.822  52.981  1.00  0.00     0.174 HD
ATOM     22  H51 UNL     1      46.279  33.463  51.594  1.00  0.00     0.174 HD
ENDBRANCH  15  20
BRANCH  18  23
HETATM   23  C14 UNL     1      42.565  36.614  54.309  1.00  0.00     0.073 C
HETATM   24  C15 UNL     1      42.485  37.370  55.591  1.00  0.00     0.039 C
HETATM   25  C16 UNL     1      41.443  37.003  53.353  1.00  0.00     0.039 C
HETATM   26 CL1  UNL     1      42.036  34.924  54.822  1.00  0.00    -0.113 Cl
ENDBRANCH  18  23
ENDBRANCH   9  12
BRANCH   8  27
HETATM   27  N3  UNL     1      43.288  39.548  51.765  1.00  0.00    -0.384 N
ATOM     28  H32 UNL     1      42.457  39.001  51.542  1.00  0.00     0.157 HD
ATOM     29  H31 UNL     1      43.594  40.028  50.918  1.00  0.00     0.157 HD
ENDBRANCH   8  27
BRANCH   1  30
HETATM   30  C3  UNL     1      46.641  39.698  58.203  1.00  0.00     0.206 C
BRANCH  30  31
HETATM   31  O1  UNL     1      46.319  40.559  59.222  1.00  0.00    -0.387 OA
BRANCH  31  32
HETATM   32  C2  UNL     1      47.308  40.638  60.197  1.00  0.00     0.163 C
HETATM   33  C1  UNL     1      48.480  39.753  59.934  1.00  0.00     0.033 C
ENDBRANCH  31  32
ENDBRANCH  30  31
ENDBRANCH   1  30
TORSDOF 7
ENDMDL