MODEL 3
REMARK VINA RESULT: -8.718911321      1.734      2.664
REMARK  4 active torsions:
REMARK  status: ('A' for Active; 'I' for Inactive)
REMARK    1  A    between atoms: C7_7  and  C8_8
REMARK    2  A    between atoms: C8_8  and  N1_9
REMARK    3  A    between atoms: N1_9  and  C9_11
REMARK    4  A    between atoms: C12_18  and  C13_19
ROOT
HETATM    1  C9  UNL     1      45.644  38.824  56.956  1.00  0.00     0.129 A
HETATM    2  N2  UNL     1      46.093  37.977  57.889  1.00  0.00    -0.284 N
ATOM      3  H2  UNL     1      45.994  36.962  57.853  1.00  0.00     0.188 HD
HETATM    4  N3  UNL     1      46.687  38.647  58.872  1.00  0.00    -0.298 N
ATOM      5  H3  UNL     1      47.112  38.231  59.700  1.00  0.00     0.187 HD
HETATM    6  C10 UNL     1      46.636  39.965  58.594  1.00  0.00     0.065 A
HETATM    7  C11 UNL     1      47.079  41.096  59.239  1.00  0.00     0.062 A
HETATM    8  C12 UNL     1      46.884  42.331  58.715  1.00  0.00     0.047 A
HETATM    9  N7  UNL     1      46.232  42.398  57.524  1.00  0.00    -0.364 N
ATOM     10  H7  UNL     1      46.075  43.318  57.114  1.00  0.00     0.165 HD
HETATM   11  C17 UNL     1      45.788  41.335  56.867  1.00  0.00     0.106 A
HETATM   12  C18 UNL     1      45.984  40.084  57.398  1.00  0.00     0.052 A
ENDROOT
BRANCH   1  13
HETATM   13  N1  UNL     1      44.955  38.560  55.745  1.00  0.00    -0.374 N
ATOM     14  H1  UNL     1      45.113  39.114  54.903  1.00  0.00     0.161 HD
BRANCH  13  15
HETATM   15  C8  UNL     1      43.999  37.443  55.774  1.00  0.00     0.126 C
BRANCH  15  16
HETATM   16  C7  UNL     1      44.266  36.457  54.698  1.00  0.00     0.013 C
HETATM   17  C2  UNL     1      43.322  36.382  53.580  1.00  0.00    -0.022 C
HETATM   18  C1  UNL     1      42.620  37.589  53.165  1.00  0.00     0.017 C
HETATM   19  C3  UNL     1      44.110  35.735  52.417  1.00  0.00     0.011 C
HETATM   20  C19 UNL     1      42.439  35.190  53.903  1.00  0.00     0.095 C
HETATM   21  C4  UNL     1      44.319  34.294  52.865  1.00  0.00     0.007 C
HETATM   22  C5  UNL     1      43.599  34.212  54.165  1.00  0.00     0.005 C
HETATM   23  C6  UNL     1      44.341  35.027  55.210  1.00  0.00     0.013 C
HETATM   24 CL1  UNL     1      41.376  35.390  55.261  1.00  0.00    -0.124 Cl
ENDBRANCH  15  16
ENDBRANCH  13  15
ENDBRANCH   1  13
BRANCH   8  25
HETATM   25  C13 UNL     1      47.319  43.579  59.329  1.00  0.00     0.022 A
HETATM   26  C14 UNL     1      46.928  43.908  60.592  1.00  0.00     0.121 A
HETATM   27  N4  UNL     1      47.368  45.086  61.109  1.00  0.00    -0.201 N
HETATM   28  C15 UNL     1      48.163  45.936  60.442  1.00  0.00     0.675 A
ATOM     29  H4  UNL     1      47.077  45.337  62.054  1.00  0.00     0.183 HD
HETATM   30  N5  UNL     1      48.553  47.043  60.979  1.00  0.00    -0.234 N
HETATM   31  N6  UNL     1      48.526  45.572  59.194  1.00  0.00    -0.201 N
ATOM     32  H52 UNL     1      48.278  47.318  61.922  1.00  0.00     0.174 HD
ATOM     33  H51 UNL     1      49.158  47.689  60.471  1.00  0.00     0.174 HD
HETATM   34  C16 UNL     1      48.137  44.438  58.623  1.00  0.00     0.121 A
ATOM     35  H6  UNL     1      49.130  46.200  58.663  1.00  0.00     0.183 HD
ENDBRANCH   8  25
TORSDOF 4
ENDMDL