MODEL 5
REMARK VINA RESULT: -6.901706538      2.777      5.454
REMARK  7 active torsions:
REMARK  status: ('A' for Active; 'I' for Inactive)
REMARK    1  A    between atoms: C2_2  and  N1_4
REMARK    2  A    between atoms: N1_4  and  C4_6
REMARK    3  A    between atoms: C5_7  and  C6_8
REMARK    4  A    between atoms: C7_14  and  N4_15
REMARK    5  A    between atoms: C8_18  and  N5_19
REMARK    6  A    between atoms: N5_19  and  C9_21
REMARK    7  A    between atoms: C9_21  and  C10_22
ROOT
HETATM    1  C4  UNL     1      42.564  38.241  54.946  1.00  0.00     0.060 A
HETATM    2  C5  UNL     1      41.573  38.873  54.229  1.00  0.00     0.068 A
HETATM    3  C8  UNL     1      41.685  40.232  53.949  1.00  0.00     0.116 A
HETATM    4  N6  UNL     1      42.732  40.921  54.363  1.00  0.00    -0.341 N
ATOM      5  H6  UNL     1      42.799  41.917  54.153  1.00  0.00     0.167 HD
HETATM    6  C14 UNL     1      43.699  40.325  55.052  1.00  0.00     0.049 A
HETATM    7  C15 UNL     1      44.770  41.097  55.419  1.00  0.00     0.030 A
HETATM    8  C16 UNL     1      45.845  40.537  56.116  1.00  0.00     0.005 A
HETATM    9  C17 UNL     1      45.847  39.204  56.445  1.00  0.00     0.043 A
HETATM   10  C18 UNL     1      44.744  38.435  56.062  1.00  0.00     0.131 A
HETATM   11  F1  UNL     1      44.820  37.133  56.336  1.00  0.00    -0.205 F
HETATM   12  C19 UNL     1      43.681  38.965  55.384  1.00  0.00     0.057 A
ENDROOT
BRANCH   2  13
HETATM   13  C6  UNL     1      40.404  38.163  53.697  1.00  0.00     0.118 A
HETATM   14  N2  UNL     1      39.246  37.817  54.280  1.00  0.00    -0.237 N
HETATM   15  O1  UNL     1      38.466  37.201  53.444  1.00  0.00    -0.155 OA
ATOM     16  H2  UNL     1      39.010  38.011  55.253  1.00  0.00     0.197 HD
HETATM   17  N3  UNL     1      39.062  37.115  52.294  1.00  0.00    -0.224 N
HETATM   18  C7  UNL     1      40.271  37.694  52.384  1.00  0.00     0.151 A
ATOM     19  H3  UNL     1      38.675  36.678  51.457  1.00  0.00     0.198 HD
BRANCH  18  20
HETATM   20  N4  UNL     1      41.114  37.787  51.424  1.00  0.00    -0.382 N
ATOM     21  H42 UNL     1      41.989  38.310  51.463  1.00  0.00     0.157 HD
ATOM     22  H41 UNL     1      41.058  37.367  50.497  1.00  0.00     0.157 HD
ENDBRANCH  18  20
ENDBRANCH   2  13
BRANCH   1  23
HETATM   23  N1  UNL     1      42.499  36.874  55.309  1.00  0.00    -0.384 N
ATOM     24  H1  UNL     1      42.420  36.689  56.308  1.00  0.00     0.160 HD
BRANCH  23  25
HETATM   25  C2  UNL     1      42.529  35.721  54.473  1.00  0.00     0.073 C
HETATM   26  C1  UNL     1      41.330  34.808  54.845  1.00  0.00     0.031 C
HETATM   27  C3  UNL     1      43.725  34.809  54.624  1.00  0.00     0.031 C
ENDBRANCH  23  25
ENDBRANCH   1  23
BRANCH   3  28
HETATM   28  N5  UNL     1      40.753  40.794  53.284  1.00  0.00    -0.375 N
ATOM     29  H5  UNL     1      39.789  40.485  53.404  1.00  0.00     0.161 HD
BRANCH  28  30
HETATM   30  C9  UNL     1      41.050  41.855  52.373  1.00  0.00     0.129 C
BRANCH  30  31
HETATM   31  C10 UNL     1      40.356  41.688  51.043  1.00  0.00    -0.035 C
HETATM   32  C11 UNL     1      41.217  41.047  50.002  1.00  0.00     0.016 C
HETATM   33  C12 UNL     1      40.009  43.097  50.546  1.00  0.00     0.016 C
HETATM   34  C13 UNL     1      39.037  40.974  51.244  1.00  0.00     0.016 C
ENDBRANCH  30  31
ENDBRANCH  28  30
ENDBRANCH   3  28
TORSDOF 7
ENDMDL