MODEL 4
REMARK VINA RESULT: -8.465476917      0.867      2.059
REMARK  5 active torsions:
REMARK  status: ('A' for Active; 'I' for Inactive)
REMARK    1  A    between atoms: C1_2  and  C2_4
REMARK    2  A    between atoms: C5_8  and  S1_9
REMARK    3  A    between atoms: S1_9  and  C6_10
REMARK    4  A    between atoms: C16_20  and  C17_21
REMARK    5  A    between atoms: N4_23  and  O2_25
ROOT
HETATM    1  C2  UNL     1      40.890  37.199  55.374  1.00  0.00     0.070 A
HETATM    2  C3  UNL     1      41.217  38.530  55.302  1.00  0.00     0.047 A
HETATM    3  C4  UNL     1      42.535  38.951  55.125  1.00  0.00     0.065 A
HETATM    4  N2  UNL     1      42.719  40.376  55.012  1.00  0.00    -0.101 NA
HETATM    5  C5  UNL     1      43.557  38.037  55.017  1.00  0.00     0.042 A
HETATM    6  C16 UNL     1      43.262  36.689  55.076  1.00  0.00     0.065 A
HETATM    7  C18 UNL     1      41.928  36.315  55.258  1.00  0.00     0.146 A
HETATM    8  F1  UNL     1      41.611  34.993  55.327  1.00  0.00    -0.204 F
ENDROOT
BRANCH   5   9
HETATM    9  S1  UNL     1      45.203  38.591  54.842  1.00  0.00    -0.122 SA
BRANCH   9  10
HETATM   10  C6  UNL     1      46.005  39.393  56.214  1.00  0.00     0.052 C
HETATM   11  C7  UNL     1      46.158  40.900  56.090  1.00  0.00     0.015 C
HETATM   12  C8  UNL     1      45.137  41.733  56.739  1.00  0.00     0.001 C
HETATM   13  C9  UNL     1      45.518  42.458  58.001  1.00  0.00     0.000 C
HETATM   14  C10 UNL     1      46.941  42.742  58.222  1.00  0.00     0.000 C
HETATM   15  C11 UNL     1      47.808  41.828  58.961  1.00  0.00     0.000 C
HETATM   16  C12 UNL     1      47.271  40.567  59.541  1.00  0.00     0.000 C
HETATM   17  C13 UNL     1      47.747  39.339  58.794  1.00  0.00     0.000 C
HETATM   18  C14 UNL     1      46.658  38.380  58.430  1.00  0.00     0.001 C
HETATM   19  C15 UNL     1      45.569  38.993  57.579  1.00  0.00     0.015 C
ENDBRANCH   9  10
ENDBRANCH   5   9
BRANCH   6  20
HETATM   20  C17 UNL     1      44.208  35.628  54.790  1.00  0.00     0.150 C
HETATM   21  N3  UNL     1      44.665  35.404  53.472  1.00  0.00    -0.080 NA
HETATM   22  N4  UNL     1      44.661  34.862  55.704  1.00  0.00    -0.254 N
ATOM     23  H4  UNL     1      44.338  35.011  56.660  1.00  0.00     0.195 HD
BRANCH  22  24
HETATM   24  O2  UNL     1      45.553  33.853  55.475  1.00  0.00    -0.288 OA
ATOM     25  H2  UNL     1      46.404  33.796  55.892  1.00  0.00     0.244 HD
ENDBRANCH  22  24
ENDBRANCH   6  20
BRANCH   1  26
HETATM   26  C1  UNL     1      39.512  36.806  55.562  1.00  0.00     0.268 C
HETATM   27  N1  UNL     1      39.054  36.117  56.723  1.00  0.00    -0.057 NA
HETATM   28  O1  UNL     1      38.651  37.069  54.683  1.00  0.00    -0.271 OA
ENDBRANCH   1  26
TORSDOF 5
ENDMDL