MODEL 1
REMARK VINA RESULT: -6.702765148      0.000      0.000
REMARK  5 active torsions:
REMARK  status: ('A' for Active; 'I' for Inactive)
REMARK    1  A    between atoms: S1_2  and  C2_3
REMARK    2  A    between atoms: C2_3  and  C3_4
REMARK    3  A    between atoms: C3_4  and  S2_5
REMARK    4  A    between atoms: S2_5  and  C4_6
REMARK    5  A    between atoms: C8_14  and  N3_15
REMARK       I    between atoms: N3_15  and  C9_17
ROOT
HETATM    1  C4  UNL     1      46.673  42.679  58.431  1.00  0.00     0.145 A
HETATM    2  N1  UNL     1      46.835  41.365  58.664  1.00  0.00    -0.335 N
ATOM      3  H1  UNL     1      47.363  40.965  59.440  1.00  0.00     0.168 HD
HETATM    4  C5  UNL     1      46.182  40.646  57.702  1.00  0.00     0.065 A
HETATM    5  C6  UNL     1      46.077  39.287  57.541  1.00  0.00     0.063 A
HETATM    6  C7  UNL     1      45.338  38.767  56.453  1.00  0.00     0.055 A
HETATM    7  N2  UNL     1      45.155  37.493  56.177  1.00  0.00    -0.335 N
ATOM      8  H2  UNL     1      45.559  36.768  56.769  1.00  0.00     0.168 HD
HETATM    9  C8  UNL     1      44.431  37.175  55.108  1.00  0.00     0.152 A
HETATM   10  S3  UNL     1      43.990  38.685  54.466  1.00  0.00    -0.050 SA
HETATM   11  C10 UNL     1      44.766  39.687  55.615  1.00  0.00     0.059 A
HETATM   12  C11 UNL     1      44.890  41.073  55.803  1.00  0.00     0.082 A
HETATM   13 CL1  UNL     1      44.101  42.115  54.650  1.00  0.00    -0.080 Cl
HETATM   14  C12 UNL     1      45.609  41.579  56.864  1.00  0.00     0.084 A
HETATM   15  N6  UNL     1      45.910  42.799  57.312  1.00  0.00    -0.334 N
ATOM     16  H6  UNL     1      45.616  43.677  56.884  1.00  0.00     0.168 HD
ENDROOT
BRANCH   9  17
HETATM   17  N3  UNL     1      44.125  36.001  54.653  1.00  0.00    -0.311 N
HETATM   18  C9  UNL     1      45.133  35.173  54.106  1.00  0.00     0.187 C
HETATM   19  N4  UNL     1      45.477  34.101  54.752  1.00  0.00    -0.373 N
HETATM   20  N5  UNL     1      45.722  35.553  52.871  1.00  0.00    -0.064 NA
ATOM     21  H42 UNL     1      45.054  33.827  55.639  1.00  0.00     0.158 HD
ATOM     22  H41 UNL     1      46.204  33.503  54.358  1.00  0.00     0.158 HD
ATOM     23  H3  UNL     1      43.159  35.674  54.689  1.00  0.00     0.170 HD
ENDBRANCH   9  17
BRANCH   1  24
HETATM   24  S2  UNL     1      47.310  44.053  59.374  1.00  0.00    -0.093 SA
BRANCH  24  25
HETATM   25  C3  UNL     1      46.077  44.618  60.574  1.00  0.00     0.092 C
BRANCH  25  26
HETATM   26  C2  UNL     1      46.794  45.557  61.535  1.00  0.00     0.084 C
BRANCH  26  27
HETATM   27  S1  UNL     1      48.335  46.142  60.774  1.00  0.00    -0.173 SA
HETATM   28  C1  UNL     1      49.653  45.903  62.009  1.00  0.00     0.089 C
ENDBRANCH  26  27
ENDBRANCH  25  26
ENDBRANCH  24  25
ENDBRANCH   1  24
TORSDOF 5
ENDMDL