MODEL 2
REMARK VINA RESULT: -8.014558126      0.076      1.622
REMARK  7 active torsions:
REMARK  status: ('A' for Active; 'I' for Inactive)
REMARK    1  A    between atoms: N1_2  and  C2_5
REMARK    2  A    between atoms: C2_5  and  C3_6
REMARK    3  A    between atoms: C3_6  and  N2_7
REMARK    4  A    between atoms: C4_8  and  O1_9
REMARK    5  A    between atoms: C7_13  and  O2_14
REMARK    6  A    between atoms: C8_16  and  C9_17
REMARK    7  A    between atoms: C13_21  and  O3_22
ROOT
HETATM    1  N2  UNL     1      45.879  39.691  57.228  1.00  0.00    -0.306 N
HETATM    2  C4  UNL     1      45.670  40.849  56.579  1.00  0.00     0.151 A
HETATM    3  C5  UNL     1      44.908  40.595  55.476  1.00  0.00     0.011 A
HETATM    4  C6  UNL     1      44.648  39.221  55.464  1.00  0.00     0.017 A
HETATM    5  C7  UNL     1      45.257  38.687  56.554  1.00  0.00     0.152 A
HETATM    6  C8  UNL     1      43.823  38.780  54.307  1.00  0.00     0.021 C
HETATM    7  C17 UNL     1      42.543  39.556  54.332  1.00  0.00     0.020 C
HETATM    8  C18 UNL     1      42.798  41.024  54.445  1.00  0.00     0.013 C
HETATM    9  C19 UNL     1      44.299  41.341  54.342  1.00  0.00     0.058 C
HETATM   10  C20 UNL     1      44.724  40.753  53.014  1.00  0.00     0.180 C
HETATM   11  F1  UNL     1      43.786  41.191  52.069  1.00  0.00    -0.249 F
HETATM   12  C21 UNL     1      44.603  39.251  53.067  1.00  0.00     0.057 C
ENDROOT
BRANCH   6  13
HETATM   13  C9  UNL     1      43.651  37.339  54.202  1.00  0.00    -0.043 A
HETATM   14  C10 UNL     1      44.610  36.587  53.581  1.00  0.00     0.017 A
HETATM   15  C11 UNL     1      44.446  35.220  53.474  1.00  0.00    -0.028 A
HETATM   16  C12 UNL     1      45.489  34.399  52.795  1.00  0.00     0.051 C
HETATM   17  C13 UNL     1      43.334  34.578  53.980  1.00  0.00     0.077 A
HETATM   18  C14 UNL     1      42.365  35.334  54.606  1.00  0.00    -0.028 A
HETATM   19  C15 UNL     1      41.160  34.646  55.139  1.00  0.00     0.051 C
HETATM   20  C16 UNL     1      42.544  36.720  54.707  1.00  0.00     0.017 A
BRANCH  17  21
HETATM   21  O3  UNL     1      43.222  33.198  53.845  1.00  0.00    -0.360 OA
ATOM     22  H3  UNL     1      43.154  32.658  54.623  1.00  0.00     0.217 HD
ENDBRANCH  17  21
ENDBRANCH   6  13
BRANCH   5  23
HETATM   23  O2  UNL     1      45.228  37.339  56.892  1.00  0.00    -0.345 OA
ATOM     24  H2  UNL     1      44.537  36.876  57.352  1.00  0.00     0.219 HD
ENDBRANCH   5  23
BRANCH   2  25
HETATM   25  O1  UNL     1      46.124  42.112  56.920  1.00  0.00    -0.345 OA
ATOM     26  H1  UNL     1      45.724  42.951  56.725  1.00  0.00     0.219 HD
ENDBRANCH   2  25
BRANCH   1  27
HETATM   27  C3  UNL     1      46.634  39.468  58.447  1.00  0.00     0.160 C
BRANCH  27  28
HETATM   28  C2  UNL     1      47.910  38.703  58.175  1.00  0.00     0.252 C
BRANCH  28  29
HETATM   29  N1  UNL     1      48.791  38.740  59.317  1.00  0.00    -0.077 N
HETATM   30  C1  UNL     1      48.456  39.877  60.145  1.00  0.00     0.267 C
ATOM     31  H12 UNL     1      49.774  38.736  59.046  1.00  0.00     0.276 HD
ATOM     32  H11 UNL     1      48.780  37.865  59.841  1.00  0.00     0.276 HD
ENDBRANCH  28  29
ENDBRANCH  27  28
ENDBRANCH   1  27
TORSDOF 7
ENDMDL