MODEL 1
REMARK VINA RESULT: -7.452796922      0.000      0.000
REMARK  5 active torsions:
REMARK  status: ('A' for Active; 'I' for Inactive)
REMARK    1  A    between atoms: C2_2  and  C3_3
REMARK    2  A    between atoms: C3_3  and  C4_4
REMARK    3  A    between atoms: C4_4  and  N1_5
REMARK    4  A    between atoms: C8_11  and  C10_14
REMARK    5  A    between atoms: C13_17  and  S1_18
ROOT
HETATM    1  N1  UNL     1      10.368  19.452  47.871  1.00  0.00    -0.291 N
HETATM    2  C5  UNL     1       9.500  20.360  47.149  1.00  0.00     0.330 C
HETATM    3  O1  UNL     1       9.538  20.317  45.876  1.00  0.00    -0.246 OA
HETATM    4  N2  UNL     1       8.618  21.285  47.739  1.00  0.00    -0.296 N
HETATM    5  C6  UNL     1       7.761  22.126  46.896  1.00  0.00     0.162 C
HETATM    6  C7  UNL     1       8.452  21.456  49.132  1.00  0.00     0.103 C
HETATM    7  C8  UNL     1       8.193  22.501  49.814  1.00  0.00     0.089 C
HETATM    8  C9  UNL     1       8.081  22.298  51.282  1.00  0.00     0.103 C
HETATM    9  N3  UNL     1       7.990  22.119  52.419  1.00  0.00    -0.191 NA
HETATM   10  S2  UNL     1       8.751  19.852  50.017  1.00  0.00    -0.050 SA
HETATM   11  C17 UNL     1      10.400  19.437  49.282  1.00  0.00     0.114 C
HETATM   12  C18 UNL     1      11.379  19.273  50.087  1.00  0.00     0.158 C
HETATM   13  C19 UNL     1      12.772  19.059  49.850  1.00  0.00     0.113 C
HETATM   14  N4  UNL     1      13.910  18.899  49.689  1.00  0.00    -0.191 NA
HETATM   15  C20 UNL     1      11.014  19.281  51.518  1.00  0.00     0.113 C
HETATM   16  N5  UNL     1      10.716  19.271  52.626  1.00  0.00    -0.191 NA
ENDROOT
BRANCH   7  17
HETATM   17  C10 UNL     1       8.051  23.883  49.456  1.00  0.00    -0.013 A
HETATM   18  C11 UNL     1       6.834  24.477  49.443  1.00  0.00     0.014 A
HETATM   19  C12 UNL     1       6.696  25.801  49.106  1.00  0.00     0.019 A
HETATM   20  C13 UNL     1       7.784  26.564  48.770  1.00  0.00    -0.000 A
HETATM   21  C15 UNL     1       9.027  25.972  48.778  1.00  0.00     0.019 A
HETATM   22  C16 UNL     1       9.156  24.620  49.125  1.00  0.00     0.014 A
BRANCH  20  23
HETATM   23  S1  UNL     1       7.577  28.296  48.331  1.00  0.00    -0.134 SA
HETATM   24  C14 UNL     1       7.571  29.328  49.821  1.00  0.00     0.095 C
ENDBRANCH  20  23
ENDBRANCH   7  17
BRANCH   1  25
HETATM   25  C4  UNL     1      11.162  18.561  47.102  1.00  0.00     0.134 C
BRANCH  25  26
HETATM   26  C3  UNL     1      10.957  17.111  47.432  1.00  0.00     0.020 C
BRANCH  26  27
HETATM   27  C2  UNL     1      12.119  16.215  47.436  1.00  0.00    -0.003 C
HETATM   28  C1  UNL     1      12.918  16.204  46.177  1.00  0.00     0.005 C
ENDBRANCH  26  27
ENDBRANCH  25  26
ENDBRANCH   1  25
TORSDOF 5
ENDMDL