MODEL 5
REMARK VINA RESULT: -7.797506554      1.097      1.336
REMARK  6 active torsions:
REMARK  status: ('A' for Active; 'I' for Inactive)
REMARK    1  A    between atoms: C3_3  and  O1_4
REMARK    2  A    between atoms: O1_4  and  C4_5
REMARK    3  A    between atoms: C8_12  and  C9_13
REMARK    4  A    between atoms: C9_13  and  C10_14
REMARK    5  A    between atoms: C18_23  and  O3_24
REMARK    6  A    between atoms: O3_24  and  C19_25
ROOT
HETATM    1  C1  UNL     1       8.820  20.995  45.800  1.00  0.00     0.022 C
HETATM    2  C2  UNL     1       9.982  20.546  46.206  1.00  0.00    -0.027 C
HETATM    3  C3  UNL     1      11.049  20.094  45.281  1.00  0.00     0.081 C
HETATM    4  C7  UNL     1      11.687  18.950  45.585  1.00  0.00    -0.027 C
HETATM    5  C8  UNL     1      12.769  18.114  45.018  1.00  0.00     0.032 C
HETATM    6  C14 UNL     1      13.378  17.555  46.244  1.00  0.00     0.060 C
HETATM    7  C15 UNL     1      14.426  16.536  46.119  1.00  0.00     0.018 C
HETATM    8  C16 UNL     1      12.198  17.199  47.064  1.00  0.00     0.142 C
HETATM    9  O2  UNL     1      12.029  16.225  47.767  1.00  0.00    -0.297 OA
HETATM   10  C17 UNL     1      11.214  18.299  46.862  1.00  0.00     0.118 C
HETATM   11  C18 UNL     1      11.314  19.366  47.926  1.00  0.00     0.155 C
HETATM   12  C21 UNL     1      10.295  20.436  47.677  1.00  0.00     0.047 C
HETATM   13  C22 UNL     1      10.823  21.761  48.180  1.00  0.00     0.018 C
ENDROOT
BRANCH   3  14
HETATM   14  O1  UNL     1      11.383  20.752  44.208  1.00  0.00    -0.324 OA
BRANCH  14  15
HETATM   15  C4  UNL     1      11.117  21.656  43.264  1.00  0.00     0.237 C
HETATM   16  C5  UNL     1      11.692  23.051  43.507  1.00  0.00     0.134 C
HETATM   17  S1  UNL     1      11.396  23.671  41.791  1.00  0.00    -0.120 SA
HETATM   18  C6  UNL     1      11.576  22.025  41.047  1.00  0.00     0.131 C
HETATM   19  N1  UNL     1      11.395  21.223  41.972  1.00  0.00    -0.367 N
ATOM     20  H1  UNL     1      11.449  20.222  41.783  1.00  0.00     0.162 HD
ENDBRANCH  14  15
ENDBRANCH   3  14
BRANCH   5  21
HETATM   21  C9  UNL     1      12.282  17.172  43.974  1.00  0.00     0.037 C
BRANCH  21  22
HETATM   22  C10 UNL     1      12.128  17.693  42.622  1.00  0.00    -0.024 C
HETATM   23  C11 UNL     1      11.696  16.946  41.618  1.00  0.00    -0.091 C
HETATM   24  C12 UNL     1      11.319  15.521  41.709  1.00  0.00     0.042 C
HETATM   25  C13 UNL     1      11.558  17.565  40.243  1.00  0.00     0.042 C
ENDBRANCH  21  22
ENDBRANCH   5  21
BRANCH  11  26
HETATM   26  O3  UNL     1      11.123  18.846  49.232  1.00  0.00    -0.315 OA
BRANCH  26  27
HETATM   27  C19 UNL     1      12.171  18.957  50.133  1.00  0.00     0.255 C
HETATM   28  C20 UNL     1      13.462  19.579  49.771  1.00  0.00     0.126 C
HETATM   29  O4  UNL     1      12.043  18.519  51.311  1.00  0.00    -0.266 OA
ENDBRANCH  26  27
ENDBRANCH  11  26
TORSDOF 6
ENDMDL