MODEL 3
REMARK VINA RESULT: -7.307179611      1.019      1.058
REMARK  5 active torsions:
REMARK  status: ('A' for Active; 'I' for Inactive)
REMARK    1  A    between atoms: C2_2  and  O2_4
REMARK    2  A    between atoms: O2_4  and  C3_5
REMARK    3  A    between atoms: C4_6  and  C5_7
REMARK    4  A    between atoms: C5_7  and  C6_8
REMARK    5  A    between atoms: C10_14  and  C11_15
ROOT
HETATM    1  C3  UNL     1      10.621  19.520  47.516  1.00  0.00     0.196 C
HETATM    2  C4  UNL     1      10.001  20.142  48.770  1.00  0.00     0.166 C
HETATM    3  O3  UNL     1      10.156  19.393  49.925  1.00  0.00    -0.339 OA
HETATM    4  C10 UNL     1      10.822  19.712  51.120  1.00  0.00     0.114 C
HETATM    5  C13 UNL     1      12.025  20.255  51.147  1.00  0.00     0.040 C
HETATM    6  C14 UNL     1      12.907  20.635  50.076  1.00  0.00     0.002 C
HETATM    7  C15 UNL     1      13.400  19.962  49.076  1.00  0.00     0.010 C
HETATM    8  C16 UNL     1      13.182  18.534  48.736  1.00  0.00     0.077 C
HETATM    9  C17 UNL     1      14.141  17.672  49.551  1.00  0.00     0.050 C
HETATM   10  C18 UNL     1      13.493  18.276  47.275  1.00  0.00     0.049 C
HETATM   11  C19 UNL     1      12.213  17.650  46.791  1.00  0.00     0.022 C
HETATM   12  C20 UNL     1      11.960  17.709  45.353  1.00  0.00     0.013 C
HETATM   13  C21 UNL     1      11.199  18.174  47.748  1.00  0.00     0.091 C
HETATM   14  C22 UNL     1      10.158  17.074  47.898  1.00  0.00     0.049 C
HETATM   15  O5  UNL     1      11.922  18.062  48.947  1.00  0.00    -0.363 OA
ENDROOT
BRANCH   2  16
HETATM   16  C5  UNL     1       8.587  20.601  48.587  1.00  0.00     0.074 C
BRANCH  16  17
HETATM   17  C6  UNL     1       8.294  22.052  48.878  1.00  0.00    -0.049 A
HETATM   18  C7  UNL     1       8.522  22.586  50.105  1.00  0.00     0.015 A
HETATM   19  C8  UNL     1       8.273  23.911  50.291  1.00  0.00     0.050 A
HETATM   20  S1  UNL     1       7.724  24.413  48.765  1.00  0.00    -0.113 SA
HETATM   21  C9  UNL     1       7.827  22.932  47.939  1.00  0.00     0.056 A
ENDBRANCH  16  17
ENDBRANCH   2  16
BRANCH   1  22
HETATM   22  O2  UNL     1      11.402  20.416  46.818  1.00  0.00    -0.311 OA
BRANCH  22  23
HETATM   23  C2  UNL     1      11.024  21.326  45.896  1.00  0.00     0.255 C
HETATM   24  C1  UNL     1      10.771  21.057  44.458  1.00  0.00     0.126 C
HETATM   25  O1  UNL     1      10.890  22.465  46.337  1.00  0.00    -0.266 OA
ENDBRANCH  22  23
ENDBRANCH   1  22
BRANCH   4  26
HETATM   26  C11 UNL     1      10.095  19.396  52.377  1.00  0.00     0.178 C
HETATM   27  C12 UNL     1       8.990  20.355  52.743  1.00  0.00     0.099 C
HETATM   28  O4  UNL     1      10.360  18.424  53.084  1.00  0.00    -0.291 OA
ENDBRANCH   4  26
TORSDOF 5
ENDMDL