MODEL 1
REMARK VINA RESULT: -8.260992593      0.000      0.000
REMARK  7 active torsions:
REMARK  status: ('A' for Active; 'I' for Inactive)
REMARK    1  A    between atoms: C2_2  and  C3_3
REMARK    2  A    between atoms: C3_3  and  O1_4
REMARK    3  A    between atoms: C3_3  and  O2_6
REMARK    4  A    between atoms: O2_6  and  C4_7
REMARK    5  A    between atoms: C12_18  and  C14_20
REMARK    6  A    between atoms: C14_20  and  C15_21
REMARK    7  A    between atoms: C15_21  and  C16_22
ROOT
HETATM    1  C4  UNL     1       8.392  19.108  51.055  1.00  0.00     0.210 C
HETATM    2  C5  UNL     1       8.250  20.298  52.013  1.00  0.00     0.158 C
HETATM    3  O3  UNL     1       7.961  20.262  53.166  1.00  0.00    -0.295 OA
HETATM    4  C6  UNL     1       8.551  21.502  51.201  1.00  0.00     0.105 C
HETATM    5  C7  UNL     1       9.253  20.994  49.926  1.00  0.00     0.082 C
HETATM    6  C8  UNL     1      10.392  21.915  49.717  1.00  0.00    -0.008 C
HETATM    7  C9  UNL     1      10.106  23.166  49.301  1.00  0.00    -0.003 C
HETATM    8  C10 UNL     1       8.743  23.638  49.056  1.00  0.00     0.206 C
HETATM    9  O4  UNL     1       7.891  22.550  48.665  1.00  0.00    -0.317 OA
HETATM   10  C11 UNL     1       8.319  21.225  48.831  1.00  0.00     0.273 C
HETATM   11  O5  UNL     1       7.838  20.416  48.009  1.00  0.00    -0.264 OA
HETATM   12  C12 UNL     1       9.596  19.631  50.286  1.00  0.00     0.010 C
HETATM   13  C13 UNL     1      10.661  19.752  51.416  1.00  0.00     0.020 C
ENDROOT
BRANCH  12  14
HETATM   14  C14 UNL     1      10.152  18.666  49.336  1.00  0.00     0.014 C
BRANCH  14  15
HETATM   15  C15 UNL     1      11.627  18.398  49.428  1.00  0.00     0.010 C
BRANCH  15  16
HETATM   16  C16 UNL     1      12.269  18.234  48.090  1.00  0.00     0.021 C
HETATM   17  C17 UNL     1      13.228  19.271  47.678  1.00  0.00    -0.084 C
HETATM   18  C18 UNL     1      13.960  19.991  48.480  1.00  0.00     0.014 C
HETATM   19  C19 UNL     1      13.358  19.464  46.182  1.00  0.00     0.034 C
HETATM   20  C20 UNL     1      13.066  18.059  45.624  1.00  0.00     0.005 C
HETATM   21  C21 UNL     1      13.694  17.032  46.559  1.00  0.00     0.010 C
HETATM   22  C22 UNL     1      12.787  16.845  47.793  1.00  0.00    -0.040 C
HETATM   23  C23 UNL     1      11.689  15.888  47.377  1.00  0.00     0.015 C
HETATM   24  C24 UNL     1      13.635  16.250  48.863  1.00  0.00     0.015 C
ENDBRANCH  15  16
ENDBRANCH  14  15
ENDBRANCH  12  14
BRANCH   1  25
HETATM   25  O2  UNL     1       7.197  19.045  50.395  1.00  0.00    -0.317 OA
BRANCH  25  26
HETATM   26  C3  UNL     1       6.490  17.954  49.982  1.00  0.00     0.177 C
BRANCH  26  27
HETATM   27  C2  UNL     1       5.783  17.767  48.736  1.00  0.00     0.053 C
HETATM   28  C1  UNL     1       5.375  16.587  48.351  1.00  0.00     0.016 C
ENDBRANCH  26  27
BRANCH  26  29
HETATM   29  O1  UNL     1       6.471  16.973  50.853  1.00  0.00    -0.341 OA
ATOM     30  H1  UNL     1       6.654  16.094  50.540  1.00  0.00     0.220 HD
ENDBRANCH  26  29
ENDBRANCH  25  26
ENDBRANCH   1  25
TORSDOF 7
ENDMDL