MODEL 4
REMARK VINA RESULT: -8.014338495      1.801      3.656
REMARK  5 active torsions:
REMARK  status: ('A' for Active; 'I' for Inactive)
REMARK    1  A    between atoms: C3_3  and  C5_5
REMARK    2  A    between atoms: C5_5  and  O2_7
REMARK    3  A    between atoms: O2_7  and  C6_8
REMARK    4  A    between atoms: C17_21  and  C18_22
REMARK    5  A    between atoms: C17_21  and  O5_24
ROOT
HETATM    1  C6  UNL     1      12.432  18.671  46.255  1.00  0.00     0.164 C
HETATM    2  C7  UNL     1      13.632  18.683  47.163  1.00  0.00     0.043 C
HETATM    3  C8  UNL     1      13.126  19.115  48.516  1.00  0.00     0.027 C
HETATM    4  C9  UNL     1      14.126  19.976  49.250  1.00  0.00     0.013 C
HETATM    5  C10 UNL     1      11.799  19.778  48.318  1.00  0.00     0.157 A
HETATM    6  O3  UNL     1      11.717  21.115  48.704  1.00  0.00    -0.223 OA
HETATM    7  O4  UNL     1      10.987  21.729  47.827  1.00  0.00    -0.229 OA
HETATM    8  C11 UNL     1       9.690  21.979  48.249  1.00  0.00     0.099 C
HETATM    9  C12 UNL     1       9.016  22.754  47.119  1.00  0.00     0.041 C
HETATM   10  C13 UNL     1       8.889  24.168  47.570  1.00  0.00     0.003 C
HETATM   11  C14 UNL     1       9.625  24.331  48.858  1.00  0.00     0.003 C
HETATM   12  C15 UNL     1       9.707  22.921  49.404  1.00  0.00     0.041 C
HETATM   13  C16 UNL     1       8.869  20.749  48.463  1.00  0.00     0.082 C
HETATM   14  C17 UNL     1       9.562  19.774  49.456  1.00  0.00     0.092 C
HETATM   15  C21 UNL     1      10.602  18.983  48.706  1.00  0.00     0.197 A
HETATM   16  O6  UNL     1      10.254  18.913  47.337  1.00  0.00    -0.368 OA
HETATM   17  C22 UNL     1      11.389  19.537  46.886  1.00  0.00     0.192 A
ENDROOT
BRANCH   1  18
HETATM   18  O2  UNL     1      11.984  17.359  45.981  1.00  0.00    -0.309 OA
BRANCH  18  19
HETATM   19  C5  UNL     1      12.848  16.287  45.794  1.00  0.00     0.289 C
HETATM   20  O1  UNL     1      12.901  15.439  46.709  1.00  0.00    -0.260 OA
BRANCH  19  21
HETATM   21  C3  UNL     1      13.657  16.134  44.611  1.00  0.00     0.009 C
HETATM   22  C2  UNL     1      14.897  15.745  44.672  1.00  0.00    -0.018 C
HETATM   23  C1  UNL     1      15.653  15.410  45.897  1.00  0.00     0.036 C
HETATM   24  C4  UNL     1      13.033  16.434  43.300  1.00  0.00     0.054 C
ENDBRANCH  19  21
ENDBRANCH  18  19
ENDBRANCH   1  18
BRANCH  14  25
HETATM   25  C18 UNL     1       8.430  18.828  49.781  1.00  0.00     0.036 C
HETATM   26  C19 UNL     1       7.238  18.891  48.918  1.00  0.00     0.008 C
ENDBRANCH  14  25
BRANCH  14  27
HETATM   27  O5  UNL     1      10.025  20.557  50.440  1.00  0.00    -0.382 OA
HETATM   28  C20 UNL     1      10.151  20.157  51.709  1.00  0.00     0.202 C
ENDBRANCH  14  27
TORSDOF 5
ENDMDL