MODEL 1
REMARK VINA RESULT: -7.446974677      0.000      0.000
REMARK  7 active torsions:
REMARK  status: ('A' for Active; 'I' for Inactive)
REMARK    1  A    between atoms: C2_2  and  C3_3
REMARK    2  A    between atoms: C3_3  and  C5_5
REMARK    3  A    between atoms: C5_5  and  O2_7
REMARK    4  A    between atoms: O2_7  and  S1_8
REMARK    5  A    between atoms: S1_8  and  C6_11
REMARK    6  A    between atoms: C14_19  and  O5_21
REMARK    7  A    between atoms: O5_21  and  C16_22
ROOT
HETATM    1  C6  UNL     1       9.182  21.265  50.679  1.00  0.00     0.068 C
HETATM    2  C7  UNL     1       8.910  21.202  49.391  1.00  0.00    -0.049 C
HETATM    3  C8  UNL     1       8.333  19.879  49.023  1.00  0.00     0.036 C
HETATM    4  C9  UNL     1       8.379  19.659  47.519  1.00  0.00     0.004 C
HETATM    5  C10 UNL     1       7.662  20.694  46.733  1.00  0.00     0.001 C
HETATM    6  C11 UNL     1       7.791  22.039  47.364  1.00  0.00     0.017 C
HETATM    7  C12 UNL     1       9.043  22.154  48.246  1.00  0.00     0.012 C
HETATM    8  C13 UNL     1      10.225  21.892  47.367  1.00  0.00     0.023 C
HETATM    9  C14 UNL     1       9.055  23.596  48.764  1.00  0.00     0.078 C
HETATM   10  C15 UNL     1       8.881  24.503  47.553  1.00  0.00     0.048 C
HETATM   11  C18 UNL     1      10.401  23.765  49.379  1.00  0.00     0.040 C
HETATM   12  C19 UNL     1      10.465  23.472  50.802  1.00  0.00     0.008 C
HETATM   13  C20 UNL     1       9.717  22.403  51.441  1.00  0.00     0.054 C
ENDROOT
BRANCH   1  14
HETATM   14  S1  UNL     1       8.866  19.895  51.713  1.00  0.00     0.301 S
HETATM   15  O3  UNL     1       7.545  19.244  51.505  1.00  0.00    -0.193 OA
HETATM   16  O4  UNL     1       8.779  20.430  53.152  1.00  0.00    -0.193 OA
BRANCH  14  17
HETATM   17  O2  UNL     1      10.168  18.811  51.790  1.00  0.00    -0.192 OA
BRANCH  17  18
HETATM   18  C5  UNL     1      11.489  19.219  51.635  1.00  0.00     0.278 C
HETATM   19  O1  UNL     1      11.999  19.816  52.616  1.00  0.00    -0.264 OA
BRANCH  18  20
HETATM   20  C3  UNL     1      12.288  18.997  50.433  1.00  0.00     0.082 C
HETATM   21  C4  UNL     1      11.481  18.423  49.284  1.00  0.00     0.020 C
BRANCH  20  22
HETATM   22  C2  UNL     1      12.867  20.308  49.957  1.00  0.00     0.010 C
HETATM   23  C1  UNL     1      14.205  20.171  49.306  1.00  0.00     0.006 C
ENDBRANCH  20  22
ENDBRANCH  18  20
ENDBRANCH  17  18
ENDBRANCH  14  17
ENDBRANCH   1  14
BRANCH   9  24
HETATM   24  O5  UNL     1       7.961  23.737  49.608  1.00  0.00    -0.310 OA
BRANCH  24  25
HETATM   25  C16 UNL     1       7.176  24.838  49.755  1.00  0.00     0.255 C
HETATM   26  C17 UNL     1       7.749  26.104  50.264  1.00  0.00     0.126 C
HETATM   27  O6  UNL     1       5.961  24.790  49.461  1.00  0.00    -0.266 OA
ENDBRANCH  24  25
ENDBRANCH   9  24
TORSDOF 7
ENDMDL