MODEL 3
REMARK VINA RESULT: -8.081334162      1.755      3.926
REMARK  6 active torsions:
REMARK  status: ('A' for Active; 'I' for Inactive)
REMARK    1  A    between atoms: O1_2  and  C2_3
REMARK    2  A    between atoms: C2_3  and  C3_5
REMARK    3  A    between atoms: C3_5  and  S1_6
REMARK    4  A    between atoms: S1_6  and  C4_7
REMARK    5  A    between atoms: C4_7  and  C16_21
REMARK    6  A    between atoms: N1_8  and  C5_10
ROOT
HETATM    1  C4  UNL     1      10.092  20.273  48.716  1.00  0.00     0.061 C
HETATM    2  N1  UNL     1      11.143  20.455  48.104  1.00  0.00    -0.382 N
ATOM      3  H1  UNL     1      11.413  21.434  48.200  1.00  0.00     0.160 HD
ENDROOT
BRANCH   1   4
HETATM    4  S1  UNL     1       9.119  18.818  48.934  1.00  0.00    -0.106 SA
BRANCH   4   5
HETATM    5  C3  UNL     1       7.764  18.914  50.063  1.00  0.00     0.191 C
BRANCH   5   6
HETATM    6  C2  UNL     1       8.173  19.211  51.467  1.00  0.00     0.268 C
HETATM    7  O2  UNL     1       9.281  18.793  51.865  1.00  0.00    -0.264 OA
BRANCH   6   8
HETATM    8  O1  UNL     1       7.380  19.924  52.344  1.00  0.00    -0.326 OA
HETATM    9  C1  UNL     1       7.819  21.142  52.917  1.00  0.00     0.213 C
ENDBRANCH   6   8
ENDBRANCH   5   6
ENDBRANCH   4   5
ENDBRANCH   1   4
BRANCH   1  10
HETATM   10  C16 UNL     1       9.493  21.522  49.368  1.00  0.00     0.181 C
HETATM   11  C17 UNL     1       9.192  22.543  48.325  1.00  0.00     0.144 C
HETATM   12  O3  UNL     1       8.227  22.452  47.587  1.00  0.00    -0.297 OA
HETATM   13  C18 UNL     1      10.146  23.692  48.234  1.00  0.00     0.080 C
HETATM   14  C19 UNL     1      10.208  24.436  49.556  1.00  0.00     0.015 C
HETATM   15  C20 UNL     1      10.189  23.532  50.744  1.00  0.00     0.080 C
HETATM   16  C21 UNL     1      10.483  22.143  50.292  1.00  0.00     0.144 C
HETATM   17  O4  UNL     1      11.485  21.550  50.664  1.00  0.00    -0.297 OA
ENDBRANCH   1  10
BRANCH   2  18
HETATM   18  C5  UNL     1      12.088  19.806  47.332  1.00  0.00     0.082 C
HETATM   19  C6  UNL     1      12.994  18.883  48.142  1.00  0.00     0.025 C
HETATM   20  C7  UNL     1      12.371  17.640  48.631  1.00  0.00     0.002 C
HETATM   21  C8  UNL     1      13.479  16.741  49.153  1.00  0.00     0.000 C
HETATM   22  C9  UNL     1      14.395  16.246  48.081  1.00  0.00     0.000 C
HETATM   23  C10 UNL     1      13.729  15.520  46.962  1.00  0.00     0.000 C
HETATM   24  C11 UNL     1      13.890  16.240  45.615  1.00  0.00     0.000 C
HETATM   25  C12 UNL     1      12.586  16.404  44.910  1.00  0.00     0.000 C
HETATM   26  C13 UNL     1      12.389  17.712  44.226  1.00  0.00     0.000 C
HETATM   27  C14 UNL     1      12.569  18.914  45.115  1.00  0.00     0.002 C
HETATM   28  C15 UNL     1      11.500  19.065  46.140  1.00  0.00     0.025 C
ENDBRANCH   2  18
TORSDOF 6
ENDMDL