MODEL 5
REMARK VINA RESULT: -7.335404687      2.689      7.219
REMARK  6 active torsions:
REMARK  status: ('A' for Active; 'I' for Inactive)
REMARK    1  A    between atoms: C5_5  and  O1_6
REMARK    2  A    between atoms: O1_6  and  C6_7
REMARK    3  A    between atoms: C8_10  and  O3_11
REMARK    4  A    between atoms: O3_11  and  C9_12
REMARK    5  A    between atoms: C9_12  and  C10_14
REMARK    6  A    between atoms: C10_14  and  O5_15
ROOT
HETATM    1  C1  UNL     1      11.306  16.332  41.915  1.00  0.00     0.014 C
HETATM    2  C2  UNL     1      12.297  16.787  42.674  1.00  0.00    -0.089 C
HETATM    3  C3  UNL     1      12.382  18.235  42.931  1.00  0.00     0.036 C
HETATM    4  C4  UNL     1      11.396  18.695  43.987  1.00  0.00     0.042 C
HETATM    5  C5  UNL     1      12.063  19.549  45.046  1.00  0.00     0.188 C
HETATM    6  C8  UNL     1      12.082  18.827  46.402  1.00  0.00     0.299 C
HETATM    7  O6  UNL     1      13.143  17.967  46.377  1.00  0.00    -0.347 OA
HETATM    8  C17 UNL     1      12.878  16.647  46.590  1.00  0.00     0.065 A
HETATM    9  C18 UNL     1      11.650  16.216  47.369  1.00  0.00     0.046 C
HETATM   10  C19 UNL     1      14.139  15.832  46.950  1.00  0.00     0.045 A
HETATM   11  C20 UNL     1      13.437  15.680  45.654  1.00  0.00     0.023 A
HETATM   12  C21 UNL     1      14.021  16.217  44.388  1.00  0.00     0.012 C
HETATM   13  C22 UNL     1      13.239  15.774  43.195  1.00  0.00     0.034 C
ENDROOT
BRANCH   6  14
HETATM   14  O3  UNL     1      12.142  19.782  47.447  1.00  0.00    -0.285 OA
BRANCH  14  15
HETATM   15  C9  UNL     1      11.707  19.589  48.725  1.00  0.00     0.296 C
HETATM   16  O4  UNL     1      12.217  18.674  49.401  1.00  0.00    -0.262 OA
BRANCH  15  17
HETATM   17  C10 UNL     1      10.622  20.466  49.325  1.00  0.00     0.147 C
HETATM   18  C12 UNL     1       9.764  19.574  50.178  1.00  0.00     0.049 C
HETATM   19  C13 UNL     1       8.716  18.837  49.381  1.00  0.00     0.004 C
HETATM   20  C14 UNL     1       7.930  19.773  48.488  1.00  0.00     0.000 C
HETATM   21  C15 UNL     1       8.906  20.318  47.471  1.00  0.00     0.004 C
HETATM   22  C16 UNL     1       9.930  21.148  48.205  1.00  0.00     0.049 C
BRANCH  17  23
HETATM   23  O5  UNL     1      11.270  21.369  50.124  1.00  0.00    -0.375 OA
HETATM   24  C11 UNL     1      11.014  21.364  51.455  1.00  0.00     0.203 C
ENDBRANCH  17  23
ENDBRANCH  15  17
ENDBRANCH  14  15
ENDBRANCH   6  14
BRANCH   5  25
HETATM   25  O1  UNL     1      11.472  20.821  45.168  1.00  0.00    -0.311 OA
BRANCH  25  26
HETATM   26  C6  UNL     1      11.114  21.596  44.084  1.00  0.00     0.255 C
HETATM   27  C7  UNL     1      12.143  22.206  43.222  1.00  0.00     0.126 C
HETATM   28  O2  UNL     1       9.898  21.770  43.850  1.00  0.00    -0.266 OA
ENDBRANCH  25  26
ENDBRANCH   5  25
TORSDOF 6
ENDMDL