MODEL 1
REMARK VINA RESULT: -6.806853242      0.000      0.000
REMARK  6 active torsions:
REMARK  status: ('A' for Active; 'I' for Inactive)
REMARK    1  A    between atoms: C2_2  and  C4_4
REMARK    2  A    between atoms: N3_9  and  C5_10
REMARK    3  A    between atoms: C5_10  and  C8_13
REMARK    4  A    between atoms: C8_13  and  N4_14
REMARK    5  A    between atoms: C16_22  and  C17_23
REMARK    6  A    between atoms: C17_23  and  N5_26
ROOT
HETATM    1  C4  UNL     1       8.499  23.003  49.333  1.00  0.00     0.057 A
HETATM    2  N1  UNL     1       8.160  22.777  50.644  1.00  0.00    -0.288 N
ATOM      3  H1  UNL     1       8.026  23.481  51.370  1.00  0.00     0.188 HD
HETATM    4  N2  UNL     1       8.045  21.492  50.778  1.00  0.00    -0.239 N
ATOM      5  H2  UNL     1       7.799  21.026  51.651  1.00  0.00     0.208 HD
HETATM    6  N3  UNL     1       8.293  20.845  49.607  1.00  0.00    -0.263 N
HETATM    7  C16 UNL     1       8.583  21.757  48.680  1.00  0.00     0.093 A
ENDROOT
BRANCH   6   8
HETATM    8  C5  UNL     1       8.234  19.403  49.489  1.00  0.00     0.079 C
HETATM    9  C6  UNL     1       7.036  18.864  48.821  1.00  0.00     0.046 C
HETATM   10  C7  UNL     1       7.785  19.000  50.983  1.00  0.00     0.046 C
BRANCH   8  11
HETATM   11  C8  UNL     1       9.524  18.720  49.488  1.00  0.00     0.091 C
BRANCH  11  12
HETATM   12  N4  UNL     1      10.772  19.237  49.693  1.00  0.00    -0.382 N
HETATM   13  C9  UNL     1      11.859  18.403  49.151  1.00  0.00     0.080 C
HETATM   14  C10 UNL     1      11.387  17.511  48.036  1.00  0.00     0.032 C
HETATM   15  C11 UNL     1      12.929  19.310  48.646  1.00  0.00     0.025 C
HETATM   16  C12 UNL     1      13.368  20.362  49.602  1.00  0.00     0.004 C
HETATM   17  C13 UNL     1      12.286  20.978  50.412  1.00  0.00     0.025 C
HETATM   18  C14 UNL     1      11.290  19.876  50.820  1.00  0.00     0.080 C
HETATM   19  C15 UNL     1      12.050  18.920  51.758  1.00  0.00     0.032 C
ENDBRANCH  11  12
ENDBRANCH   8  11
ENDBRANCH   6   8
BRANCH   7  20
HETATM   20  C17 UNL     1       8.988  21.735  47.308  1.00  0.00     0.198 C
HETATM   21  C18 UNL     1      10.505  22.071  47.293  1.00  0.00     0.056 C
HETATM   22  C19 UNL     1       8.945  20.604  46.406  1.00  0.00     0.056 C
BRANCH  20  23
HETATM   23  N5  UNL     1       8.380  22.822  46.524  1.00  0.00     0.107 N
HETATM   24  C20 UNL     1       7.069  22.513  46.058  1.00  0.00     0.300 C
HETATM   25  C21 UNL     1       6.451  23.756  45.456  1.00  0.00     0.198 C
HETATM   26  O1  UNL     1       7.204  24.381  44.495  1.00  0.00    -0.388 OA
HETATM   27  C22 UNL     1       8.307  23.631  44.218  1.00  0.00     0.198 C
HETATM   28  C23 UNL     1       9.138  23.383  45.501  1.00  0.00     0.300 C
ENDBRANCH  20  23
ENDBRANCH   7  20
BRANCH   1  29
HETATM   29  C2  UNL     1       8.607  24.408  48.904  1.00  0.00     0.031 C
HETATM   30  C1  UNL     1      10.015  24.966  49.201  1.00  0.00     0.016 C
HETATM   31  C3  UNL     1       7.736  25.298  49.840  1.00  0.00     0.016 C
ENDBRANCH   1  29
TORSDOF 6
ENDMDL