MODEL 2
REMARK VINA RESULT: -7.100799882      1.976      2.506
REMARK  6 active torsions:
REMARK  status: ('A' for Active; 'I' for Inactive)
REMARK    1  A    between atoms: C2_2  and  C4_4
REMARK    2  A    between atoms: C6_8  and  O3_9
REMARK    3  A    between atoms: O3_9  and  C7_10
REMARK    4  A    between atoms: C7_10  and  C8_12
REMARK    5  A    between atoms: C17_21  and  O5_22
REMARK    6  A    between atoms: O5_22  and  C18_23
ROOT
HETATM    1  C4  UNL     1      11.316  18.582  47.156  1.00  0.00     0.122 C
HETATM    2  C5  UNL     1      10.450  17.816  48.122  1.00  0.00     0.270 C
HETATM    3  O1  UNL     1      10.168  16.620  47.846  1.00  0.00    -0.264 OA
HETATM    4  O2  UNL     1      10.008  18.462  49.261  1.00  0.00    -0.288 OA
HETATM    5  C6  UNL     1       9.355  19.765  49.150  1.00  0.00     0.284 C
HETATM    6  C10 UNL     1       9.547  20.170  47.747  1.00  0.00     0.064 C
HETATM    7  C11 UNL     1       9.086  21.524  47.330  1.00  0.00    -0.006 C
HETATM    8  C12 UNL     1      10.013  21.827  46.139  1.00  0.00     0.015 C
HETATM    9  C13 UNL     1      11.111  20.847  46.125  1.00  0.00     0.012 C
HETATM   10  C14 UNL     1      11.012  20.049  47.396  1.00  0.00    -0.018 C
HETATM   11  C15 UNL     1      11.948  20.570  48.426  1.00  0.00     0.017 C
HETATM   12  C16 UNL     1       9.324  22.601  48.312  1.00  0.00     0.047 C
HETATM   13  C17 UNL     1       8.357  23.754  48.309  1.00  0.00     0.136 C
HETATM   14  C20 UNL     1       7.786  24.009  46.949  1.00  0.00     0.060 C
HETATM   15  C21 UNL     1       7.126  22.717  46.599  1.00  0.00    -0.021 C
HETATM   16  C22 UNL     1       7.715  21.539  46.769  1.00  0.00    -0.078 C
HETATM   17  C23 UNL     1       6.983  20.289  46.379  1.00  0.00     0.044 C
ENDROOT
BRANCH   5  18
HETATM   18  O3  UNL     1       8.042  19.655  49.610  1.00  0.00    -0.289 OA
BRANCH  18  19
HETATM   19  C7  UNL     1       7.604  18.859  50.639  1.00  0.00     0.260 C
HETATM   20  O4  UNL     1       8.074  19.102  51.792  1.00  0.00    -0.265 OA
BRANCH  19  21
HETATM   21  C8  UNL     1       6.618  17.749  50.439  1.00  0.00     0.107 C
HETATM   22  C9  UNL     1       6.100  17.878  49.025  1.00  0.00     0.015 C
ENDBRANCH  19  21
ENDBRANCH  18  19
ENDBRANCH   5  18
BRANCH  13  23
HETATM   23  O5  UNL     1       8.916  24.877  48.927  1.00  0.00    -0.316 OA
BRANCH  23  24
HETATM   24  C18 UNL     1       8.439  25.418  50.114  1.00  0.00     0.255 C
HETATM   25  C19 UNL     1       8.013  26.824  50.264  1.00  0.00     0.126 C
HETATM   26  O6  UNL     1       8.382  24.642  51.086  1.00  0.00    -0.266 OA
ENDBRANCH  23  24
ENDBRANCH  13  23
BRANCH   1  27
HETATM   27  C2  UNL     1      12.724  18.217  47.285  1.00  0.00    -0.079 C
HETATM   28  C1  UNL     1      13.513  18.261  46.227  1.00  0.00     0.015 C
HETATM   29  C3  UNL     1      13.274  17.801  48.595  1.00  0.00     0.043 C
ENDBRANCH   1  27
TORSDOF 6
ENDMDL