MODEL 4
REMARK VINA RESULT: -7.353087253      1.960      5.202
REMARK  6 active torsions:
REMARK  status: ('A' for Active; 'I' for Inactive)
REMARK    1  A    between atoms: C2_2  and  C3_3
REMARK    2  A    between atoms: C3_3  and  C4_4
REMARK    3  A    between atoms: C4_4  and  C5_5
REMARK    4  A    between atoms: C5_5  and  C6_6
REMARK    5  A    between atoms: C6_6  and  O2_8
REMARK    6  A    between atoms: O2_8  and  C7_9
ROOT
HETATM    1  C7  UNL     1      12.792  18.171  46.836  1.00  0.00     0.233 C
HETATM    2  O3  UNL     1      13.727  18.530  47.853  1.00  0.00    -0.339 OA
HETATM    3  C8  UNL     1      13.003  19.406  48.610  1.00  0.00     0.189 C
HETATM    4  C9  UNL     1      13.696  20.258  49.576  1.00  0.00     0.064 C
HETATM    5  C10 UNL     1      12.669  20.341  50.715  1.00  0.00     0.174 C
HETATM    6  O4  UNL     1      11.593  19.522  50.328  1.00  0.00    -0.353 OA
HETATM    7  C11 UNL     1      12.161  18.519  49.544  1.00  0.00     0.187 C
HETATM    8  C12 UNL     1      13.059  17.719  50.465  1.00  0.00     0.082 C
HETATM    9  O5  UNL     1      11.342  17.794  48.781  1.00  0.00    -0.340 OA
HETATM   10  C13 UNL     1      11.512  17.678  47.447  1.00  0.00     0.219 C
HETATM   11  C14 UNL     1      11.274  16.202  47.096  1.00  0.00     0.155 C
HETATM   12  C15 UNL     1      10.143  15.752  48.034  1.00  0.00     0.042 C
HETATM   13  O6  UNL     1      12.353  15.406  47.376  1.00  0.00    -0.351 OA
HETATM   14  C16 UNL     1      13.575  15.890  47.046  1.00  0.00     0.298 C
HETATM   15  O7  UNL     1      14.386  15.085  46.295  1.00  0.00    -0.323 OA
HETATM   16  C17 UNL     1      15.037  15.882  45.354  1.00  0.00     0.161 C
HETATM   17  C18 UNL     1      14.474  15.490  43.992  1.00  0.00     0.078 C
HETATM   18  C19 UNL     1      16.517  15.685  45.325  1.00  0.00     0.078 C
HETATM   19  O8  UNL     1      14.682  17.219  45.653  1.00  0.00    -0.340 OA
HETATM   20  C20 UNL     1      13.386  17.057  46.064  1.00  0.00     0.245 C
ENDROOT
BRANCH   1  21
HETATM   21  O2  UNL     1      12.655  19.378  46.118  1.00  0.00    -0.277 OA
BRANCH  21  22
HETATM   22  C6  UNL     1      11.601  19.659  45.290  1.00  0.00     0.261 C
HETATM   23  O1  UNL     1      10.514  19.991  45.814  1.00  0.00    -0.265 OA
BRANCH  22  24
HETATM   24  C5  UNL     1      11.788  19.561  43.799  1.00  0.00     0.111 C
BRANCH  24  25
HETATM   25  C4  UNL     1      11.689  18.129  43.383  1.00  0.00     0.010 C
BRANCH  25  26
HETATM   26  C3  UNL     1      12.221  17.757  42.068  1.00  0.00     0.000 C
BRANCH  26  27
HETATM   27  C2  UNL     1      11.343  17.163  41.037  1.00  0.00    -0.005 C
HETATM   28  C1  UNL     1      11.310  17.832  39.715  1.00  0.00     0.005 C
ENDBRANCH  26  27
ENDBRANCH  25  26
ENDBRANCH  24  25
ENDBRANCH  22  24
ENDBRANCH  21  22
ENDBRANCH   1  21
TORSDOF 6
ENDMDL