MODEL 2
REMARK VINA RESULT: -6.940151383      1.926      2.898
REMARK  7 active torsions:
REMARK  status: ('A' for Active; 'I' for Inactive)
REMARK    1  A    between atoms: C2_2  and  N1_3
REMARK    2  A    between atoms: C3_4  and  O1_5
REMARK    3  A    between atoms: O1_5  and  C4_6
REMARK    4  A    between atoms: C4_6  and  C5_8
REMARK    5  A    between atoms: C8_13  and  C9_14
REMARK    6  A    between atoms: C9_14  and  C10_15
REMARK    7  A    between atoms: C10_15  and  O4_17
ROOT
HETATM    1  C4  UNL     1      12.709  18.297  46.309  1.00  0.00     0.303 C
HETATM    2  O2  UNL     1      13.421  19.283  46.727  1.00  0.00    -0.259 OA
ENDROOT
BRANCH   1   3
HETATM    3  O1  UNL     1      11.415  18.307  46.740  1.00  0.00    -0.290 OA
BRANCH   3   4
HETATM    4  C3  UNL     1      11.000  17.853  48.014  1.00  0.00     0.239 C
HETATM    5  N1  UNL     1      10.359  18.773  48.836  1.00  0.00    -0.369 N
HETATM    6  C14 UNL     1      11.154  19.497  49.706  1.00  0.00     0.079 C
HETATM    7  S2  UNL     1      12.535  18.333  50.043  1.00  0.00    -0.134 SA
HETATM    8  C15 UNL     1      11.781  20.759  49.173  1.00  0.00     0.042 C
HETATM    9  C18 UNL     1      10.601  19.932  51.009  1.00  0.00     0.042 C
HETATM   10  C13 UNL     1      12.118  17.138  48.724  1.00  0.00     0.130 C
HETATM   11  C16 UNL     1      10.839  21.852  49.584  1.00  0.00     0.003 C
HETATM   12  C17 UNL     1      10.122  21.353  50.825  1.00  0.00     0.003 C
BRANCH   5  13
HETATM   13  C2  UNL     1       9.012  18.471  49.169  1.00  0.00     0.116 C
HETATM   14  C1  UNL     1       8.006  19.366  48.499  1.00  0.00     0.026 C
ENDBRANCH   5  13
ENDBRANCH   3   4
ENDBRANCH   1   3
BRANCH   1  15
HETATM   15  C5  UNL     1      13.345  17.312  45.452  1.00  0.00     0.098 A
HETATM   16  C6  UNL     1      13.060  17.190  44.185  1.00  0.00     0.028 A
HETATM   17  C7  UNL     1      12.022  18.127  43.618  1.00  0.00     0.070 C
HETATM   18  N2  UNL     1      13.673  16.248  43.344  1.00  0.00    -0.364 N
HETATM   19  C8  UNL     1      14.546  15.388  43.583  1.00  0.00     0.005 A
ATOM     20  H2  UNL     1      13.351  16.268  42.376  1.00  0.00     0.165 HD
HETATM   21  C12 UNL     1      15.182  15.144  44.866  1.00  0.00     0.132 A
HETATM   22  S1  UNL     1      14.557  16.216  46.148  1.00  0.00    -0.116 SA
BRANCH  19  23
HETATM   23  C9  UNL     1      14.981  14.534  42.440  1.00  0.00     0.164 C
BRANCH  23  24
HETATM   24  C10 UNL     1      14.195  13.311  42.257  1.00  0.00     0.263 C
HETATM   25  O3  UNL     1      12.972  13.265  42.007  1.00  0.00    -0.265 OA
BRANCH  24  26
HETATM   26  O4  UNL     1      14.854  12.096  42.366  1.00  0.00    -0.326 OA
HETATM   27  C11 UNL     1      16.071  11.806  41.747  1.00  0.00     0.213 C
ENDBRANCH  24  26
ENDBRANCH  23  24
ENDBRANCH  19  23
ENDBRANCH   1  15
TORSDOF 7
ENDMDL