MODEL 2
REMARK VINA RESULT: -8.379857055      1.514      3.317
REMARK  7 active torsions:
REMARK  status: ('A' for Active; 'I' for Inactive)
REMARK    1  A    between atoms: C2_2  and  O1_3
REMARK    2  A    between atoms: O1_3  and  C3_4
REMARK    3  A    between atoms: C3_4  and  C4_6
REMARK    4  A    between atoms: C4_6  and  C5_7
REMARK    5  A    between atoms: C5_7  and  C6_8
REMARK    6  A    between atoms: C6_8  and  O4_10
REMARK    7  A    between atoms: O4_10  and  C7_11
ROOT
HETATM    1  C7  UNL     1      10.985  19.803  46.724  1.00  0.00     0.060 C
HETATM    2  C8  UNL     1       9.817  20.275  46.362  1.00  0.00     0.006 C
HETATM    3  C9  UNL     1       8.718  20.309  47.347  1.00  0.00     0.030 C
HETATM    4  C10 UNL     1       8.883  19.025  48.158  1.00  0.00     0.012 C
HETATM    5  C11 UNL     1      10.141  19.122  48.989  1.00  0.00     0.032 C
HETATM    6  C12 UNL     1      11.304  19.287  48.069  1.00  0.00     0.081 C
HETATM    7  C13 UNL     1      12.404  20.086  48.656  1.00  0.00     0.167 A
HETATM    8  O5  UNL     1      13.732  19.837  48.614  1.00  0.00    -0.369 OA
HETATM    9  C14 UNL     1      13.093  19.228  49.677  1.00  0.00     0.085 A
HETATM   10  C15 UNL     1      13.173  17.762  49.625  1.00  0.00     0.049 C
HETATM   11  C16 UNL     1      12.909  19.906  50.991  1.00  0.00     0.043 C
HETATM   12  C17 UNL     1      11.724  19.333  51.680  1.00  0.00     0.044 C
HETATM   13  C18 UNL     1      10.408  19.860  51.387  1.00  0.00     0.096 C
HETATM   14  C19 UNL     1      10.137  21.085  52.269  1.00  0.00     0.049 C
HETATM   15  O6  UNL     1       9.404  18.911  51.795  1.00  0.00    -0.284 OA
HETATM   16  C20 UNL     1       8.236  19.458  51.277  1.00  0.00     0.407 C
HETATM   17  O7  UNL     1       7.080  19.174  51.732  1.00  0.00    -0.229 OA
HETATM   18  O8  UNL     1       8.558  20.318  50.235  1.00  0.00    -0.289 OA
HETATM   19  C21 UNL     1       9.979  20.177  50.021  1.00  0.00     0.174 C
ENDROOT
BRANCH   1  20
HETATM   20  O4  UNL     1      11.981  19.794  45.763  1.00  0.00    -0.283 OA
BRANCH  20  21
HETATM   21  C6  UNL     1      11.997  19.000  44.640  1.00  0.00     0.264 C
HETATM   22  O3  UNL     1      11.576  19.479  43.557  1.00  0.00    -0.265 OA
BRANCH  21  23
HETATM   23  C5  UNL     1      12.495  17.585  44.664  1.00  0.00     0.121 C
BRANCH  23  24
HETATM   24  C4  UNL     1      12.552  17.137  43.224  1.00  0.00     0.121 C
BRANCH  24  25
HETATM   25  C3  UNL     1      13.591  16.090  42.994  1.00  0.00     0.259 C
HETATM   26  O2  UNL     1      13.935  15.692  41.870  1.00  0.00    -0.265 OA
BRANCH  25  27
HETATM   27  O1  UNL     1      14.182  15.553  44.113  1.00  0.00    -0.322 OA
BRANCH  27  28
HETATM   28  C2  UNL     1      15.482  15.045  44.168  1.00  0.00     0.174 C
HETATM   29  C1  UNL     1      16.226  15.541  45.391  1.00  0.00     0.034 C
ENDBRANCH  27  28
ENDBRANCH  25  27
ENDBRANCH  24  25
ENDBRANCH  23  24
ENDBRANCH  21  23
ENDBRANCH  20  21
ENDBRANCH   1  20
TORSDOF 7
ENDMDL