MODEL 2
REMARK VINA RESULT: -8.707692017      1.171      1.403
REMARK  6 active torsions:
REMARK  status: ('A' for Active; 'I' for Inactive)
REMARK    1  A    between atoms: C2_2  and  C4_5
REMARK    2  A    between atoms: C12_17  and  O5_18
REMARK    3  A    between atoms: O5_18  and  C13_19
REMARK    4  A    between atoms: C13_19  and  C14_21
REMARK    5  A    between atoms: C14_21  and  C15_22
REMARK    6  A    between atoms: C15_22  and  C16_23
ROOT
HETATM    1  C1  UNL     1       7.943  21.486  52.845  1.00  0.00     0.033 C
HETATM    2  C2  UNL     1       9.060  21.041  52.306  1.00  0.00     0.047 C
HETATM    3  C3  UNL     1       9.588  19.795  52.793  1.00  0.00     0.097 C
HETATM    4  N1  UNL     1      10.029  18.802  53.180  1.00  0.00    -0.192 NA
ENDROOT
BRANCH   2   5
HETATM    5  C4  UNL     1       9.689  21.836  51.254  1.00  0.00     0.235 C
HETATM    6  O1  UNL     1       9.123  23.110  51.290  1.00  0.00    -0.339 OA
HETATM    7  C5  UNL     1       9.001  23.561  50.003  1.00  0.00     0.162 C
HETATM    8  C6  UNL     1      10.059  24.655  49.810  1.00  0.00     0.078 C
HETATM    9  C7  UNL     1       7.663  24.226  49.767  1.00  0.00     0.078 C
HETATM   10  O2  UNL     1       9.276  22.555  49.121  1.00  0.00    -0.312 OA
HETATM   11  C8  UNL     1       9.467  21.375  49.867  1.00  0.00     0.234 C
HETATM   12  O3  UNL     1       8.321  20.589  49.679  1.00  0.00    -0.275 OA
HETATM   13  C20 UNL     1      10.686  20.728  49.316  1.00  0.00     0.012 C
HETATM   14  C9  UNL     1       8.178  19.806  48.567  1.00  0.00     0.272 C
HETATM   15  O4  UNL     1       7.063  19.305  48.307  1.00  0.00    -0.264 OA
HETATM   16  C10 UNL     1       9.316  19.557  47.694  1.00  0.00     0.139 C
HETATM   17  C11 UNL     1       9.208  20.273  46.357  1.00  0.00     0.027 C
HETATM   18  C12 UNL     1      10.626  19.879  48.302  1.00  0.00     0.077 C
HETATM   19  C21 UNL     1      12.020  21.055  49.932  1.00  0.00     0.052 C
BRANCH  18  20
HETATM   20  O5  UNL     1      11.748  19.260  47.769  1.00  0.00    -0.282 OA
BRANCH  20  21
HETATM   21  C13 UNL     1      11.925  17.873  47.860  1.00  0.00     0.264 C
HETATM   22  O6  UNL     1      12.030  17.424  49.041  1.00  0.00    -0.265 OA
BRANCH  21  23
HETATM   23  C14 UNL     1      11.986  16.995  46.689  1.00  0.00     0.118 C
BRANCH  23  24
HETATM   24  C15 UNL     1      12.462  17.800  45.507  1.00  0.00     0.075 C
BRANCH  24  25
HETATM   25  C16 UNL     1      13.073  16.960  44.452  1.00  0.00     0.053 A
HETATM   26  C17 UNL     1      12.796  17.063  43.102  1.00  0.00     0.034 A
HETATM   27  C18 UNL     1      13.557  16.115  42.431  1.00  0.00     0.027 A
HETATM   28  C19 UNL     1      14.269  15.475  43.445  1.00  0.00     0.142 A
HETATM   29  O7  UNL     1      13.944  16.014  44.609  1.00  0.00    -0.327 OA
ENDBRANCH  24  25
ENDBRANCH  23  24
ENDBRANCH  21  23
ENDBRANCH  20  21
ENDBRANCH  18  20
ENDBRANCH   2   5
TORSDOF 6
ENDMDL