MODEL 4
REMARK VINA RESULT: -7.362374417      1.753      2.619
REMARK  5 active torsions:
REMARK  status: ('A' for Active; 'I' for Inactive)
REMARK    1  A    between atoms: C3_3  and  C5_5
REMARK    2  A    between atoms: C5_5  and  C6_7
REMARK    3  A    between atoms: C6_7  and  S1_8
REMARK    4  A    between atoms: S1_8  and  C7_9
REMARK    5  A    between atoms: C8_10  and  C9_11
ROOT
HETATM    1  C1  UNL     1      15.862  20.730  50.020  1.00  0.00     0.013 C
HETATM    2  C2  UNL     1      14.691  20.450  49.989  1.00  0.00    -0.105 C
HETATM    3  C3  UNL     1      13.251  20.128  49.935  1.00  0.00     0.130 C
HETATM    4  C4  UNL     1      12.529  20.853  51.039  1.00  0.00     0.031 C
ENDROOT
BRANCH   3   5
HETATM    5  C5  UNL     1      13.069  18.665  50.006  1.00  0.00     0.151 C
HETATM    6  O1  UNL     1      12.378  18.180  50.851  1.00  0.00    -0.296 OA
BRANCH   5   7
HETATM    7  C6  UNL     1      13.762  17.774  49.008  1.00  0.00     0.159 C
BRANCH   7   8
HETATM    8  S1  UNL     1      12.689  17.011  47.868  1.00  0.00    -0.120 SA
BRANCH   8   9
HETATM    9  C7  UNL     1      12.312  17.885  46.329  1.00  0.00     0.038 A
HETATM   10  C8  UNL     1      11.437  18.888  46.252  1.00  0.00     0.042 A
HETATM   11  S3  UNL     1      11.197  19.078  44.535  1.00  0.00    -0.069 SA
HETATM   12  C13 UNL     1      12.236  17.869  43.999  1.00  0.00     0.098 A
HETATM   13  C14 UNL     1      12.750  17.337  45.138  1.00  0.00     0.085 A
HETATM   14  N2  UNL     1      12.539  17.465  42.744  1.00  0.00    -0.297 N
HETATM   15  C15 UNL     1      13.666  16.292  44.918  1.00  0.00     0.265 A
HETATM   16  O2  UNL     1      14.241  15.682  45.846  1.00  0.00    -0.267 OA
HETATM   17  N1  UNL     1      13.969  15.892  43.682  1.00  0.00    -0.270 N
HETATM   18  C16 UNL     1      14.923  14.807  43.489  1.00  0.00     0.164 C
HETATM   19  C17 UNL     1      13.427  16.451  42.567  1.00  0.00     0.331 A
HETATM   20  O3  UNL     1      13.722  16.063  41.421  1.00  0.00    -0.246 OA
HETATM   21  C18 UNL     1      11.952  18.063  41.576  1.00  0.00     0.162 C
BRANCH  10  22
HETATM   22  C9  UNL     1      10.890  19.880  47.214  1.00  0.00     0.023 A
HETATM   23  C10 UNL     1      11.055  21.235  47.262  1.00  0.00     0.021 A
HETATM   24  C11 UNL     1      10.359  21.916  48.180  1.00  0.00     0.008 A
HETATM   25  C12 UNL     1       9.529  21.205  49.010  1.00  0.00     0.050 A
HETATM   26  S2  UNL     1       9.761  19.606  48.463  1.00  0.00    -0.101 SA
ENDBRANCH  10  22
ENDBRANCH   8   9
ENDBRANCH   7   8
ENDBRANCH   5   7
ENDBRANCH   3   5
TORSDOF 5
ENDMDL