MODEL 1
REMARK VINA RESULT: -8.812441703      0.000      0.000
REMARK  8 active torsions:
REMARK  status: ('A' for Active; 'I' for Inactive)
REMARK    1  A    between atoms: C2_2  and  O2_4
REMARK    2  A    between atoms: O2_4  and  C3_5
REMARK    3  A    between atoms: C5_8  and  S1_9
REMARK    4  A    between atoms: S1_9  and  C6_10
REMARK    5  A    between atoms: C15_19  and  O4_20
REMARK    6  A    between atoms: O4_20  and  C16_21
REMARK    7  A    between atoms: C18_24  and  O6_25
REMARK    8  A    between atoms: O6_25  and  C19_26
ROOT
HETATM    1  C3  UNL     1       8.836  19.643  49.835  1.00  0.00     0.188 C
HETATM    2  C4  UNL     1       8.455  19.711  48.411  1.00  0.00     0.204 C
HETATM    3  O3  UNL     1       9.416  19.626  47.471  1.00  0.00    -0.370 OA
HETATM    4  C5  UNL     1      10.515  18.876  47.671  1.00  0.00     0.220 C
HETATM    5  C15 UNL     1      10.961  18.687  49.093  1.00  0.00     0.203 C
HETATM    6  C18 UNL     1      10.356  19.659  50.053  1.00  0.00     0.196 C
ENDROOT
BRANCH   4   7
HETATM    7  S1  UNL     1      11.898  19.669  46.753  1.00  0.00    -0.095 SA
BRANCH   7   8
HETATM    8  C6  UNL     1      12.519  18.462  45.591  1.00  0.00     0.004 A
HETATM    9  C7  UNL     1      12.037  18.435  44.293  1.00  0.00     0.026 A
HETATM   10  C8  UNL     1      12.484  17.528  43.362  1.00  0.00    -0.054 A
HETATM   11  C9  UNL     1      11.935  17.538  41.979  1.00  0.00     0.049 C
HETATM   12  C10 UNL     1      13.449  16.595  43.697  1.00  0.00    -0.050 A
HETATM   13  C11 UNL     1      13.920  15.624  42.676  1.00  0.00     0.049 C
HETATM   14  C12 UNL     1      13.939  16.608  44.982  1.00  0.00    -0.054 A
HETATM   15  C13 UNL     1      14.973  15.639  45.408  1.00  0.00     0.049 C
HETATM   16  C14 UNL     1      13.478  17.524  45.897  1.00  0.00     0.026 A
ENDBRANCH   7   8
ENDBRANCH   4   7
BRANCH   5  17
HETATM   17  O4  UNL     1      12.366  18.583  49.231  1.00  0.00    -0.310 OA
BRANCH  17  18
HETATM   18  C16 UNL     1      13.012  17.637  49.990  1.00  0.00     0.255 C
HETATM   19  C17 UNL     1      13.929  16.605  49.437  1.00  0.00     0.126 C
HETATM   20  O5  UNL     1      12.782  17.681  51.247  1.00  0.00    -0.266 OA
ENDBRANCH  17  18
ENDBRANCH   5  17
BRANCH   6  21
HETATM   21  O6  UNL     1      10.895  20.904  50.161  1.00  0.00    -0.311 OA
BRANCH  21  22
HETATM   22  C19 UNL     1      11.323  21.554  51.283  1.00  0.00     0.255 C
HETATM   23  C20 UNL     1      11.744  20.921  52.537  1.00  0.00     0.126 C
HETATM   24  O7  UNL     1      11.317  22.790  51.120  1.00  0.00    -0.266 OA
ENDBRANCH  21  22
ENDBRANCH   6  21
BRANCH   1  25
HETATM   25  O2  UNL     1       8.232  20.687  50.577  1.00  0.00    -0.311 OA
BRANCH  25  26
HETATM   26  C2  UNL     1       7.759  20.508  51.876  1.00  0.00     0.255 C
HETATM   27  C1  UNL     1       7.935  21.556  52.918  1.00  0.00     0.126 C
HETATM   28  O1  UNL     1       7.175  19.406  52.105  1.00  0.00    -0.266 OA
ENDBRANCH  25  26
ENDBRANCH   1  25
TORSDOF 8
ENDMDL