MODEL 5
REMARK VINA RESULT: -6.968527973      4.353      6.899
REMARK  10 active torsions:
REMARK  status: ('A' for Active; 'I' for Inactive)
REMARK    1  A    between atoms: C2_2  and  C3_3
REMARK    2  A    between atoms: C6_6  and  O1_7
REMARK    3  A    between atoms: O1_7  and  C7_8
REMARK    4  A    between atoms: C14_16  and  O3_17
REMARK    5  A    between atoms: O3_17  and  C15_18
REMARK    6  A    between atoms: C15_18  and  C16_20
REMARK    7  A    between atoms: C16_20  and  N1_21
REMARK    8  A    between atoms: C19_24  and  O5_25
REMARK    9  A    between atoms: O5_25  and  C20_26
REMARK   10  A    between atoms: C20_26  and  O7_28
ROOT
HETATM    1  C3  UNL     1      12.511  17.714  46.879  1.00  0.00     0.004 A
HETATM    2  C4  UNL     1      13.182  18.898  47.509  1.00  0.00     0.025 C
HETATM    3  C5  UNL     1      13.320  16.497  47.132  1.00  0.00     0.026 A
HETATM    4  C6  UNL     1      13.685  15.949  45.983  1.00  0.00     0.090 A
HETATM    5  C9  UNL     1      13.170  16.725  44.858  1.00  0.00     0.042 A
HETATM    6  C10 UNL     1      12.469  17.777  45.412  1.00  0.00    -0.029 A
HETATM    7  C11 UNL     1      11.869  18.680  44.545  1.00  0.00     0.019 A
HETATM    8  C12 UNL     1      11.990  18.499  43.184  1.00  0.00    -0.025 A
HETATM    9  C13 UNL     1      11.333  19.488  42.296  1.00  0.00     0.051 C
HETATM   10  C14 UNL     1      12.694  17.442  42.647  1.00  0.00     0.120 A
HETATM   11  C19 UNL     1      13.289  16.548  43.490  1.00  0.00     0.129 A
ENDROOT
BRANCH  10  12
HETATM   12  O3  UNL     1      12.759  17.347  41.264  1.00  0.00    -0.274 OA
BRANCH  12  13
HETATM   13  C15 UNL     1      11.598  17.223  40.485  1.00  0.00     0.292 C
HETATM   14  O4  UNL     1      10.658  16.576  41.013  1.00  0.00    -0.263 OA
BRANCH  13  15
HETATM   15  C16 UNL     1      11.456  17.796  39.140  1.00  0.00     0.382 C
BRANCH  15  16
HETATM   16  N1  UNL     1      10.229  18.520  38.957  1.00  0.00     0.089 N
HETATM   17  C17 UNL     1      10.509  19.872  38.510  1.00  0.00     0.310 C
HETATM   18  C18 UNL     1       9.404  17.906  37.933  1.00  0.00     0.310 C
ENDBRANCH  15  16
ENDBRANCH  13  15
ENDBRANCH  12  13
ENDBRANCH  10  12
BRANCH  11  19
HETATM   19  O5  UNL     1      13.988  15.497  42.946  1.00  0.00    -0.252 OA
BRANCH  19  20
HETATM   20  C20 UNL     1      13.420  14.302  42.546  1.00  0.00     0.411 C
HETATM   21  O6  UNL     1      12.189  14.272  42.285  1.00  0.00    -0.229 OA
BRANCH  20  22
HETATM   22  O7  UNL     1      14.141  13.121  42.411  1.00  0.00    -0.303 OA
HETATM   23  C21 UNL     1      15.536  13.040  42.423  1.00  0.00     0.215 C
ENDBRANCH  20  22
ENDBRANCH  19  20
ENDBRANCH  11  19
BRANCH   4  24
HETATM   24  O1  UNL     1      14.458  14.788  45.835  1.00  0.00    -0.279 OA
BRANCH  24  25
HETATM   25  C7  UNL     1      15.829  14.823  46.057  1.00  0.00     0.260 C
HETATM   26  C8  UNL     1      16.761  15.674  45.297  1.00  0.00     0.126 C
HETATM   27  O2  UNL     1      16.295  14.086  46.958  1.00  0.00    -0.265 OA
ENDBRANCH  24  25
ENDBRANCH   4  24
BRANCH   1  28
HETATM   28  C2  UNL     1      11.153  17.483  47.505  1.00  0.00     0.014 C
HETATM   29  C1  UNL     1      10.862  16.031  47.754  1.00  0.00     0.006 C
ENDBRANCH   1  28
TORSDOF 10
ENDMDL