MODEL 3
REMARK VINA RESULT: -6.995133688      2.835      3.417
REMARK  9 active torsions:
REMARK  status: ('A' for Active; 'I' for Inactive)
REMARK    1  A    between atoms: C2_2  and  C4_5
REMARK    2  A    between atoms: C4_5  and  O1_6
REMARK    3  A    between atoms: O1_6  and  C5_7
REMARK    4  A    between atoms: C5_7  and  C6_9
REMARK    5  A    between atoms: C6_9  and  C7_10
REMARK    6  A    between atoms: C10_14  and  S1_15
REMARK    7  A    between atoms: S1_15  and  S2_16
REMARK    8  A    between atoms: S2_16  and  C11_17
REMARK    9  A    between atoms: C11_17  and  N2_19
ROOT
HETATM    1  C1  UNL     1      13.289  16.425  42.952  1.00  0.00     0.033 C
HETATM    2  C2  UNL     1      13.973  15.299  42.928  1.00  0.00     0.037 C
HETATM    3  C3  UNL     1      13.383  14.093  42.437  1.00  0.00     0.096 C
HETATM    4  N1  UNL     1      12.897  13.114  42.053  1.00  0.00    -0.192 NA
ENDROOT
BRANCH   2   5
HETATM    5  C4  UNL     1      15.367  15.266  43.411  1.00  0.00     0.228 C
BRANCH   5   6
HETATM    6  O1  UNL     1      15.508  14.318  44.467  1.00  0.00    -0.316 OA
BRANCH   6   7
HETATM    7  C5  UNL     1      15.617  14.794  45.770  1.00  0.00     0.260 C
HETATM    8  O2  UNL     1      16.214  14.133  46.659  1.00  0.00    -0.265 OA
BRANCH   7   9
HETATM    9  C6  UNL     1      15.036  16.100  46.177  1.00  0.00     0.126 C
BRANCH   9  10
HETATM   10  C7  UNL     1      13.864  15.824  47.060  1.00  0.00     0.065 C
HETATM   11  C8  UNL     1      12.601  16.527  46.576  1.00  0.00     0.096 C
HETATM   12  C9  UNL     1      11.670  16.436  47.741  1.00  0.00     0.152 C
HETATM   13  O3  UNL     1      10.566  15.922  47.808  1.00  0.00    -0.296 OA
HETATM   14  C10 UNL     1      12.297  17.108  48.940  1.00  0.00     0.190 C
HETATM   15  S4  UNL     1      14.040  16.653  48.689  1.00  0.00    -0.139 SA
BRANCH  14  16
HETATM   16  S1  UNL     1      12.067  18.901  48.836  1.00  0.00    -0.067 SA
BRANCH  16  17
HETATM   17  S2  UNL     1       9.994  19.368  48.795  1.00  0.00    -0.026 SA
BRANCH  17  18
HETATM   18  C11 UNL     1       9.690  21.005  49.448  1.00  0.00     0.147 C
HETATM   19  S3  UNL     1       9.896  22.279  48.443  1.00  0.00    -0.052 SA
BRANCH  18  20
HETATM   20  N2  UNL     1       9.284  21.172  50.797  1.00  0.00    -0.366 N
HETATM   21  C12 UNL     1      10.030  20.727  51.958  1.00  0.00     0.124 C
HETATM   22  C13 UNL     1       8.914  20.511  52.974  1.00  0.00     0.021 C
HETATM   23  C14 UNL     1       8.021  21.705  52.710  1.00  0.00     0.021 C
HETATM   24  C15 UNL     1       8.055  21.815  51.214  1.00  0.00     0.124 C
ENDBRANCH  18  20
ENDBRANCH  17  18
ENDBRANCH  16  17
ENDBRANCH  14  16
ENDBRANCH   9  10
ENDBRANCH   7   9
ENDBRANCH   6   7
ENDBRANCH   5   6
ENDBRANCH   2   5
TORSDOF 9
ENDMDL