MODEL 1
REMARK VINA RESULT: -8.059332543      0.000      0.000
REMARK  5 active torsions:
REMARK  status: ('A' for Active; 'I' for Inactive)
REMARK    1  A    between atoms: C2_2  and  C3_3
REMARK    2  A    between atoms: C3_3  and  C4_4
REMARK    3  A    between atoms: N1_10  and  C8_11
REMARK    4  A    between atoms: C15_20  and  C16_21
REMARK    5  A    between atoms: N2_24  and  C18_25
ROOT
HETATM    1  C8  UNL     1       9.208  20.633  48.176  1.00  0.00     0.160 A
HETATM    2  C9  UNL     1       8.588  21.871  47.899  1.00  0.00     0.319 A
HETATM    3  O3  UNL     1       7.771  22.310  48.765  1.00  0.00    -0.257 OA
HETATM    4  O4  UNL     1       8.829  22.526  46.827  1.00  0.00    -0.278 OA
HETATM    5  C10 UNL     1       9.680  22.090  45.898  1.00  0.00     0.066 A
HETATM    6  C11 UNL     1       9.909  22.908  44.695  1.00  0.00     0.078 C
HETATM    7  C12 UNL     1      10.314  20.884  46.118  1.00  0.00     0.031 A
HETATM    8  C13 UNL     1      11.238  20.155  45.373  1.00  0.00    -0.016 A
HETATM    9  C14 UNL     1      11.643  20.588  44.011  1.00  0.00     0.052 C
HETATM   10  C15 UNL     1      11.559  18.997  46.087  1.00  0.00     0.088 A
HETATM   11  N2  UNL     1      10.855  18.986  47.244  1.00  0.00    -0.337 N
HETATM   12  C21 UNL     1      10.095  20.117  47.273  1.00  0.00     0.084 A
ENDROOT
BRANCH   1  13
HETATM   13  N1  UNL     1       8.809  20.021  49.376  1.00  0.00    -0.244 N
HETATM   14  C7  UNL     1       7.570  19.296  49.416  1.00  0.00     0.183 C
HETATM   15  C6  UNL     1       7.512  18.373  50.567  1.00  0.00     0.194 C
HETATM   16  O2  UNL     1       8.377  18.564  51.598  1.00  0.00    -0.346 OA
HETATM   17  C3  UNL     1       9.023  19.771  51.655  1.00  0.00     0.250 C
HETATM   18  O6  UNL     1       9.552  20.190  50.468  1.00  0.00    -0.229 OA
BRANCH  17  19
HETATM   19  C2  UNL     1      10.169  19.694  52.649  1.00  0.00     0.075 C
HETATM   20  C1  UNL     1      11.421  20.341  52.134  1.00  0.00     0.011 C
ENDBRANCH  17  19
BRANCH  17  21
HETATM   21  C4  UNL     1       8.090  20.815  52.177  1.00  0.00     0.186 C
HETATM   22  C5  UNL     1       8.272  22.269  51.937  1.00  0.00     0.097 C
HETATM   23  O1  UNL     1       7.101  20.501  52.848  1.00  0.00    -0.292 OA
ENDBRANCH  17  21
ENDBRANCH   1  13
BRANCH  11  24
HETATM   24  C18 UNL     1      10.944  18.004  48.259  1.00  0.00     0.082 C
HETATM   25  C19 UNL     1      10.909  16.568  47.790  1.00  0.00     0.032 C
HETATM   26  C20 UNL     1      12.191  18.172  49.154  1.00  0.00     0.032 C
ENDBRANCH  11  24
BRANCH  10  27
HETATM   27  C16 UNL     1      12.598  18.104  45.605  1.00  0.00     0.172 C
HETATM   28  C17 UNL     1      12.472  17.084  44.534  1.00  0.00     0.098 C
HETATM   29  O5  UNL     1      13.758  18.144  46.086  1.00  0.00    -0.291 OA
ENDBRANCH  10  27
TORSDOF 5
ENDMDL