MODEL 3
REMARK VINA RESULT: -7.332623734      3.888      8.383
REMARK  5 active torsions:
REMARK  status: ('A' for Active; 'I' for Inactive)
REMARK    1  A    between atoms: C2_2  and  C3_3
REMARK    2  A    between atoms: C5_6  and  C6_7
REMARK       I    between atoms: C6_7  and  N1_9
REMARK    3  A    between atoms: C13_17  and  S2_18
REMARK    4  A    between atoms: S2_18  and  C14_19
REMARK    5  A    between atoms: C17_25  and  N4_26
ROOT
HETATM    1  C3  UNL     1       8.822  21.374  51.590  1.00  0.00     0.036 A
HETATM    2  S1  UNL     1       8.291  21.859  50.043  1.00  0.00    -0.070 SA
HETATM    3  C4  UNL     1       9.323  20.888  49.103  1.00  0.00     0.118 A
HETATM    4  C5  UNL     1       9.703  20.523  47.799  1.00  0.00     0.102 A
HETATM    5  C13 UNL     1      10.682  19.608  47.980  1.00  0.00     0.104 A
HETATM    6  N2  UNL     1      10.860  19.451  49.273  1.00  0.00    -0.284 N
ATOM      7  H2  UNL     1      11.545  18.814  49.679  1.00  0.00     0.188 HD
HETATM    8  N3  UNL     1      10.031  20.232  50.005  1.00  0.00    -0.225 N
HETATM    9  C17 UNL     1       9.804  20.454  51.291  1.00  0.00     0.209 A
ENDROOT
BRANCH   4  10
HETATM   10  C6  UNL     1       9.087  21.089  46.615  1.00  0.00     0.259 C
HETATM   11  O1  UNL     1       8.071  20.511  46.118  1.00  0.00    -0.267 OA
HETATM   12  N1  UNL     1       9.560  22.259  45.977  1.00  0.00    -0.343 N
HETATM   13  C7  UNL     1       8.907  22.774  44.804  1.00  0.00     0.157 C
HETATM   14  C12 UNL     1      10.698  22.934  46.509  1.00  0.00     0.157 C
HETATM   15  C8  UNL     1       9.028  24.291  44.866  1.00  0.00     0.136 C
HETATM   16  C9  UNL     1       8.321  24.939  43.680  1.00  0.00     0.041 C
HETATM   17  O2  UNL     1      10.361  24.585  44.758  1.00  0.00    -0.378 OA
HETATM   18  C10 UNL     1      11.148  24.150  45.790  1.00  0.00     0.136 C
HETATM   19  C11 UNL     1      11.201  25.303  46.804  1.00  0.00     0.041 C
ENDBRANCH   4  10
BRANCH   5  20
HETATM   20  S2  UNL     1      11.545  18.789  46.658  1.00  0.00    -0.106 SA
BRANCH  20  21
HETATM   21  C14 UNL     1      12.081  17.142  47.196  1.00  0.00     0.045 C
HETATM   22  C15 UNL     1      12.860  16.469  46.112  1.00  0.00     0.021 C
HETATM   23  C16 UNL     1      10.959  16.318  47.737  1.00  0.00     0.021 C
ENDBRANCH  20  21
ENDBRANCH   5  20
BRANCH   1  24
HETATM   24  C2  UNL     1       8.347  21.830  52.946  1.00  0.00     0.046 C
HETATM   25  C1  UNL     1       7.211  20.888  53.314  1.00  0.00     0.010 C
ENDBRANCH   1  24
BRANCH   9  26
HETATM   26  N4  UNL     1      10.499  19.808  52.388  1.00  0.00    -0.095 N
HETATM   27  O3  UNL     1      10.093  18.765  52.885  1.00  0.00    -0.530 OA
HETATM   28  O4  UNL     1      11.629  20.377  52.874  1.00  0.00    -0.530 OA
ENDBRANCH   9  26
TORSDOF 5
ENDMDL