MODEL 2
REMARK VINA RESULT: -4.855240732      1.808      2.143
REMARK  4 active torsions:
REMARK  status: ('A' for Active; 'I' for Inactive)
REMARK    1  A    between atoms: C3_3  and  O1_4
REMARK    2  A    between atoms: C4_6  and  C15_21
REMARK    3  A    between atoms: C7_11  and  C8_13
REMARK    4  A    between atoms: C9_15  and  C10_16
ROOT
HETATM    1  C1  UNL     1      24.197   1.928  25.453  1.00  0.00     0.015 C
HETATM    2  C2  UNL     1      23.292   1.389  24.861  1.00  0.00    -0.076 C
HETATM    3  C3  UNL     1      22.201   0.761  24.184  1.00  0.00     0.158 C
HETATM    4  C4  UNL     1      21.582   1.649  23.081  1.00  0.00     0.069 C
HETATM    5 BR1  UNL     1      20.777   3.218  23.735  1.00  0.00    -0.081 Br
HETATM    6  C5  UNL     1      20.635   0.618  22.509  1.00  0.00     0.047 C
HETATM    7  C6  UNL     1      21.346  -0.694  22.622  1.00  0.00     0.109 C
HETATM    8 CL1  UNL     1      20.546  -1.809  23.783  1.00  0.00    -0.123 Cl
HETATM    9  C7  UNL     1      22.707  -0.301  23.217  1.00  0.00     0.100 C
HETATM   10 BR2  UNL     1      23.604  -1.739  24.055  1.00  0.00    -0.077 Br
ENDROOT
BRANCH   3  11
HETATM   11  O1  UNL     1      21.207   0.295  25.033  1.00  0.00    -0.374 OA
ATOM     12  H1  UNL     1      20.426   0.834  25.043  1.00  0.00     0.212 HD
ENDBRANCH   3  11
BRANCH   4  13
HETATM   13  C15 UNL     1      22.831   1.852  22.252  1.00  0.00     0.035 A
HETATM   14  C8  UNL     1      22.365   1.698  20.820  1.00  0.00     0.069 A
HETATM   15 CL2  UNL     1      23.284   0.601  19.790  1.00  0.00    -0.116 Cl
HETATM   16  C9  UNL     1      22.715   3.119  20.602  1.00  0.00     0.019 A
HETATM   17  C14 UNL     1      23.229   3.278  22.018  1.00  0.00     0.015 A
BRANCH  16  18
HETATM   18  C10 UNL     1      23.833   3.395  19.607  1.00  0.00    -0.046 C
HETATM   19  C11 UNL     1      25.196   3.060  20.078  1.00  0.00     0.015 C
HETATM   20  C12 UNL     1      23.519   2.762  18.267  1.00  0.00     0.015 C
HETATM   21  C13 UNL     1      23.790   4.913  19.375  1.00  0.00     0.015 C
ENDBRANCH  16  18
ENDBRANCH   4  13
TORSDOF 4
ENDMDL