MODEL 2
REMARK VINA RESULT: -5.634950842      3.581      5.034
REMARK  2 active torsions:
REMARK  status: ('A' for Active; 'I' for Inactive)
REMARK    1  A    between atoms: C2_2  and  C3_3
REMARK    2  A    between atoms: C3_3  and  O1_4
ROOT
HETATM    1  C1  UNL     1      25.463   2.723  19.536  1.00  0.00     0.018 C
HETATM    2  C2  UNL     1      23.992   2.612  19.388  1.00  0.00    -0.018 C
HETATM    3  C4  UNL     1      23.399   3.952  19.105  1.00  0.00     0.012 C
HETATM    4  C5  UNL     1      22.786   4.316  20.413  1.00  0.00     0.013 C
HETATM    5  C6  UNL     1      22.248   3.038  21.039  1.00  0.00    -0.004 A
HETATM    6  C7  UNL     1      23.284   2.093  20.618  1.00  0.00     0.007 C
HETATM    7  C8  UNL     1      24.059   2.509  21.851  1.00  0.00     0.019 C
HETATM    8  C9  UNL     1      22.741   2.648  22.459  1.00  0.00     0.006 A
HETATM    9  C10 UNL     1      22.045   1.638  23.256  1.00  0.00     0.105 A
HETATM   10 BR1  UNL     1      21.867  -0.147  22.691  1.00  0.00    -0.087 Br
HETATM   11  C11 UNL     1      20.730   2.386  23.044  1.00  0.00     0.127 A
HETATM   12 CL1  UNL     1      19.528   1.509  22.101  1.00  0.00    -0.103 Cl
HETATM   13 BR2  UNL     1      20.031   3.014  24.699  1.00  0.00    -0.065 Br
HETATM   14  C12 UNL     1      21.573   3.354  22.243  1.00  0.00     0.069 A
HETATM   15 BR3  UNL     1      21.449   5.155  22.997  1.00  0.00    -0.081 Br
ENDROOT
BRANCH   2  16
HETATM   16  C3  UNL     1      23.699   1.708  18.185  1.00  0.00     0.173 C
BRANCH  16  17
HETATM   17  O1  UNL     1      22.425   1.896  17.693  1.00  0.00    -0.400 OA
ATOM     18  H1  UNL     1      22.081   2.753  17.913  1.00  0.00     0.209 HD
ENDBRANCH  16  17
ENDBRANCH   2  16
TORSDOF 2
ENDMDL