MODEL 3
REMARK VINA RESULT: -4.279961828      1.646      2.375
REMARK  1 active torsions:
REMARK  status: ('A' for Active; 'I' for Inactive)
REMARK    1  A    between atoms: C5_5  and  O1_6
ROOT
HETATM    1  C1  UNL     1      22.163   3.643  20.547  1.00  0.00     0.017 C
HETATM    2  C2  UNL     1      22.118   2.364  21.405  1.00  0.00    -0.018 C
HETATM    3  C3  UNL     1      20.692   1.944  21.428  1.00  0.00     0.014 C
HETATM    4  C4  UNL     1      20.362   0.859  22.391  1.00  0.00     0.041 C
HETATM    5  C5  UNL     1      21.597   0.484  23.179  1.00  0.00     0.087 C
HETATM    6  C6  UNL     1      22.446  -0.444  22.400  1.00  0.00     0.053 C
HETATM    7  C7  UNL     1      23.238   0.099  21.298  1.00  0.00     0.001 A
HETATM    8  C8  UNL     1      24.597  -0.592  21.104  1.00  0.00     0.019 C
HETATM    9  C9  UNL     1      22.544   0.344  19.951  1.00  0.00     0.189 A
HETATM   10  F1  UNL     1      23.234   0.126  18.791  1.00  0.00    -0.248 F
HETATM   11  C10 UNL     1      23.083   1.425  20.819  1.00  0.00     0.006 A
HETATM   12  C11 UNL     1      24.368   2.132  20.348  1.00  0.00     0.020 C
HETATM   13  C12 UNL     1      22.298   1.669  23.741  1.00  0.00     0.120 C
HETATM   14 BR1  UNL     1      23.961   1.123  24.550  1.00  0.00    -0.068 Br
HETATM   15 BR2  UNL     1      21.176   2.376  25.177  1.00  0.00    -0.068 Br
HETATM   16  C13 UNL     1      22.544   2.777  22.785  1.00  0.00     0.100 C
HETATM   17 BR3  UNL     1      21.548   4.387  23.254  1.00  0.00    -0.088 Br
ENDROOT
BRANCH   5  18
HETATM   18  O1  UNL     1      21.110  -0.248  24.293  1.00  0.00    -0.387 OA
ATOM     19  H1  UNL     1      21.780  -0.152  24.960  1.00  0.00     0.210 HD
ENDBRANCH   5  18
TORSDOF 1
ENDMDL