MODEL 3
REMARK VINA RESULT: -6.984396209      2.869      4.655
REMARK  1 active torsions:
REMARK  status: ('A' for Active; 'I' for Inactive)
REMARK    1  A    between atoms: C12_17  and  O1_18
ROOT
HETATM    1  C1  UNL     1      23.593   1.605  24.388  1.00  0.00     0.012 C
HETATM    2  C2  UNL     1      22.637   1.867  23.245  1.00  0.00     0.008 C
HETATM    3  C3  UNL     1      21.287   1.395  23.642  1.00  0.00     0.094 C
HETATM    4 BR1  UNL     1      20.479   0.223  22.308  1.00  0.00    -0.089 Br
HETATM    5  C4  UNL     1      20.310   2.489  23.892  1.00  0.00     0.218 C
HETATM    6  N1  UNL     1      20.235   3.334  22.716  1.00  0.00    -0.058 N
ATOM      7  H11 UNL     1      19.394   3.873  22.507  1.00  0.00     0.278 HD
ATOM      8  H12 UNL     1      20.182   2.930  21.780  1.00  0.00     0.278 HD
HETATM    9  C5  UNL     1      21.441   3.985  23.181  1.00  0.00     0.148 C
HETATM   10  C6  UNL     1      21.364   5.465  23.093  1.00  0.00     0.041 C
HETATM   11  C7  UNL     1      22.630   6.105  22.574  1.00  0.00     0.003 C
HETATM   12  C8  UNL     1      22.637   5.822  21.112  1.00  0.00     0.011 C
HETATM   13  C9  UNL     1      23.496   4.639  20.722  1.00  0.00     0.064 C
HETATM   14  C10 UNL     1      23.401   4.641  19.217  1.00  0.00     0.180 C
HETATM   15  F1  UNL     1      23.388   5.954  18.783  1.00  0.00    -0.249 F
HETATM   16  C11 UNL     1      24.505   3.976  18.491  1.00  0.00     0.073 C
HETATM   17  C12 UNL     1      24.303   2.465  18.615  1.00  0.00     0.143 C
HETATM   18  C13 UNL     1      24.757   2.074  19.974  1.00  0.00     0.004 C
HETATM   19  C14 UNL     1      24.236   2.440  21.140  1.00  0.00     0.015 C
HETATM   20  C15 UNL     1      23.041   3.359  21.329  1.00  0.00     0.134 C
HETATM   21  F2  UNL     1      22.006   2.820  20.585  1.00  0.00    -0.238 F
HETATM   22  C16 UNL     1      22.690   3.326  22.758  1.00  0.00     0.072 C
HETATM   23  C17 UNL     1      21.041   3.592  24.586  1.00  0.00     0.126 C
HETATM   24 BR2  UNL     1      19.754   4.767  25.420  1.00  0.00    -0.086 Br
ENDROOT
BRANCH  17  25
HETATM   25  O1  UNL     1      25.021   1.813  17.620  1.00  0.00    -0.392 OA
ATOM     26  H1  UNL     1      25.738   1.328  18.009  1.00  0.00     0.210 HD
ENDBRANCH  17  25
TORSDOF 1
ENDMDL