MODEL 3
REMARK VINA RESULT: -6.378785533      3.034      6.351
REMARK  2 active torsions:
REMARK  status: ('A' for Active; 'I' for Inactive)
REMARK       I    between atoms: C2_4  and  N3_6
REMARK    1  A    between atoms: C21_25  and  N4_26
REMARK       I    between atoms: N4_26  and  C22_28
REMARK    2  A    between atoms: C22_28  and  C23_30
ROOT
HETATM    1  C1  UNL     1      23.386   4.042  21.731  1.00  0.00     0.148 C
HETATM    2  N1  UNL     1      22.483   3.288  22.572  1.00  0.00    -0.362 N
ATOM      3  H1  UNL     1      22.046   3.745  23.372  1.00  0.00     0.161 HD
HETATM    4  C2  UNL     1      22.220   2.057  22.331  1.00  0.00     0.290 C
HETATM    5  N2  UNL     1      22.836   1.465  21.230  1.00  0.00    -0.057 NA
HETATM    6  N3  UNL     1      21.277   1.391  23.237  1.00  0.00     0.008 N
HETATM    7  C3  UNL     1      20.078   2.321  22.914  1.00  0.00     0.285 C
HETATM    8  C4  UNL     1      20.867   0.219  22.647  1.00  0.00     0.253 C
HETATM    9  C5  UNL     1      20.664  -1.152  23.238  1.00  0.00     0.067 C
HETATM   10  C6  UNL     1      22.016  -1.688  23.801  1.00  0.00    -0.057 A
HETATM   11  C7  UNL     1      22.230  -1.669  25.154  1.00  0.00     0.007 A
HETATM   12  C8  UNL     1      23.528  -1.702  25.775  1.00  0.00     0.008 A
HETATM   13  C9  UNL     1      24.604  -1.757  24.944  1.00  0.00    -0.054 A
HETATM   14  C10 UNL     1      24.399  -1.813  23.596  1.00  0.00     0.008 A
HETATM   15  C11 UNL     1      23.105  -1.782  22.973  1.00  0.00     0.007 A
HETATM   16  C12 UNL     1      25.936  -1.330  25.541  1.00  0.00     0.077 C
HETATM   17  C13 UNL     1      25.869   0.030  26.180  1.00  0.00    -0.048 A
HETATM   18  C14 UNL     1      26.677   0.068  27.339  1.00  0.00     0.008 A
HETATM   19  C15 UNL     1      26.797   1.159  28.160  1.00  0.00     0.001 A
HETATM   20  C16 UNL     1      26.090   2.282  27.836  1.00  0.00     0.001 A
HETATM   21  C17 UNL     1      25.306   2.259  26.716  1.00  0.00     0.007 A
HETATM   22  C18 UNL     1      25.172   1.130  25.852  1.00  0.00    -0.051 A
HETATM   23  C19 UNL     1      24.254   1.492  24.703  1.00  0.00     0.043 C
HETATM   24  C20 UNL     1      22.957   2.071  25.058  1.00  0.00     0.060 C
HETATM   25  C21 UNL     1      21.624   1.645  24.573  1.00  0.00     0.300 C
ENDROOT
BRANCH  25  26
HETATM   26  N4  UNL     1      20.631   2.630  25.173  1.00  0.00    -0.325 N
HETATM   27  C22 UNL     1      20.519   2.875  26.545  1.00  0.00     0.327 C
HETATM   28  O1  UNL     1      21.283   2.243  27.316  1.00  0.00    -0.263 OA
ATOM     29  H4  UNL     1      20.013   3.139  24.540  1.00  0.00     0.164 HD
BRANCH  27  30
HETATM   30  C23 UNL     1      19.574   3.818  27.171  1.00  0.00     0.472 C
HETATM   31  F1  UNL     1      18.606   4.260  26.291  1.00  0.00    -0.162 F
HETATM   32  F2  UNL     1      20.196   4.963  27.642  1.00  0.00    -0.162 F
HETATM   33  F3  UNL     1      18.983   3.266  28.318  1.00  0.00    -0.162 F
ENDBRANCH  27  30
ENDBRANCH  25  26
TORSDOF 2
ENDMDL