MODEL 2
REMARK VINA RESULT: -4.086570419      3.445      5.445
REMARK  2 active torsions:
REMARK  status: ('A' for Active; 'I' for Inactive)
REMARK    1  A    between atoms: C5_5  and  O1_7
REMARK    2  A    between atoms: C8_11  and  O2_13
ROOT
HETATM    1  C1  UNL     1      22.801   0.198  18.303  1.00  0.00     0.011 C
HETATM    2  C2  UNL     1      23.548   0.580  19.518  1.00  0.00     0.003 C
HETATM    3  C3  UNL     1      25.020   0.315  19.289  1.00  0.00     0.009 C
HETATM    4  C4  UNL     1      25.740   1.414  18.611  1.00  0.00     0.040 C
HETATM    5  C5  UNL     1      25.488   2.789  19.176  1.00  0.00     0.076 C
HETATM    6  C6  UNL     1      26.203   3.759  18.222  1.00  0.00     0.047 C
HETATM    7  C7  UNL     1      24.023   3.025  19.212  1.00  0.00     0.098 C
HETATM    8 BR1  UNL     1      23.282   3.058  17.461  1.00  0.00    -0.077 Br
HETATM    9  C8  UNL     1      23.594   4.262  19.950  1.00  0.00     0.089 C
HETATM   10  C9  UNL     1      23.531   5.488  19.102  1.00  0.00     0.049 C
HETATM   11  C10 UNL     1      22.156   3.920  20.351  1.00  0.00     0.095 C
HETATM   12 BR2  UNL     1      21.757   4.538  22.128  1.00  0.00    -0.088 Br
HETATM   13  C11 UNL     1      21.988   2.443  20.189  1.00  0.00     0.042 C
HETATM   14  C12 UNL     1      23.376   1.942  20.034  1.00  0.00     0.046 C
HETATM   15 BR3  UNL     1      24.136   1.944  21.844  1.00  0.00    -0.083 Br
ENDROOT
BRANCH   5  16
HETATM   16  O1  UNL     1      26.122   2.968  20.406  1.00  0.00    -0.388 OA
ATOM     17  H1  UNL     1      26.084   3.873  20.694  1.00  0.00     0.210 HD
ENDBRANCH   5  16
BRANCH   9  18
HETATM   18  O2  UNL     1      24.284   4.497  21.110  1.00  0.00    -0.387 OA
ATOM     19  H2  UNL     1      24.744   5.327  21.132  1.00  0.00     0.210 HD
ENDBRANCH   9  18
TORSDOF 2
ENDMDL