MODEL 4
REMARK VINA RESULT: -4.075880271      3.027      4.163
REMARK  2 active torsions:
REMARK  status: ('A' for Active; 'I' for Inactive)
REMARK    1  A    between atoms: C10_12  and  O1_13
REMARK    2  A    between atoms: C12_17  and  N1_18
ROOT
HETATM    1  C1  UNL     1      19.911   2.618  23.663  1.00  0.00     0.030 C
HETATM    2  C2  UNL     1      21.383   2.534  23.223  1.00  0.00     0.047 C
HETATM    3 BR1  UNL     1      22.392   2.035  24.752  1.00  0.00    -0.083 Br
HETATM    4  C3  UNL     1      21.720   3.813  22.593  1.00  0.00     0.023 C
HETATM    5  C4  UNL     1      21.487   5.113  23.274  1.00  0.00     0.002 C
HETATM    6  C5  UNL     1      22.345   6.119  22.478  1.00  0.00     0.000 C
HETATM    7  C6  UNL     1      22.244   5.991  21.004  1.00  0.00     0.000 C
HETATM    8  C7  UNL     1      23.436   5.351  20.309  1.00  0.00     0.005 C
HETATM    9  C8  UNL     1      23.040   4.270  19.337  1.00  0.00     0.045 C
HETATM   10  C9  UNL     1      23.713   2.921  19.576  1.00  0.00    -0.000 C
HETATM   11 BR2  UNL     1      25.383   3.114  20.533  1.00  0.00    -0.057 Br
HETATM   12  C10 UNL     1      22.817   1.821  19.995  1.00  0.00     0.192 C
HETATM   13  C11 UNL     1      22.630   1.297  21.329  1.00  0.00     0.032 C
HETATM   14 BR3  UNL     1      24.162   1.382  22.517  1.00  0.00    -0.055 Br
HETATM   15  C12 UNL     1      21.374   1.471  22.111  1.00  0.00     0.241 C
ENDROOT
BRANCH  15  16
HETATM   16  N1  UNL     1      20.170   1.534  21.340  1.00  0.00    -0.069 N
ATOM     17  H13 UNL     1      19.421   1.999  21.853  1.00  0.00     0.275 HD
ATOM     18  H12 UNL     1      20.257   2.188  20.562  1.00  0.00     0.275 HD
ATOM     19  H11 UNL     1      19.885   0.608  21.019  1.00  0.00     0.275 HD
ENDBRANCH  15  16
BRANCH  12  20
HETATM   20  O1  UNL     1      21.558   2.160  19.417  1.00  0.00    -0.386 OA
ATOM     21  H1  UNL     1      21.777   2.447  18.538  1.00  0.00     0.210 HD
ENDBRANCH  12  20
TORSDOF 2
ENDMDL