MODEL 5
REMARK VINA RESULT: -5.562366469      2.885      4.116
REMARK  8 active torsions:
REMARK  status: ('A' for Active; 'I' for Inactive)
REMARK    1  A    between atoms: C2_2  and  C3_3
REMARK    2  A    between atoms: C2_2  and  C4_6
REMARK    3  A    between atoms: C2_2  and  N1_9
REMARK    4  A    between atoms: C3_3  and  O1_4
REMARK    5  A    between atoms: C4_6  and  O2_7
REMARK    6  A    between atoms: C5_10  and  C6_11
REMARK    7  A    between atoms: C6_11  and  N2_12
REMARK    8  A    between atoms: C12_23  and  N5_24
ROOT
HETATM    1  N1  UNL     1       5.870  -8.596   9.267  1.00  0.00    -0.315 N
HETATM    2  C5  UNL     1       5.543  -8.982  10.525  1.00  0.00     0.115 A
HETATM    3  N3  UNL     1       6.621  -9.514  11.181  1.00  0.00    -0.328 N
ATOM      4  H3  UNL     1       6.638  -9.877  12.135  1.00  0.00     0.168 HD
HETATM    5  C11 UNL     1       7.624  -9.465  10.345  1.00  0.00     0.152 A
HETATM    6  N4  UNL     1       8.901  -9.866  10.516  1.00  0.00    -0.174 N
ATOM      7  H4  UNL     1       9.186 -10.277  11.405  1.00  0.00     0.186 HD
HETATM    8  C12 UNL     1       9.802  -9.731   9.528  1.00  0.00     0.678 A
HETATM    9  N6  UNL     1       9.466  -9.203   8.361  1.00  0.00    -0.179 N
ATOM     10  H6  UNL     1      10.159  -9.105   7.618  1.00  0.00     0.185 HD
HETATM   11  C13 UNL     1       8.176  -8.790   8.165  1.00  0.00     0.147 A
HETATM   12  S1  UNL     1       7.849  -8.146   6.708  1.00  0.00    -0.057 SA
HETATM   13  C14 UNL     1       7.223  -8.900   9.126  1.00  0.00     0.121 A
ENDROOT
BRANCH   1  14
HETATM   14  C2  UNL     1       5.106  -8.008   8.232  1.00  0.00     0.077 C
HETATM   15  C1  UNL     1       3.731  -7.540   8.845  1.00  0.00     0.043 C
BRANCH  14  16
HETATM   16  C3  UNL     1       4.502  -8.931   7.193  1.00  0.00     0.197 C
BRANCH  16  17
HETATM   17  O1  UNL     1       3.110  -8.859   7.185  1.00  0.00    -0.398 OA
ATOM     18  H1  UNL     1       2.720  -9.615   6.762  1.00  0.00     0.209 HD
ENDBRANCH  16  17
ENDBRANCH  14  16
BRANCH  14  19
HETATM   19  C4  UNL     1       5.521  -6.633   7.756  1.00  0.00     0.197 C
BRANCH  19  20
HETATM   20  O2  UNL     1       4.832  -5.597   8.403  1.00  0.00    -0.398 OA
ATOM     21  H2  UNL     1       5.398  -4.879   8.662  1.00  0.00     0.209 HD
ENDBRANCH  19  20
ENDBRANCH  14  19
ENDBRANCH   1  14
BRANCH   2  22
HETATM   22  C6  UNL     1       4.240  -8.877  11.197  1.00  0.00     0.349 C
BRANCH  22  23
HETATM   23  N2  UNL     1       3.727 -10.286  11.417  1.00  0.00     0.099 N
HETATM   24  C7  UNL     1       3.291 -10.877  10.199  1.00  0.00     0.299 C
HETATM   25  C8  UNL     1       1.852 -11.368  10.441  1.00  0.00     0.198 C
HETATM   26  O3  UNL     1       1.780 -12.166  11.561  1.00  0.00    -0.388 OA
HETATM   27  C9  UNL     1       2.143 -11.536  12.731  1.00  0.00     0.198 C
HETATM   28  C10 UNL     1       2.654 -10.182  12.422  1.00  0.00     0.299 C
ENDBRANCH  22  23
ENDBRANCH   2  22
BRANCH   8  29
HETATM   29  N5  UNL     1      11.020 -10.117   9.699  1.00  0.00    -0.234 N
ATOM     30  H52 UNL     1      11.185 -11.051  10.075  1.00  0.00     0.174 HD
ATOM     31  H51 UNL     1      11.795  -9.499   9.461  1.00  0.00     0.174 HD
ENDBRANCH   8  29
TORSDOF 8
ENDMDL