MODEL 2
REMARK VINA RESULT: -7.263309082      1.664      2.129
REMARK  5 active torsions:
REMARK  status: ('A' for Active; 'I' for Inactive)
REMARK    1  A    between atoms: N1_1  and  C1_4
REMARK    2  A    between atoms: C2_7  and  N3_8
REMARK    3  A    between atoms: N3_8  and  C3_10
REMARK    4  A    between atoms: C3_10  and  C4_11
REMARK    5  A    between atoms: C6_13  and  N4_14
ROOT
HETATM    1  N3  UNL     1       2.010 -11.010  10.341  1.00  0.00    -0.368 N
ATOM      2  H3  UNL     1       2.455 -11.857   9.989  1.00  0.00     0.161 HD
ENDROOT
BRANCH   1   3
HETATM    3  C2  UNL     1       2.121  -9.926   9.677  1.00  0.00     0.148 A
HETATM    4  N2  UNL     1       1.048  -9.326   9.137  1.00  0.00    -0.175 N
HETATM    5  C1  UNL     1       1.237  -8.183   8.447  1.00  0.00     0.679 A
ATOM      6  H2  UNL     1       0.115  -9.725   9.245  1.00  0.00     0.186 HD
HETATM    7  N10 UNL     1       2.479  -7.642   8.297  1.00  0.00    -0.174 N
HETATM    8  C15 UNL     1       3.556  -8.238   8.836  1.00  0.00     0.154 A
ATOM      9  H10 UNL     1       2.592  -6.776   7.771  1.00  0.00     0.186 HD
HETATM   10  C12 UNL     1       3.415  -9.407   9.548  1.00  0.00     0.122 A
HETATM   11  N9  UNL     1       4.803  -7.739   8.713  1.00  0.00    -0.306 N
HETATM   12  N8  UNL     1       4.475 -10.046  10.112  1.00  0.00    -0.355 N
HETATM   13  C13 UNL     1       5.707  -9.520   9.970  1.00  0.00     0.163 A
ATOM     14  H8  UNL     1       4.339 -10.911  10.636  1.00  0.00     0.165 HD
HETATM   15  C14 UNL     1       5.877  -8.349   9.260  1.00  0.00     0.262 A
HETATM   16  O1  UNL     1       7.023  -7.827   9.106  1.00  0.00    -0.267 OA
ATOM     17  H9  UNL     1       4.940  -6.873   8.190  1.00  0.00     0.170 HD
BRANCH   5  18
HETATM   18  N1  UNL     1       0.204  -7.613   7.932  1.00  0.00    -0.234 N
ATOM     19  H12 UNL     1      -0.737  -7.872   8.229  1.00  0.00     0.174 HD
ATOM     20  H11 UNL     1       0.359  -6.898   7.222  1.00  0.00     0.174 HD
ENDBRANCH   5  18
ENDBRANCH   1   3
BRANCH   1  21
HETATM   21  C3  UNL     1       1.274 -11.064  11.570  1.00  0.00     0.178 C
BRANCH  21  22
HETATM   22  C4  UNL     1       2.145 -10.945  12.777  1.00  0.00     0.031 A
HETATM   23  C5  UNL     1       3.289 -11.715  12.792  1.00  0.00     0.075 A
HETATM   24  C6  UNL     1       4.164 -11.675  13.871  1.00  0.00     0.105 A
HETATM   25  N6  UNL     1       3.848 -10.855  14.893  1.00  0.00    -0.339 N
HETATM   26  C11 UNL     1       2.728 -10.111  14.860  1.00  0.00     0.182 A
ATOM     27  H6  UNL     1       4.466 -10.799  15.703  1.00  0.00     0.168 HD
HETATM   28  N7  UNL     1       1.873 -10.150  13.809  1.00  0.00    -0.354 N
ATOM     29  H7  UNL     1       1.029  -9.577  13.808  1.00  0.00     0.166 HD
BRANCH  24  30
HETATM   30  N4  UNL     1       5.344 -12.473  13.881  1.00  0.00    -0.364 N
HETATM   31  C7  UNL     1       6.194 -12.444  12.733  1.00  0.00     0.152 C
HETATM   32  C8  UNL     1       6.917 -13.742  12.491  1.00  0.00     0.252 C
HETATM   33  N5  UNL     1       7.211 -14.472  13.680  1.00  0.00    -0.072 N
HETATM   34  C9  UNL     1       7.115 -13.706  14.885  1.00  0.00     0.252 C
ATOM     35  H52 UNL     1       6.624 -15.304  13.740  1.00  0.00     0.277 HD
ATOM     36  H51 UNL     1       8.129 -14.911  13.610  1.00  0.00     0.277 HD
HETATM   37  C10 UNL     1       5.649 -13.277  15.028  1.00  0.00     0.152 C
ENDBRANCH  24  30
ENDBRANCH  21  22
ENDBRANCH   1  21
TORSDOF 5
ENDMDL