MODEL 5
REMARK VINA RESULT: -6.238718793      2.119      5.452
REMARK  8 active torsions:
REMARK  status: ('A' for Active; 'I' for Inactive)
REMARK    1  A    between atoms: N1_2  and  C2_4
REMARK    2  A    between atoms: C2_4  and  O1_5
REMARK    3  A    between atoms: C2_4  and  C10_14
REMARK    4  A    between atoms: O1_5  and  C3_6
REMARK    5  A    between atoms: C3_6  and  C4_7
REMARK    6  A    between atoms: C4_7  and  N2_8
REMARK    7  A    between atoms: C13_22  and  N6_23
REMARK    8  A    between atoms: C14_28  and  N8_29
ROOT
HETATM    1  C10 UNL     1       4.317  -8.625   9.032  1.00  0.00     0.102 A
HETATM    2  C11 UNL     1       3.612  -7.510   9.437  1.00  0.00     0.138 A
HETATM    3  N3  UNL     1       4.204  -6.447  10.212  1.00  0.00    -0.081 NA
HETATM    4  N4  UNL     1       2.315  -7.440   9.074  1.00  0.00    -0.295 N
ATOM      5  H4  UNL     1       1.751  -6.636   9.349  1.00  0.00     0.172 HD
HETATM    6  C12 UNL     1       1.767  -8.428   8.352  1.00  0.00     0.348 A
HETATM    7  O2  UNL     1       0.538  -8.352   8.015  1.00  0.00    -0.245 OA
HETATM    8  N5  UNL     1       2.429  -9.530   7.942  1.00  0.00    -0.079 N
HETATM    9  C13 UNL     1       1.793 -10.467   7.226  1.00  0.00     0.702 A
HETATM   10  N7  UNL     1       2.490 -11.542   6.847  1.00  0.00    -0.022 N
ATOM     11  H7  UNL     1       2.037 -12.275   6.301  1.00  0.00     0.203 HD
HETATM   12  C14 UNL     1       3.781 -11.662   7.181  1.00  0.00     0.692 A
HETATM   13  N9  UNL     1       4.410 -10.711   7.902  1.00  0.00    -0.174 N
ATOM     14  H9  UNL     1       5.395 -10.824   8.145  1.00  0.00     0.186 HD
HETATM   15  C15 UNL     1       3.745  -9.621   8.299  1.00  0.00     0.167 A
ENDROOT
BRANCH   1  16
HETATM   16  C2  UNL     1       5.754  -8.667   9.448  1.00  0.00     0.159 C
BRANCH  16  17
HETATM   17  N1  UNL     1       6.557  -7.924   8.820  1.00  0.00    -0.356 N
HETATM   18  C1  UNL     1       6.771  -7.345   7.609  1.00  0.00     0.120 C
ATOM     19  H1  UNL     1       7.319  -7.665   9.445  1.00  0.00     0.166 HD
ENDBRANCH  16  17
BRANCH  16  20
HETATM   20  O1  UNL     1       6.265  -9.432  10.438  1.00  0.00    -0.333 OA
BRANCH  20  21
HETATM   21  C3  UNL     1       6.024  -9.443  11.778  1.00  0.00     0.197 C
BRANCH  21  22
HETATM   22  C4  UNL     1       5.471 -10.829  12.238  1.00  0.00     0.153 C
BRANCH  22  23
HETATM   23  N2  UNL     1       4.248 -10.592  12.872  1.00  0.00    -0.372 N
HETATM   24  C5  UNL     1       3.106 -10.356  12.084  1.00  0.00     0.063 C
HETATM   25  C6  UNL     1       2.052 -11.374  12.472  1.00  0.00     0.045 C
HETATM   26  C7  UNL     1       1.720 -11.158  13.910  1.00  0.00     0.010 C
HETATM   27  C8  UNL     1       2.706 -10.338  14.669  1.00  0.00     0.045 C
HETATM   28  C9  UNL     1       4.146 -10.583  14.266  1.00  0.00     0.063 C
ENDBRANCH  22  23
ENDBRANCH  21  22
ENDBRANCH  20  21
ENDBRANCH  16  20
ENDBRANCH   1  16
BRANCH   9  29
HETATM   29  N6  UNL     1       0.537 -10.317   6.921  1.00  0.00    -0.233 N
ATOM     30  H62 UNL     1       0.118 -10.781   6.115  1.00  0.00     0.174 HD
ATOM     31  H61 UNL     1      -0.062  -9.723   7.493  1.00  0.00     0.174 HD
ENDBRANCH   9  29
BRANCH  12  32
HETATM   32  N8  UNL     1       4.458 -12.701   6.818  1.00  0.00    -0.234 N
ATOM     33  H82 UNL     1       5.386 -12.837   7.219  1.00  0.00     0.174 HD
ATOM     34  H81 UNL     1       4.067 -13.364   6.148  1.00  0.00     0.174 HD
ENDBRANCH  12  32
TORSDOF 8
ENDMDL