MODEL 2
REMARK VINA RESULT: -6.168728973      0.919      1.612
REMARK  7 active torsions:
REMARK  status: ('A' for Active; 'I' for Inactive)
REMARK    1  A    between atoms: C3_11  and  N4_12
REMARK    2  A    between atoms: N4_12  and  C4_14
REMARK    3  A    between atoms: C4_14  and  C5_15
REMARK    4  A    between atoms: C5_15  and  C6_16
REMARK    5  A    between atoms: C6_16  and  S2_17
REMARK    6  A    between atoms: S2_17  and  C7_18
REMARK    7  A    between atoms: C10_27  and  N8_28
ROOT
HETATM    1  N1  UNL     1       0.531 -10.163   9.686  1.00  0.00    -0.195 NA
HETATM    2  C1  UNL     1       1.244  -9.310   9.354  1.00  0.00     0.093 C
HETATM    3  C2  UNL     1       2.167  -8.244   8.930  1.00  0.00     0.269 C
HETATM    4  N2  UNL     1       3.062  -7.954  10.001  1.00  0.00    -0.278 N
ATOM      5  H2  UNL     1       2.916  -7.991  11.010  1.00  0.00     0.175 HD
HETATM    6  S1  UNL     1       4.489  -7.514   9.079  1.00  0.00     0.321 S
HETATM    7  O1  UNL     1       4.500  -6.041   8.796  1.00  0.00    -0.182 OA
HETATM    8  O2  UNL     1       5.721  -7.992   9.760  1.00  0.00    -0.182 OA
HETATM    9  N3  UNL     1       4.110  -8.418   7.659  1.00  0.00    -0.254 N
ATOM     10  H3  UNL     1       4.746  -8.667   6.902  1.00  0.00     0.181 HD
HETATM   11  C3  UNL     1       2.869  -8.714   7.748  1.00  0.00     0.126 C
ENDROOT
BRANCH  11  12
HETATM   12  N4  UNL     1       2.206  -9.481   6.712  1.00  0.00    -0.377 N
ATOM     13  H4  UNL     1       1.308  -9.162   6.347  1.00  0.00     0.160 HD
BRANCH  12  14
HETATM   14  C4  UNL     1       2.802 -10.693   6.189  1.00  0.00     0.121 C
BRANCH  14  15
HETATM   15  C5  UNL     1       2.761 -11.811   7.182  1.00  0.00     0.030 C
BRANCH  15  16
HETATM   16  C6  UNL     1       4.116 -12.077   7.804  1.00  0.00     0.084 C
BRANCH  16  17
HETATM   17  S2  UNL     1       4.011 -13.248   9.165  1.00  0.00    -0.094 SA
BRANCH  17  18
HETATM   18  C7  UNL     1       3.708 -12.427  10.718  1.00  0.00     0.146 A
HETATM   19  N5  UNL     1       4.629 -12.202  11.670  1.00  0.00    -0.321 N
HETATM   20  C8  UNL     1       4.046 -11.555  12.716  1.00  0.00     0.139 A
ATOM     21  H5  UNL     1       5.610 -12.474  11.617  1.00  0.00     0.169 HD
HETATM   22  N6  UNL     1       4.494 -11.099  13.900  1.00  0.00    -0.337 N
HETATM   23  C11 UNL     1       2.722 -11.380  12.388  1.00  0.00     0.123 A
HETATM   24  C9  UNL     1       3.650 -10.486  14.737  1.00  0.00     0.183 A
ATOM     25  H6  UNL     1       5.473 -11.221  14.158  1.00  0.00     0.168 HD
HETATM   26  N7  UNL     1       2.362 -10.295  14.460  1.00  0.00    -0.337 N
HETATM   27  C10 UNL     1       1.890 -10.742  13.282  1.00  0.00     0.131 A
ATOM     28  H7  UNL     1       1.749  -9.822  15.124  1.00  0.00     0.168 HD
HETATM   29  N9  UNL     1       2.546 -11.923  11.162  1.00  0.00    -0.331 N
ATOM     30  H9  UNL     1       1.663 -11.945  10.652  1.00  0.00     0.168 HD
BRANCH  27  31
HETATM   31  N8  UNL     1       0.624 -10.559  12.999  1.00  0.00    -0.383 N
ATOM     32  H82 UNL     1      -0.100 -10.840  13.659  1.00  0.00     0.157 HD
ATOM     33  H81 UNL     1       0.378 -10.131  12.107  1.00  0.00     0.157 HD
ENDBRANCH  27  31
ENDBRANCH  17  18
ENDBRANCH  16  17
ENDBRANCH  15  16
ENDBRANCH  14  15
ENDBRANCH  12  14
ENDBRANCH  11  12
TORSDOF 7
ENDMDL