MODEL 1
REMARK VINA RESULT: -7.442734387      0.000      0.000
REMARK  4 active torsions:
REMARK  status: ('A' for Active; 'I' for Inactive)
REMARK    1  A    between atoms: C3_8  and  C4_9
REMARK    2  A    between atoms: C7_12  and  N3_13
REMARK    3  A    between atoms: N4_16  and  C10_17
REMARK    4  A    between atoms: C10_17  and  C11_18
ROOT
HETATM    1  C4  UNL     1       8.158 -14.844  14.402  1.00  0.00     0.025 A
HETATM    2  C5  UNL     1       8.609 -13.635  13.924  1.00  0.00     0.020 A
HETATM    3  C6  UNL     1       7.722 -12.620  13.549  1.00  0.00     0.049 A
HETATM    4  C7  UNL     1       6.366 -12.830  13.660  1.00  0.00     0.103 A
HETATM    5  N9  UNL     1       5.963 -14.024  14.131  1.00  0.00    -0.351 N
ATOM      6  H9  UNL     1       4.960 -14.188  14.217  1.00  0.00     0.166 HD
HETATM    7  C15 UNL     1       6.795 -15.013  14.497  1.00  0.00     0.105 A
ENDROOT
BRANCH   4   8
HETATM    8  N3  UNL     1       5.413 -11.858  13.304  1.00  0.00    -0.364 N
HETATM    9  C8  UNL     1       4.401 -12.193  12.284  1.00  0.00     0.154 C
HETATM   10  C9  UNL     1       4.673 -11.220  11.138  1.00  0.00     0.292 C
HETATM   11  N4  UNL     1       4.564  -9.875  11.584  1.00  0.00     0.098 N
HETATM   12  C13 UNL     1       5.451  -9.555  12.681  1.00  0.00     0.292 C
HETATM   13  C14 UNL     1       5.302 -10.532  13.830  1.00  0.00     0.154 C
BRANCH  11  14
HETATM   14  C10 UNL     1       3.238  -9.380  11.768  1.00  0.00     0.350 C
BRANCH  14  15
HETATM   15  C11 UNL     1       2.799  -8.708  10.519  1.00  0.00     0.140 A
HETATM   16  N5  UNL     1       3.122  -7.440  10.127  1.00  0.00    -0.273 N
HETATM   17  N6  UNL     1       2.564  -7.158   8.979  1.00  0.00    -0.131 N
ATOM     18  H5  UNL     1       3.717  -6.802  10.656  1.00  0.00     0.189 HD
HETATM   19  C12 UNL     1       1.857  -8.222   8.579  1.00  0.00     0.691 A
ATOM     20  H6  UNL     1       2.652  -6.276   8.474  1.00  0.00     0.205 HD
HETATM   21  N7  UNL     1       1.167  -8.319   7.492  1.00  0.00    -0.233 N
HETATM   22  N8  UNL     1       2.011  -9.157   9.527  1.00  0.00    -0.176 N
ATOM     23  H72 UNL     1       1.051  -7.607   6.771  1.00  0.00     0.174 HD
ATOM     24  H71 UNL     1       0.628  -9.130   7.187  1.00  0.00     0.174 HD
ATOM     25  H8  UNL     1       1.587 -10.085   9.500  1.00  0.00     0.185 HD
ENDBRANCH  14  15
ENDBRANCH  11  14
ENDBRANCH   4   8
BRANCH   1  26
HETATM   26  C3  UNL     1       9.075 -15.906  14.794  1.00  0.00     0.131 A
HETATM   27  N2  UNL     1      10.380 -15.684  15.030  1.00  0.00    -0.347 N
HETATM   28  C2  UNL     1      11.217 -16.685  15.393  1.00  0.00     0.139 A
ATOM     29  H2  UNL     1      10.748 -14.738  14.933  1.00  0.00     0.167 HD
HETATM   30  C1  UNL     1      10.748 -17.975  15.533  1.00  0.00     0.129 A
HETATM   31  N1  UNL     1      11.514 -18.969  15.880  1.00  0.00    -0.383 N
HETATM   32  N11 UNL     1       9.438 -18.166  15.290  1.00  0.00    -0.283 N
ATOM     33  H12 UNL     1      12.507 -18.824  16.064  1.00  0.00     0.157 HD
ATOM     34  H11 UNL     1      11.167 -19.922  15.983  1.00  0.00     0.157 HD
HETATM   35  N10 UNL     1       8.629 -17.167  14.932  1.00  0.00    -0.283 N
ATOM     36  H11 UNL     1       9.052 -19.106  15.383  1.00  0.00     0.188 HD
ATOM     37  H10 UNL     1       7.644 -17.366  14.758  1.00  0.00     0.188 HD
ENDBRANCH   1  26
TORSDOF 4
ENDMDL