MODEL 5
REMARK VINA RESULT: -7.038629539      2.559      3.798
REMARK  6 active torsions:
REMARK  status: ('A' for Active; 'I' for Inactive)
REMARK    1  A    between atoms: C2_2  and  N1_3
REMARK    2  A    between atoms: C4_8  and  O2_9
REMARK    3  A    between atoms: C5_11  and  C6_12
REMARK    4  A    between atoms: C6_12  and  C8_14
REMARK    5  A    between atoms: C8_14  and  C9_15
REMARK    6  A    between atoms: C12_20  and  N4_21
ROOT
HETATM    1  C9  UNL     1       5.035  -9.082  10.850  1.00  0.00     0.085 A
HETATM    2  N3  UNL     1       3.737  -9.225  11.092  1.00  0.00    -0.326 N
ATOM      3  H3  UNL     1       3.107  -8.870  10.372  1.00  0.00     0.169 HD
HETATM    4  C10 UNL     1       3.158  -9.771  12.149  1.00  0.00     0.165 A
HETATM    5  C11 UNL     1       3.962 -10.266  13.150  1.00  0.00     0.126 A
HETATM    6  C12 UNL     1       5.341 -10.143  12.946  1.00  0.00     0.120 A
HETATM    7  N5  UNL     1       5.846  -9.579  11.849  1.00  0.00    -0.331 N
ATOM      8  H5  UNL     1       6.858  -9.513  11.746  1.00  0.00     0.168 HD
HETATM    9  C13 UNL     1       3.370 -10.815  14.335  1.00  0.00     0.261 C
HETATM   10  O3  UNL     1       4.087 -11.271  15.250  1.00  0.00    -0.267 OA
HETATM   11  N6  UNL     1       1.928 -10.825  14.442  1.00  0.00    -0.335 N
ATOM     12  H6  UNL     1       1.486 -10.998  15.345  1.00  0.00     0.164 HD
HETATM   13  C14 UNL     1       1.114 -10.593  13.276  1.00  0.00     0.303 C
HETATM   14  O4  UNL     1       1.778  -9.872  12.303  1.00  0.00    -0.315 OA
ENDROOT
BRANCH   1  15
HETATM   15  C8  UNL     1       5.663  -8.438   9.683  1.00  0.00     0.086 C
BRANCH  15  16
HETATM   16  C6  UNL     1       4.684  -7.979   8.668  1.00  0.00     0.031 C
HETATM   17  C7  UNL     1       5.323  -6.884   7.852  1.00  0.00     0.016 C
BRANCH  16  18
HETATM   18  C5  UNL     1       4.250  -9.043   7.745  1.00  0.00     0.065 A
HETATM   19  C4  UNL     1       2.880  -9.264   7.711  1.00  0.00     0.156 A
HETATM   20  N2  UNL     1       2.331 -10.220   6.956  1.00  0.00    -0.288 N
HETATM   21  C3  UNL     1       3.156 -10.984   6.209  1.00  0.00     0.331 A
ATOM     22  H2  UNL     1       1.321 -10.367   6.944  1.00  0.00     0.172 HD
HETATM   23  N1  UNL     1       4.466 -10.836   6.186  1.00  0.00    -0.266 N
HETATM   24  O1  UNL     1       2.639 -11.886   5.497  1.00  0.00    -0.246 OA
HETATM   25  C15 UNL     1       5.040  -9.857   6.958  1.00  0.00     0.262 A
HETATM   26  O5  UNL     1       6.284  -9.710   6.952  1.00  0.00    -0.267 OA
BRANCH  19  27
HETATM   27  O2  UNL     1       1.977  -8.494   8.473  1.00  0.00    -0.345 OA
ATOM     28  H2  UNL     1       1.671  -8.897   9.277  1.00  0.00     0.219 HD
ENDBRANCH  19  27
BRANCH  23  29
HETATM   29  C2  UNL     1       5.332 -11.637   5.398  1.00  0.00     0.132 C
HETATM   30  C1  UNL     1       5.587 -11.161   3.996  1.00  0.00     0.027 C
ENDBRANCH  23  29
ENDBRANCH  16  18
ENDBRANCH  15  16
ENDBRANCH   1  15
BRANCH   6  31
HETATM   31  N4  UNL     1       6.066 -10.621  13.900  1.00  0.00    -0.384 N
ATOM     32  H42 UNL     1       5.698 -10.861  14.820  1.00  0.00     0.157 HD
ATOM     33  H41 UNL     1       7.050 -10.739  13.662  1.00  0.00     0.157 HD
ENDBRANCH   6  31
TORSDOF 6
ENDMDL