MODEL 1
REMARK VINA RESULT: -6.978305462      0.000      0.000
REMARK  5 active torsions:
REMARK  status: ('A' for Active; 'I' for Inactive)
REMARK    1  A    between atoms: N1_1  and  C1_4
REMARK    2  A    between atoms: C4_12  and  S1_13
REMARK    3  A    between atoms: S1_13  and  C5_14
REMARK    4  A    between atoms: C5_14  and  C6_15
REMARK    5  A    between atoms: C9_20  and  N5_21
ROOT
HETATM    1  S1  UNL     1       8.029 -10.599   9.303  1.00  0.00    -0.088 SA
ENDROOT
BRANCH   1   2
HETATM    2  C4  UNL     1       6.466  -9.750   9.147  1.00  0.00     0.146 A
HETATM    3  N3  UNL     1       6.064  -8.586   9.685  1.00  0.00    -0.329 N
HETATM    4  C3  UNL     1       4.784  -8.330   9.288  1.00  0.00     0.148 A
ATOM      5  H3  UNL     1       6.626  -7.989  10.292  1.00  0.00     0.168 HD
HETATM    6  C2  UNL     1       3.899  -7.295   9.539  1.00  0.00     0.290 A
HETATM    7  C14 UNL     1       4.393  -9.362   8.490  1.00  0.00     0.155 A
HETATM    8  N2  UNL     1       2.664  -7.316   8.994  1.00  0.00    -0.154 N
HETATM    9  O1  UNL     1       4.224  -6.330  10.269  1.00  0.00    -0.265 OA
HETATM   10  C1  UNL     1       2.284  -8.336   8.206  1.00  0.00     0.680 A
ATOM     11  H2  UNL     1       2.015  -6.552   9.181  1.00  0.00     0.187 HD
HETATM   12  N9  UNL     1       3.156  -9.334   7.973  1.00  0.00    -0.174 N
ATOM     13  H9  UNL     1       2.862 -10.106   7.374  1.00  0.00     0.186 HD
HETATM   14  N8  UNL     1       5.443 -10.224   8.415  1.00  0.00    -0.320 N
ATOM     15  H8  UNL     1       5.452 -11.095   7.886  1.00  0.00     0.169 HD
BRANCH  10  16
HETATM   16  N1  UNL     1       1.102  -8.321   7.705  1.00  0.00    -0.234 N
ATOM     17  H12 UNL     1       0.739  -7.527   7.178  1.00  0.00     0.174 HD
ATOM     18  H11 UNL     1       0.502  -9.135   7.840  1.00  0.00     0.174 HD
ENDBRANCH  10  16
ENDBRANCH   1   2
BRANCH   1  19
HETATM   19  C5  UNL     1       8.107 -11.322  10.949  1.00  0.00     0.140 C
BRANCH  19  20
HETATM   20  C6  UNL     1       7.200 -10.669  11.915  1.00  0.00     0.037 A
HETATM   21  C7  UNL     1       7.727  -9.747  12.797  1.00  0.00     0.044 A
HETATM   22  C8  UNL     1       6.944  -9.090  13.733  1.00  0.00     0.108 A
HETATM   23  N4  UNL     1       5.635  -9.401  13.737  1.00  0.00    -0.202 N
HETATM   24  C9  UNL     1       5.074 -10.289  12.900  1.00  0.00     0.680 A
ATOM     25  H4  UNL     1       5.033  -8.934  14.415  1.00  0.00     0.183 HD
HETATM   26  N7  UNL     1       5.880 -10.910  11.996  1.00  0.00    -0.195 N
ATOM     27  H7  UNL     1       5.465 -11.587  11.355  1.00  0.00     0.184 HD
BRANCH  24  28
HETATM   28  N5  UNL     1       3.669 -10.583  12.947  1.00  0.00    -0.214 N
HETATM   29  C10 UNL     1       3.208 -11.473  13.965  1.00  0.00     0.168 C
HETATM   30  C11 UNL     1       1.802 -11.251  14.404  1.00  0.00     0.252 C
HETATM   31  N6  UNL     1       1.005 -10.468  13.517  1.00  0.00    -0.072 N
HETATM   32  C12 UNL     1       1.436 -10.706  12.131  1.00  0.00     0.252 C
ATOM     33  H62 UNL     1       0.007 -10.637  13.645  1.00  0.00     0.277 HD
ATOM     34  H61 UNL     1       1.017  -9.478  13.761  1.00  0.00     0.277 HD
HETATM   35  C13 UNL     1       2.761  -9.987  11.982  1.00  0.00     0.168 C
ENDBRANCH  24  28
ENDBRANCH  19  20
ENDBRANCH   1  19
TORSDOF 5
ENDMDL