MODEL 2
REMARK VINA RESULT: -6.574952639      2.818      6.097
REMARK  7 active torsions:
REMARK  status: ('A' for Active; 'I' for Inactive)
REMARK    1  A    between atoms: C2_2  and  C3_3
REMARK    2  A    between atoms: C3_3  and  C4_4
REMARK    3  A    between atoms: C5_7  and  N2_8
REMARK    4  A    between atoms: N2_8  and  C6_10
REMARK    5  A    between atoms: C10_21  and  C11_22
REMARK    6  A    between atoms: C11_22  and  C12_23
REMARK    7  A    between atoms: C14_30  and  O2_31
ROOT
HETATM    1  C4  UNL     1       4.849  -8.931  10.329  1.00  0.00     0.099 A
HETATM    2  N1  UNL     1       5.280  -9.233  11.562  1.00  0.00    -0.178 N
ATOM      3  H1  UNL     1       6.224  -8.979  11.852  1.00  0.00     0.185 HD
HETATM    4  C5  UNL     1       4.461  -9.873  12.414  1.00  0.00     0.709 A
HETATM    5  N5  UNL     1       3.205 -10.233  12.090  1.00  0.00    -0.069 N
HETATM    6  N6  UNL     1       2.228 -10.840  12.695  1.00  0.00    -0.288 N
ATOM      7  H6  UNL     1       2.275 -11.185  13.653  1.00  0.00     0.187 HD
HETATM    8  C9  UNL     1       1.139 -10.957  11.898  1.00  0.00     0.123 A
HETATM    9  C10 UNL     1       1.473 -10.371  10.695  1.00  0.00     0.030 A
HETATM   10  C15 UNL     1       2.770  -9.927  10.841  1.00  0.00     0.158 A
HETATM   11  N9  UNL     1       3.597  -9.289   9.999  1.00  0.00    -0.329 N
ATOM     12  H9  UNL     1       3.258  -9.066   9.062  1.00  0.00     0.168 HD
ENDROOT
BRANCH   9  13
HETATM   13  C11 UNL     1       0.697 -10.260   9.611  1.00  0.00     0.051 C
BRANCH  13  14
HETATM   14  C12 UNL     1       1.252 -10.265   8.276  1.00  0.00     0.088 A
HETATM   15  N7  UNL     1       1.788 -11.338   7.665  1.00  0.00    -0.305 N
HETATM   16  C13 UNL     1       2.209 -10.989   6.429  1.00  0.00     0.326 A
ATOM     17  H7  UNL     1       1.864 -12.270   8.073  1.00  0.00     0.171 HD
HETATM   18  O1  UNL     1       2.765 -11.761   5.578  1.00  0.00    -0.247 OA
HETATM   19  N8  UNL     1       1.951  -9.689   6.226  1.00  0.00    -0.287 N
HETATM   20  C14 UNL     1       1.361  -9.238   7.362  1.00  0.00     0.171 A
ATOM     21  H8  UNL     1       2.157  -9.148   5.387  1.00  0.00     0.172 HD
BRANCH  20  22
HETATM   22  O2  UNL     1       0.945  -7.946   7.543  1.00  0.00    -0.344 OA
ATOM     23  H2  UNL     1       1.318  -7.173   7.135  1.00  0.00     0.219 HD
ENDBRANCH  20  22
ENDBRANCH  13  14
ENDBRANCH   9  13
BRANCH   4  24
HETATM   24  N2  UNL     1       4.908 -10.146  13.590  1.00  0.00    -0.159 N
ATOM     25  H2  UNL     1       4.858  -9.432  14.316  1.00  0.00     0.187 HD
BRANCH  24  26
HETATM   26  C6  UNL     1       5.467 -11.405  13.903  1.00  0.00     0.190 C
HETATM   27  N3  UNL     1       4.924 -12.212  14.767  1.00  0.00    -0.360 N
HETATM   28  C7  UNL     1       5.700 -13.420  14.891  1.00  0.00     0.142 C
ATOM     29  H3  UNL     1       4.067 -12.018  15.285  1.00  0.00     0.162 HD
HETATM   30  C8  UNL     1       7.035 -13.006  14.310  1.00  0.00     0.142 C
HETATM   31  N4  UNL     1       6.644 -11.979  13.370  1.00  0.00    -0.360 N
ATOM     32  H4  UNL     1       7.118 -11.722  12.505  1.00  0.00     0.162 HD
ENDBRANCH  24  26
ENDBRANCH   4  24
BRANCH   1  33
HETATM   33  C3  UNL     1       5.713  -8.220   9.329  1.00  0.00     0.077 C
BRANCH  33  34
HETATM   34  C2  UNL     1       4.780  -7.500   8.371  1.00  0.00     0.003 C
HETATM   35  C1  UNL     1       5.624  -6.479   7.629  1.00  0.00     0.005 C
ENDBRANCH  33  34
ENDBRANCH   1  33
TORSDOF 7
ENDMDL