MODEL 1
REMARK VINA RESULT: -6.286684426      0.000      0.000
REMARK  6 active torsions:
REMARK  status: ('A' for Active; 'I' for Inactive)
REMARK    1  A    between atoms: C10_14  and  N3_15
REMARK    2  A    between atoms: N3_15  and  C11_16
REMARK    3  A    between atoms: N3_15  and  C13_22
REMARK    4  A    between atoms: C11_16  and  C12_17
REMARK    5  A    between atoms: C12_17  and  N4_18
REMARK    6  A    between atoms: C15_27  and  N7_28
ROOT
HETATM    1  N3  UNL     1       2.544  -9.731   8.803  1.00  0.00    -0.338 N
ENDROOT
BRANCH   1   2
HETATM    2  C10 UNL     1       2.605 -10.221  10.127  1.00  0.00     0.043 A
HETATM    3  C2  UNL     1       1.549 -10.652  10.851  1.00  0.00    -0.033 A
HETATM    4  C1  UNL     1       0.154 -10.609  10.361  1.00  0.00     0.050 C
HETATM    5  C3  UNL     1       1.705 -11.180  12.149  1.00  0.00     0.040 A
HETATM    6  C4  UNL     1       2.967 -11.252  12.687  1.00  0.00     0.060 A
HETATM    7  N1  UNL     1       3.180 -11.752  13.937  1.00  0.00    -0.359 N
HETATM    8  C8  UNL     1       4.053 -10.818  11.964  1.00  0.00     0.066 A
HETATM    9  C5  UNL     1       4.432 -11.806  14.426  1.00  0.00     0.163 A
ATOM     10  H1  UNL     1       2.395 -12.083  14.498  1.00  0.00     0.165 HD
HETATM   11  C6  UNL     1       5.508 -11.361  13.676  1.00  0.00     0.263 A
HETATM   12  O1  UNL     1       6.658 -11.433  14.179  1.00  0.00    -0.267 OA
HETATM   13  N2  UNL     1       5.333 -10.864  12.441  1.00  0.00    -0.316 N
HETATM   14  C7  UNL     1       6.441 -10.388  11.628  1.00  0.00     0.160 C
HETATM   15  C9  UNL     1       3.900 -10.312  10.714  1.00  0.00     0.062 A
ENDBRANCH   1   2
BRANCH   1  16
HETATM   16  C11 UNL     1       2.000  -8.383   8.551  1.00  0.00     0.157 C
BRANCH  16  17
HETATM   17  C12 UNL     1       2.604  -7.278   9.307  1.00  0.00     0.249 C
BRANCH  17  18
HETATM   18  N4  UNL     1       3.920  -6.891   8.909  1.00  0.00    -0.078 N
ATOM     19  H43 UNL     1       4.603  -7.255   9.572  1.00  0.00     0.274 HD
ATOM     20  H42 UNL     1       4.191  -7.399   8.067  1.00  0.00     0.274 HD
ATOM     21  H41 UNL     1       4.070  -5.891   8.771  1.00  0.00     0.274 HD
ENDBRANCH  17  18
ENDBRANCH  16  17
ENDBRANCH   1  16
BRANCH   1  22
HETATM   22  C13 UNL     1       3.174 -10.321   7.698  1.00  0.00     0.146 A
HETATM   23  C14 UNL     1       4.433 -10.113   7.202  1.00  0.00     0.164 A
HETATM   24  N5  UNL     1       5.370  -9.280   7.837  1.00  0.00    -0.080 NA
HETATM   25  N6  UNL     1       4.897 -10.735   6.080  1.00  0.00    -0.177 N
HETATM   26  C15 UNL     1       4.117 -11.591   5.414  1.00  0.00     0.680 A
ATOM     27  H6  UNL     1       5.843 -10.547   5.749  1.00  0.00     0.185 HD
HETATM   28  N8  UNL     1       2.874 -11.812   5.884  1.00  0.00    -0.154 N
HETATM   29  C16 UNL     1       2.374 -11.236   6.966  1.00  0.00     0.290 A
ATOM     30  H8  UNL     1       2.280 -12.466   5.374  1.00  0.00     0.187 HD
HETATM   31  O2  UNL     1       1.189 -11.495   7.350  1.00  0.00    -0.265 OA
BRANCH  26  32
HETATM   32  N7  UNL     1       4.521 -12.198   4.348  1.00  0.00    -0.234 N
ATOM     33  H72 UNL     1       3.891 -12.306   3.553  1.00  0.00     0.174 HD
ATOM     34  H71 UNL     1       5.463 -12.581   4.269  1.00  0.00     0.174 HD
ENDBRANCH  26  32
ENDBRANCH   1  22
TORSDOF 6
ENDMDL