MODEL 4
REMARK VINA RESULT: -6.939315706      4.724      6.168
REMARK  5 active torsions:
REMARK  status: ('A' for Active; 'I' for Inactive)
REMARK    1  A    between atoms: N1_1  and  C1_4
REMARK    2  A    between atoms: N3_8  and  C3_10
REMARK    3  A    between atoms: C3_10  and  C4_11
REMARK    4  A    between atoms: C4_11  and  N4_12
REMARK    5  A    between atoms: N10_30  and  C12_31
ROOT
HETATM    1  C1  UNL     1       2.476  -9.262   7.611  1.00  0.00     0.145 A
HETATM    2  N2  UNL     1       3.663  -8.579   7.631  1.00  0.00    -0.175 N
ATOM      3  H2  UNL     1       4.057  -8.228   6.758  1.00  0.00     0.186 HD
HETATM    4  C2  UNL     1       4.312  -8.367   8.784  1.00  0.00     0.681 A
HETATM    5  N3  UNL     1       5.406  -7.735   8.789  1.00  0.00    -0.224 N
ATOM      6  H3  UNL     1       5.840  -7.615   9.704  1.00  0.00     0.177 HD
HETATM    7  N8  UNL     1       3.835  -8.809   9.966  1.00  0.00    -0.174 N
ATOM      8  H8  UNL     1       4.344  -8.637  10.833  1.00  0.00     0.186 HD
HETATM    9  C9  UNL     1       2.671  -9.483   9.969  1.00  0.00     0.157 A
HETATM   10  C10 UNL     1       1.960  -9.728   8.801  1.00  0.00     0.123 A
HETATM   11  N9  UNL     1       0.830 -10.426   9.118  1.00  0.00    -0.346 N
ATOM     12  H9  UNL     1       0.111 -10.751   8.470  1.00  0.00     0.167 HD
HETATM   13  C11 UNL     1       0.853 -10.601  10.452  1.00  0.00     0.188 A
HETATM   14  N10 UNL     1       1.952 -10.042  10.987  1.00  0.00    -0.299 N
ENDROOT
BRANCH   5  15
HETATM   15  C3  UNL     1       6.120  -7.167   7.689  1.00  0.00     0.157 C
BRANCH  15  16
HETATM   16  C4  UNL     1       7.204  -8.174   7.284  1.00  0.00     0.141 C
BRANCH  16  17
HETATM   17  N4  UNL     1       8.448  -7.788   7.915  1.00  0.00    -0.375 N
HETATM   18  C5  UNL     1       9.444  -7.489   7.164  1.00  0.00     0.104 A
HETATM   19  C6  UNL     1       9.360  -7.524   5.791  1.00  0.00     0.093 A
HETATM   20  N7  UNL     1      10.599  -7.133   7.746  1.00  0.00    -0.339 N
HETATM   21  C7  UNL     1      10.476  -7.188   5.043  1.00  0.00     0.120 A
HETATM   22  N5  UNL     1      10.383  -7.226   3.634  1.00  0.00    -0.083 NA
HETATM   23  N6  UNL     1      11.601  -6.841   5.669  1.00  0.00    -0.341 N
HETATM   24  C8  UNL     1      11.676  -6.809   6.993  1.00  0.00     0.183 A
ATOM     25  H6  UNL     1      12.423  -6.594   5.117  1.00  0.00     0.167 HD
ATOM     26  H7  UNL     1      10.666  -7.107   8.763  1.00  0.00     0.168 HD
ATOM     27  H4  UNL     1       8.530  -7.756   8.931  1.00  0.00     0.161 HD
ENDBRANCH  16  17
ENDBRANCH  15  16
ENDBRANCH   5  15
BRANCH   1  28
HETATM   28  N1  UNL     1       1.840  -9.472   6.499  1.00  0.00    -0.383 N
ATOM     29  H12 UNL     1       2.350  -9.509   5.617  1.00  0.00     0.157 HD
ATOM     30  H11 UNL     1       0.828  -9.604   6.485  1.00  0.00     0.157 HD
ENDBRANCH   1  28
BRANCH  14  31
HETATM   31  C12 UNL     1       2.314 -10.029  12.375  1.00  0.00     0.230 C
HETATM   32  C13 UNL     1       1.597 -11.044  13.198  1.00  0.00     0.056 C
HETATM   33  C14 UNL     1       2.691 -11.679  14.012  1.00  0.00     0.031 C
HETATM   34  C15 UNL     1       3.923 -11.343  13.211  1.00  0.00     0.170 C
HETATM   35  O1  UNL     1       3.660 -10.194  12.506  1.00  0.00    -0.366 OA
ENDBRANCH  14  31
TORSDOF 5
ENDMDL