MODEL 4
REMARK VINA RESULT: -9.191026123      3.192      9.235
REMARK  5 active torsions:
REMARK  status: ('A' for Active; 'I' for Inactive)
REMARK    1  A    between atoms: O1_1  and  C1_3
REMARK    2  A    between atoms: C2_4  and  O2_5
REMARK    3  A    between atoms: C2_4  and  C3_7
REMARK    4  A    between atoms: C4_8  and  C5_9
REMARK    5  A    between atoms: C9_13  and  C10_14
ROOT
HETATM    1  C1  UNL     1      24.316   5.605  21.004  1.00  0.00     0.183 A
HETATM    2  C2  UNL     1      24.266   4.624  19.906  1.00  0.00     0.162 A
HETATM    3  C12 UNL     1      23.148   5.525  20.081  1.00  0.00     0.066 A
HETATM    4  C13 UNL     1      21.917   4.982  20.827  1.00  0.00     0.061 C
HETATM    5  C14 UNL     1      21.490   6.144  21.690  1.00  0.00    -0.043 A
HETATM    6  C15 UNL     1      21.349   6.034  23.024  1.00  0.00     0.050 A
HETATM    7  C16 UNL     1      20.849   7.117  23.742  1.00  0.00     0.117 A
HETATM    8  F4  UNL     1      20.705   7.004  25.082  1.00  0.00    -0.206 F
HETATM    9  C17 UNL     1      20.520   8.263  23.068  1.00  0.00     0.043 A
HETATM   10  C18 UNL     1      20.671   8.377  21.693  1.00  0.00     0.016 A
HETATM   11  C19 UNL     1      21.165   7.290  20.987  1.00  0.00    -0.018 A
HETATM   12  C20 UNL     1      21.752   7.527  19.689  1.00  0.00    -0.007 A
HETATM   13  C21 UNL     1      22.725   6.608  19.196  1.00  0.00    -0.030 A
HETATM   14  C22 UNL     1      23.274   6.768  17.959  1.00  0.00     0.010 A
HETATM   15  C23 UNL     1      22.894   7.816  17.174  1.00  0.00     0.013 A
HETATM   16  C24 UNL     1      21.939   8.710  17.638  1.00  0.00    -0.025 A
HETATM   17  C25 UNL     1      21.455   9.671  16.773  1.00  0.00     0.012 A
HETATM   18  C26 UNL     1      20.412  10.474  17.111  1.00  0.00     0.001 A
HETATM   19  C27 UNL     1      19.815  10.325  18.343  1.00  0.00     0.001 A
HETATM   20  C28 UNL     1      20.290   9.362  19.241  1.00  0.00     0.013 A
HETATM   21  C29 UNL     1      21.346   8.574  18.905  1.00  0.00    -0.014 A
ENDROOT
BRANCH   1  22
HETATM   22  O1  UNL     1      24.261   5.103  22.303  1.00  0.00    -0.390 OA
ATOM     23  H1  UNL     1      24.990   4.566  22.589  1.00  0.00     0.210 HD
ENDBRANCH   1  22
BRANCH   2  24
HETATM   24  O2  UNL     1      25.316   4.741  19.016  1.00  0.00    -0.373 OA
ATOM     25  H2  UNL     1      26.117   5.062  19.416  1.00  0.00     0.212 HD
ENDBRANCH   2  24
BRANCH   2  26
HETATM   26  C3  UNL     1      23.970   3.207  20.248  1.00  0.00    -0.059 C
HETATM   27  C4  UNL     1      23.752   2.044  20.557  1.00  0.00    -0.064 C
BRANCH  27  28
HETATM   28  C5  UNL     1      23.533   0.687  20.948  1.00  0.00     0.018 A
HETATM   29  C6  UNL     1      24.197  -0.350  20.332  1.00  0.00     0.020 A
HETATM   30  C7  UNL     1      23.984  -1.664  20.731  1.00  0.00     0.002 A
HETATM   31  C8  UNL     1      23.120  -2.001  21.735  1.00  0.00     0.016 A
HETATM   32  C9  UNL     1      22.436  -0.951  22.368  1.00  0.00     0.049 A
HETATM   33  C11 UNL     1      22.657   0.353  21.963  1.00  0.00     0.036 A
BRANCH  32  34
HETATM   34  C10 UNL     1      21.480  -1.199  23.479  1.00  0.00     0.417 C
HETATM   35  F1  UNL     1      21.883  -2.262  24.271  1.00  0.00    -0.166 F
HETATM   36  F2  UNL     1      21.362  -0.038  24.214  1.00  0.00    -0.166 F
HETATM   37  F3  UNL     1      20.224  -1.525  22.995  1.00  0.00    -0.166 F
ENDBRANCH  32  34
ENDBRANCH  27  28
ENDBRANCH   2  26
TORSDOF 5
ENDMDL