MODEL 4
REMARK VINA RESULT: -7.587908865      1.270      1.460
REMARK  2 active torsions:
REMARK  status: ('A' for Active; 'I' for Inactive)
REMARK    1  A    between atoms: C7_7  and  O1_8
REMARK    2  A    between atoms: C22_26  and  C23_27
ROOT
HETATM    1  C1  UNL     1      24.953  -0.144  20.370  1.00  0.00     0.044 C
HETATM    2  C2  UNL     1      24.371   1.212  20.650  1.00  0.00    -0.070 C
HETATM    3  C3  UNL     1      24.020   1.377  21.900  1.00  0.00    -0.018 C
HETATM    4  C4  UNL     1      23.429   2.481  22.639  1.00  0.00     0.022 C
HETATM    5  C5  UNL     1      22.422   3.262  21.833  1.00  0.00     0.031 C
HETATM    6  C6  UNL     1      21.226   2.410  21.618  1.00  0.00     0.042 C
HETATM    7  C7  UNL     1      20.553   2.254  22.996  1.00  0.00     0.127 C
HETATM    8  C8  UNL     1      21.475   1.449  23.878  1.00  0.00    -0.014 C
HETATM    9  C9  UNL     1      21.487   0.018  23.473  1.00  0.00     0.018 C
HETATM   10  C10 UNL     1      20.906   1.499  25.305  1.00  0.00     0.013 C
HETATM   11  C11 UNL     1      21.858   0.879  26.293  1.00  0.00     0.016 C
HETATM   12  C12 UNL     1      23.247   1.440  26.236  1.00  0.00     0.058 C
HETATM   13 BR1  UNL     1      24.370   0.365  27.384  1.00  0.00    -0.091 Br
HETATM   14  C13 UNL     1      23.779   1.332  24.822  1.00  0.00     0.022 C
HETATM   15  C14 UNL     1      22.809   2.103  23.948  1.00  0.00     0.006 C
HETATM   16  C15 UNL     1      22.997   3.934  20.680  1.00  0.00    -0.021 A
HETATM   17  C16 UNL     1      23.817   3.440  19.692  1.00  0.00    -0.033 A
HETATM   18  C17 UNL     1      24.301   4.297  18.688  1.00  0.00     0.009 A
HETATM   19  C18 UNL     1      23.962   5.632  18.675  1.00  0.00     0.009 A
HETATM   20  C19 UNL     1      23.141   6.123  19.661  1.00  0.00    -0.037 A
HETATM   21  C20 UNL     1      22.775   7.560  19.647  1.00  0.00     0.050 C
HETATM   22  C21 UNL     1      22.668   5.284  20.647  1.00  0.00     0.059 A
HETATM   23  N1  UNL     1      21.822   5.754  21.676  1.00  0.00    -0.101 NA
HETATM   24  C22 UNL     1      24.309   2.083  19.472  1.00  0.00     0.155 C
ENDROOT
BRANCH  24  25
HETATM   25  C23 UNL     1      23.671   1.385  18.306  1.00  0.00     0.399 C
HETATM   26  F1  UNL     1      22.909   2.242  17.507  1.00  0.00    -0.170 F
HETATM   27  F2  UNL     1      22.860   0.336  18.653  1.00  0.00    -0.170 F
HETATM   28  F3  UNL     1      24.628   0.897  17.416  1.00  0.00    -0.170 F
ENDBRANCH  24  25
BRANCH   7  29
HETATM   29  O1  UNL     1      19.295   1.720  22.895  1.00  0.00    -0.395 OA
ATOM     30  H1  UNL     1      19.226   0.884  23.342  1.00  0.00     0.210 HD
ENDBRANCH   7  29
TORSDOF 2
ENDMDL