MODEL 5
REMARK VINA RESULT: -4.619283496      1.471      1.742
REMARK  1 active torsions:
REMARK  status: ('A' for Active; 'I' for Inactive)
REMARK    1  A    between atoms: C11_16  and  O1_18
ROOT
HETATM    1  C1  UNL     1      22.755   2.316  20.371  1.00  0.00     0.043 C
HETATM    2  C2  UNL     1      23.370   1.065  20.871  1.00  0.00    -0.079 C
HETATM    3  C3  UNL     1      24.569   0.576  20.142  1.00  0.00     0.043 C
HETATM    4  C4  UNL     1      22.911   0.331  21.881  1.00  0.00    -0.017 C
HETATM    5  C5  UNL     1      23.629  -0.881  22.264  1.00  0.00     0.237 C
HETATM    6  N1  UNL     1      24.319  -0.999  23.497  1.00  0.00     0.031 N
HETATM    7  C6  UNL     1      25.120  -2.262  23.319  1.00  0.00     0.308 C
HETATM    8  C7  UNL     1      25.278  -0.026  23.854  1.00  0.00     0.271 C
HETATM    9  C8  UNL     1      25.183   0.650  25.170  1.00  0.00     0.046 C
HETATM   10  C9  UNL     1      24.325   0.024  26.218  1.00  0.00     0.120 C
HETATM   11  C10 UNL     1      23.895  -1.346  25.822  1.00  0.00     0.347 C
HETATM   12  F1  UNL     1      25.042  -2.180  25.885  1.00  0.00    -0.181 F
HETATM   13  F2  UNL     1      23.031  -1.973  26.681  1.00  0.00    -0.181 F
HETATM   14  N2  UNL     1      23.405  -1.358  24.486  1.00  0.00    -0.182 N
ATOM     15  H2  UNL     1      22.443  -1.615  24.265  1.00  0.00     0.194 HD
HETATM   16  C11 UNL     1      23.298   0.914  26.859  1.00  0.00     0.086 C
HETATM   17  C12 UNL     1      23.877   2.328  26.817  1.00  0.00     0.048 C
HETATM   18  C13 UNL     1      21.894   0.748  26.571  1.00  0.00     0.146 C
HETATM   19 CL1  UNL     1      20.971   0.116  28.013  1.00  0.00    -0.117 Cl
HETATM   20  C14 UNL     1      21.022   1.803  26.028  1.00  0.00    -0.057 C
HETATM   21  C15 UNL     1      20.476   2.757  26.732  1.00  0.00    -0.084 C
HETATM   22  C16 UNL     1      19.616   3.771  26.041  1.00  0.00     0.043 C
HETATM   23  C17 UNL     1      20.575   2.880  28.193  1.00  0.00     0.043 C
HETATM   24  C18 UNL     1      20.611   1.733  24.569  1.00  0.00     0.037 C
HETATM   25  C19 UNL     1      21.703   1.777  23.578  1.00  0.00     0.025 C
HETATM   26  C20 UNL     1      21.630   0.783  22.479  1.00  0.00     0.092 C
HETATM   27 BR1  UNL     1      20.505  -0.761  22.908  1.00  0.00    -0.086 Br
ENDROOT
BRANCH  16  28
HETATM   28  O1  UNL     1      23.466   0.613  28.274  1.00  0.00    -0.388 OA
ATOM     29  H1  UNL     1      22.617   0.843  28.633  1.00  0.00     0.210 HD
ENDBRANCH  16  28
TORSDOF 1
ENDMDL