MODEL 4
REMARK VINA RESULT: -4.147094551      3.134      4.586
REMARK  1 active torsions:
REMARK  status: ('A' for Active; 'I' for Inactive)
REMARK    1  A    between atoms: C10_13  and  N1_14
ROOT
HETATM    1  C1  UNL     1      23.980  -0.971  29.047  1.00  0.00     0.076 C
HETATM    2  C2  UNL     1      23.549  -0.929  27.571  1.00  0.00     0.170 C
HETATM    3  F1  UNL     1      23.681  -2.256  27.134  1.00  0.00    -0.220 F
HETATM    4  C3  UNL     1      22.118  -0.519  27.578  1.00  0.00     0.087 C
HETATM    5  C4  UNL     1      21.674   0.046  26.216  1.00  0.00     0.102 C
HETATM    6 CL1  UNL     1      21.681  -1.379  25.160  1.00  0.00    -0.124 Cl
HETATM    7  C5  UNL     1      22.598   1.135  25.858  1.00  0.00     0.022 C
HETATM    8  C6  UNL     1      22.688   2.088  27.064  1.00  0.00     0.024 C
HETATM    9  C7  UNL     1      22.284   1.883  24.593  1.00  0.00    -0.049 C
HETATM   10  C8  UNL     1      21.261   2.717  24.499  1.00  0.00    -0.006 C
HETATM   11 BR1  UNL     1      20.155   2.943  26.054  1.00  0.00    -0.055 Br
HETATM   12  C9  UNL     1      20.904   3.544  23.292  1.00  0.00     0.081 C
HETATM   13  C10 UNL     1      21.824   3.373  22.142  1.00  0.00     0.207 C
HETATM   14  C11 UNL     1      22.288   1.905  22.095  1.00  0.00     0.050 C
HETATM   15  C12 UNL     1      23.141   1.669  20.874  1.00  0.00     0.030 C
HETATM   16 BR2  UNL     1      20.718   0.850  21.961  1.00  0.00    -0.083 Br
HETATM   17  C13 UNL     1      23.093   1.727  23.365  1.00  0.00     0.037 C
HETATM   18  C14 UNL     1      23.883   0.447  23.261  1.00  0.00     0.013 C
HETATM   19  C15 UNL     1      24.388  -0.108  24.523  1.00  0.00     0.032 C
HETATM   20  C16 UNL     1      24.021   0.623  25.756  1.00  0.00     0.037 C
HETATM   21  C17 UNL     1      24.905   1.889  25.770  1.00  0.00     0.039 C
HETATM   22  N2  UNL     1      24.447  -0.135  26.877  1.00  0.00    -0.378 N
ATOM     23  H2  UNL     1      25.421  -0.095  27.173  1.00  0.00     0.157 HD
ENDROOT
BRANCH  13  24
HETATM   24  N1  UNL     1      22.967   4.262  22.163  1.00  0.00    -0.073 N
ATOM     25  H13 UNL     1      23.296   4.400  23.119  1.00  0.00     0.274 HD
ATOM     26  H12 UNL     1      23.785   3.803  21.764  1.00  0.00     0.274 HD
ATOM     27  H11 UNL     1      22.802   5.160  21.709  1.00  0.00     0.274 HD
ENDBRANCH  13  24
TORSDOF 1
ENDMDL