MODEL 2
REMARK VINA RESULT: -6.058849890      2.939      5.138
REMARK  0 active torsions:
REMARK  status: ('A' for Active; 'I' for Inactive)
REMARK       I    between atoms: N1_2  and  C2_4
REMARK       I    between atoms: C2_4  and  N2_5
ROOT
HETATM    1  C1  UNL     1      27.622  -0.742  24.864  1.00  0.00     0.165 C
HETATM    2  N1  UNL     1      26.654  -1.604  24.225  1.00  0.00    -0.230 N
ATOM      3  H1  UNL     1      26.898  -2.145  23.395  1.00  0.00     0.177 HD
HETATM    4  C2  UNL     1      25.354  -1.674  24.790  1.00  0.00     0.688 C
HETATM    5  N2  UNL     1      24.262  -2.150  24.042  1.00  0.00    -0.180 N
ATOM      6  H2  UNL     1      23.858  -3.055  24.281  1.00  0.00     0.185 HD
HETATM    7  C3  UNL     1      23.734  -1.457  23.028  1.00  0.00     0.093 C
HETATM    8  C4  UNL     1      22.604  -2.169  22.409  1.00  0.00     0.081 C
HETATM    9  C5  UNL     1      21.347  -2.072  23.268  1.00  0.00     0.046 C
HETATM   10  C6  UNL     1      20.774  -0.691  23.234  1.00  0.00    -0.057 A
HETATM   11  C7  UNL     1      19.671  -0.664  22.354  1.00  0.00     0.007 A
HETATM   12  C8  UNL     1      19.066   0.492  21.932  1.00  0.00     0.001 A
HETATM   13  C9  UNL     1      19.620   1.648  22.426  1.00  0.00     0.010 A
HETATM   14  C10 UNL     1      20.716   1.644  23.298  1.00  0.00    -0.024 A
HETATM   15  C11 UNL     1      21.308   0.484  23.733  1.00  0.00     0.017 A
HETATM   16  C12 UNL     1      21.300   3.057  23.362  1.00  0.00     0.207 C
HETATM   17  F1  UNL     1      21.495   3.563  24.585  1.00  0.00    -0.244 F
HETATM   18  C13 UNL     1      22.516   3.097  22.506  1.00  0.00     0.029 C
HETATM   19  C14 UNL     1      22.792   4.413  21.862  1.00  0.00     0.048 C
HETATM   20  C15 UNL     1      23.679   4.052  20.678  1.00  0.00    -0.029 A
HETATM   21  C16 UNL     1      23.591   4.880  19.576  1.00  0.00     0.043 A
HETATM   22 CL1  UNL     1      22.538   6.263  19.577  1.00  0.00    -0.084 Cl
HETATM   23  C17 UNL     1      24.346   4.604  18.471  1.00  0.00     0.066 A
HETATM   24  C18 UNL     1      25.178   3.490  18.507  1.00  0.00     0.118 A
HETATM   25  F2  UNL     1      25.924   3.232  17.392  1.00  0.00    -0.206 F
HETATM   26  C19 UNL     1      25.250   2.677  19.617  1.00  0.00     0.050 A
HETATM   27  C20 UNL     1      24.482   2.956  20.748  1.00  0.00    -0.042 A
HETATM   28  C21 UNL     1      24.619   2.061  21.903  1.00  0.00     0.037 C
HETATM   29  C22 UNL     1      24.306   0.610  21.580  1.00  0.00     0.130 C
HETATM   30  N3  UNL     1      24.322  -0.224  22.736  1.00  0.00    -0.379 N
ATOM     31  H3  UNL     1      24.874   0.156  23.505  1.00  0.00     0.160 HD
HETATM   32  C23 UNL     1      23.793   2.588  23.075  1.00  0.00     0.019 C
HETATM   33  N4  UNL     1      25.126  -1.301  26.018  1.00  0.00    -0.126 N
ATOM     34  H4  UNL     1      25.900  -0.952  26.582  1.00  0.00     0.197 HD
HETATM   35  C24 UNL     1      23.867  -1.366  26.574  1.00  0.00     0.196 C
HETATM   36  N5  UNL     1      22.800  -1.414  27.030  1.00  0.00    -0.171 NA
ENDROOT
TORSDOF 0
ENDMDL