MODEL 5
REMARK VINA RESULT: -3.879274641      3.364      4.638
REMARK  2 active torsions:
REMARK  status: ('A' for Active; 'I' for Inactive)
REMARK    1  A    between atoms: C5_6  and  O1_8
REMARK    2  A    between atoms: O1_8  and  C7_9
ROOT
HETATM    1  C1  UNL     1      24.291   1.855  26.464  1.00  0.00     0.020 C
HETATM    2  C2  UNL     1      23.490   1.079  25.761  1.00  0.00    -0.052 C
HETATM    3  C3  UNL     1      22.872   1.840  24.682  1.00  0.00     0.030 C
HETATM    4  C4  UNL     1      22.521   1.537  23.469  1.00  0.00     0.048 C
HETATM    5 CL1  UNL     1      21.814   2.931  22.669  1.00  0.00    -0.086 Cl
HETATM    6  C5  UNL     1      22.521   0.400  22.516  1.00  0.00     0.118 C
HETATM    7  C6  UNL     1      21.045   0.264  22.163  1.00  0.00     0.054 C
HETATM    8  C8  UNL     1      22.891  -0.935  23.060  1.00  0.00     0.112 C
HETATM    9 BR1  UNL     1      21.388  -1.911  23.797  1.00  0.00    -0.086 Br
HETATM   10  C9  UNL     1      24.106  -0.993  23.911  1.00  0.00     0.077 C
HETATM   11 BR2  UNL     1      25.418  -2.262  23.192  1.00  0.00    -0.090 Br
HETATM   12  C10 UNL     1      23.849  -1.380  25.326  1.00  0.00     0.037 C
HETATM   13  C11 UNL     1      23.422  -0.291  26.226  1.00  0.00     0.091 C
HETATM   14 BR3  UNL     1      21.707  -0.672  27.104  1.00  0.00    -0.086 Br
ENDROOT
BRANCH   6  15
HETATM   15  O1  UNL     1      23.383   0.747  21.518  1.00  0.00    -0.307 OA
BRANCH  15  16
HETATM   16  C7  UNL     1      23.408   0.371  20.236  1.00  0.00     0.226 C
HETATM   17  N1  UNL     1      22.912   1.108  19.364  1.00  0.00    -0.368 N
ATOM     18  H12 UNL     1      22.496   1.985  19.677  1.00  0.00     0.159 HD
ATOM     19  H11 UNL     1      22.930   0.821  18.386  1.00  0.00     0.159 HD
HETATM   20  N2  UNL     1      24.000  -0.881  19.789  1.00  0.00    -0.057 NA
ENDBRANCH  15  16
ENDBRANCH   6  15
TORSDOF 2
ENDMDL