MODEL 5
REMARK VINA RESULT: -6.757307696      2.443      3.594
REMARK  1 active torsions:
REMARK  status: ('A' for Active; 'I' for Inactive)
REMARK    1  A    between atoms: C20_26  and  C21_27
ROOT
HETATM    1  C1  UNL     1      24.676   1.040  23.227  1.00  0.00     0.021 C
HETATM    2  C2  UNL     1      23.245   0.891  22.688  1.00  0.00     0.007 C
HETATM    3  C3  UNL     1      22.476   0.540  23.923  1.00  0.00     0.044 A
HETATM    4  C4  UNL     1      22.245  -0.826  23.941  1.00  0.00     0.039 A
HETATM    5  N1  UNL     1      21.550  -1.093  25.079  1.00  0.00    -0.301 N
ATOM      6  H1  UNL     1      21.239  -2.024  25.357  1.00  0.00     0.186 HD
HETATM    7  N2  UNL     1      21.331  -0.016  25.765  1.00  0.00    -0.266 N
ATOM      8  H2  UNL     1      20.832   0.047  26.652  1.00  0.00     0.190 HD
HETATM    9  C5  UNL     1      21.894   1.017  25.077  1.00  0.00     0.268 A
HETATM   10  O1  UNL     1      21.873   2.209  25.461  1.00  0.00    -0.266 OA
HETATM   11  C6  UNL     1      22.858  -1.460  22.745  1.00  0.00     0.065 C
HETATM   12  C7  UNL     1      23.073  -0.283  21.827  1.00  0.00     0.009 C
HETATM   13  C8  UNL     1      24.173  -0.536  20.837  1.00  0.00    -0.005 C
HETATM   14  C9  UNL     1      23.655  -1.704  19.969  1.00  0.00     0.006 C
HETATM   15  C10 UNL     1      24.867  -2.262  19.267  1.00  0.00     0.005 C
HETATM   16  C11 UNL     1      25.898  -1.221  19.049  1.00  0.00    -0.009 C
HETATM   17  C12 UNL     1      26.738  -1.597  17.848  1.00  0.00     0.020 C
HETATM   18  C13 UNL     1      25.890  -1.736  16.622  1.00  0.00     0.058 C
HETATM   19 BR1  UNL     1      27.058  -1.464  15.083  1.00  0.00    -0.091 Br
HETATM   20  C14 UNL     1      24.736  -0.768  16.592  1.00  0.00     0.016 C
HETATM   21  C15 UNL     1      24.950   0.445  17.428  1.00  0.00     0.006 C
HETATM   22  C16 UNL     1      25.406   0.165  18.832  1.00  0.00    -0.006 C
HETATM   23  C17 UNL     1      24.343   0.597  19.872  1.00  0.00    -0.006 C
HETATM   24  C18 UNL     1      24.776   1.879  20.455  1.00  0.00     0.006 C
HETATM   25  C19 UNL     1      23.869   2.766  21.166  1.00  0.00     0.015 C
HETATM   26  C20 UNL     1      22.868   2.216  22.149  1.00  0.00     0.107 C
ENDROOT
BRANCH  26  27
HETATM   27  C21 UNL     1      21.519   2.477  21.616  1.00  0.00     0.392 C
HETATM   28  F1  UNL     1      20.788   1.405  21.163  1.00  0.00    -0.171 F
HETATM   29  F2  UNL     1      20.648   3.203  22.394  1.00  0.00    -0.171 F
HETATM   30  F3  UNL     1      21.661   3.270  20.449  1.00  0.00    -0.171 F
ENDBRANCH  26  27
TORSDOF 1
ENDMDL