MODEL 3
REMARK VINA RESULT: -6.937345316      1.128      1.399
REMARK  0 active torsions:
REMARK  status: ('A' for Active; 'I' for Inactive)
ROOT
HETATM    1  C1  UNL     1      25.830  -1.540  19.859  1.00  0.00     0.153 C
HETATM    2  N1  UNL     1      24.688  -0.776  20.429  1.00  0.00    -0.347 N
HETATM    3  C2  UNL     1      24.391   0.394  19.747  1.00  0.00     0.292 C
HETATM    4  O1  UNL     1      24.676   0.463  18.507  1.00  0.00    -0.267 OA
HETATM    5  C3  UNL     1      23.757   1.646  20.275  1.00  0.00     0.326 C
HETATM    6  F1  UNL     1      22.460   1.426  20.081  1.00  0.00    -0.195 F
HETATM    7  F2  UNL     1      24.426   1.931  21.376  1.00  0.00    -0.195 F
HETATM    8  C4  UNL     1      23.957   2.833  19.432  1.00  0.00     0.129 C
HETATM    9  C5  UNL     1      23.460   4.137  19.823  1.00  0.00    -0.040 A
HETATM   10  C6  UNL     1      23.641   4.952  18.658  1.00  0.00     0.033 A
HETATM   11  C7  UNL     1      23.347   6.282  18.614  1.00  0.00     0.056 A
HETATM   12 CL1  UNL     1      23.582   7.242  17.140  1.00  0.00    -0.083 Cl
HETATM   13  C8  UNL     1      22.856   6.866  19.741  1.00  0.00     0.056 A
HETATM   14 CL2  UNL     1      22.463   8.589  19.731  1.00  0.00    -0.083 Cl
HETATM   15  C9  UNL     1      22.679   6.110  20.849  1.00  0.00     0.037 A
HETATM   16  C10 UNL     1      22.959   4.719  20.967  1.00  0.00    -0.028 A
HETATM   17  C11 UNL     1      22.650   4.229  22.299  1.00  0.00     0.008 C
HETATM   18  C12 UNL     1      21.734   3.526  22.931  1.00  0.00    -0.024 C
HETATM   19  C13 UNL     1      20.489   2.861  22.537  1.00  0.00     0.047 C
HETATM   20  C14 UNL     1      20.278   1.467  23.051  1.00  0.00     0.142 C
HETATM   21  N2  UNL     1      20.957   1.137  24.263  1.00  0.00    -0.226 N
ATOM     22  H2  UNL     1      20.627   1.689  25.053  1.00  0.00     0.177 HD
HETATM   23  C15 UNL     1      21.957   0.248  24.627  1.00  0.00     0.669 C
HETATM   24  N3  UNL     1      22.799   0.730  25.542  1.00  0.00    -0.235 N
ATOM     25  H31 UNL     1      23.535   0.076  25.810  1.00  0.00     0.174 HD
ATOM     26  H32 UNL     1      22.532   1.682  25.790  1.00  0.00     0.174 HD
HETATM   27  N4  UNL     1      22.327  -1.066  24.285  1.00  0.00    -0.218 N
HETATM   28  C16 UNL     1      23.088  -1.638  25.404  1.00  0.00     0.141 C
HETATM   29  C17 UNL     1      24.534  -1.778  25.138  1.00  0.00     0.020 C
HETATM   30  C18 UNL     1      24.954  -2.262  23.799  1.00  0.00     0.004 C
HETATM   31  C19 UNL     1      25.034  -1.141  22.767  1.00  0.00     0.025 C
HETATM   32  C20 UNL     1      24.133  -1.439  21.574  1.00  0.00     0.088 C
HETATM   33  C21 UNL     1      22.746  -1.115  21.880  1.00  0.00     0.045 C
HETATM   34  C22 UNL     1      22.036  -1.750  23.034  1.00  0.00     0.143 C
ENDROOT
TORSDOF 0
ENDMDL