MODEL 5
REMARK VINA RESULT: -6.366185404      3.307      5.092
REMARK  1 active torsions:
REMARK  status: ('A' for Active; 'I' for Inactive)
REMARK    1  A    between atoms: C13_16  and  O1_17
ROOT
HETATM    1  C1  UNL     1      24.361   1.116  23.449  1.00  0.00     0.017 C
HETATM    2  C2  UNL     1      23.068   0.439  23.313  1.00  0.00    -0.025 C
HETATM    3  C3  UNL     1      22.326   0.717  24.638  1.00  0.00     0.027 C
HETATM    4  C4  UNL     1      21.899   2.170  24.368  1.00  0.00     0.072 C
HETATM    5 BR1  UNL     1      20.389   2.620  25.526  1.00  0.00    -0.090 Br
HETATM    6  C5  UNL     1      21.481   2.213  22.917  1.00  0.00     0.002 C
HETATM    7  C6  UNL     1      19.951   2.152  22.910  1.00  0.00     0.022 C
HETATM    8  C7  UNL     1      21.965   3.417  22.201  1.00  0.00    -0.034 A
HETATM    9  C8  UNL     1      21.557   4.650  22.662  1.00  0.00     0.051 A
HETATM   10  C9  UNL     1      21.926   5.853  22.096  1.00  0.00     0.119 A
HETATM   11  F1  UNL     1      21.488   7.048  22.598  1.00  0.00    -0.206 F
HETATM   12  C10 UNL     1      22.759   5.772  21.001  1.00  0.00     0.085 A
HETATM   13  C11 UNL     1      23.184   4.559  20.518  1.00  0.00     0.128 A
HETATM   14  F2  UNL     1      24.015   4.506  19.423  1.00  0.00    -0.205 F
HETATM   15  C12 UNL     1      22.795   3.380  21.108  1.00  0.00     0.017 A
HETATM   16  C13 UNL     1      23.309   2.106  20.513  1.00  0.00     0.159 C
HETATM   17  C14 UNL     1      22.408   0.999  20.922  1.00  0.00     0.025 C
HETATM   18  C15 UNL     1      22.790  -0.354  20.439  1.00  0.00     0.008 C
HETATM   19  C16 UNL     1      24.140  -0.838  20.774  1.00  0.00     0.002 C
HETATM   20  C17 UNL     1      24.319  -1.390  22.144  1.00  0.00     0.016 C
HETATM   21  C18 UNL     1      23.250  -1.032  23.120  1.00  0.00     0.066 C
HETATM   22 BR2  UNL     1      23.682  -1.912  24.806  1.00  0.00    -0.090 Br
HETATM   23  C19 UNL     1      22.061   0.946  22.368  1.00  0.00     0.015 C
ENDROOT
BRANCH  16  24
HETATM   24  O1  UNL     1      23.145   2.275  19.115  1.00  0.00    -0.390 OA
ATOM     25  H1  UNL     1      23.595   3.089  18.920  1.00  0.00     0.210 HD
ENDBRANCH  16  24
TORSDOF 1
ENDMDL