MODEL 3
REMARK VINA RESULT: -6.385254361      1.071      1.227
REMARK  3 active torsions:
REMARK  status: ('A' for Active; 'I' for Inactive)
REMARK    1  A    between atoms: C8_8  and  C9_10
REMARK    2  A    between atoms: C10_11  and  C11_12
REMARK    3  A    between atoms: C14_18  and  O1_19
ROOT
HETATM    1  C1  UNL     1      -9.568   8.441  -2.842  1.00  0.00     0.010 C
HETATM    2  C2  UNL     1     -10.312   7.138  -2.540  1.00  0.00    -0.017 C
HETATM    3  C3  UNL     1     -11.768   7.444  -2.548  1.00  0.00     0.012 C
HETATM    4  C4  UNL     1     -12.474   6.835  -1.365  1.00  0.00     0.024 C
HETATM    5  C5  UNL     1     -11.915   7.510  -0.122  1.00  0.00     0.022 C
HETATM    6  C6  UNL     1     -11.342   6.350   0.623  1.00  0.00     0.026 C
HETATM    7  C7  UNL     1     -10.437   6.656   1.730  1.00  0.00     0.021 C
HETATM    8  C8  UNL     1     -12.517   5.449   0.987  1.00  0.00     0.190 C
HETATM    9  F1  UNL     1     -13.604   6.248   1.288  1.00  0.00    -0.227 F
HETATM   10  C13 UNL     1     -12.813   4.682  -0.287  1.00  0.00     0.147 C
HETATM   11 BR1  UNL     1     -12.496   2.814  -0.140  1.00  0.00    -0.083 Br
HETATM   12  C14 UNL     1     -11.987   5.384  -1.299  1.00  0.00     0.097 C
HETATM   13  C15 UNL     1     -10.667   5.625  -0.553  1.00  0.00     0.062 C
HETATM   14 BR2  UNL     1      -9.815   4.014  -0.027  1.00  0.00    -0.081 Br
HETATM   15  C16 UNL     1      -9.765   6.557  -1.300  1.00  0.00     0.029 C
ENDROOT
BRANCH   8  16
HETATM   16  C9  UNL     1     -12.177   4.533   2.065  1.00  0.00    -0.054 C
HETATM   17  C10 UNL     1     -11.914   3.771   2.970  1.00  0.00    -0.026 C
BRANCH  17  18
HETATM   18  C11 UNL     1     -11.607   2.843   4.065  1.00  0.00     0.302 C
HETATM   19  C12 UNL     1     -11.130   3.685   5.231  1.00  0.00     0.105 C
HETATM   20  F2  UNL     1     -10.579   1.977   3.725  1.00  0.00    -0.192 F
HETATM   21  F3  UNL     1     -12.694   2.065   4.406  1.00  0.00    -0.192 F
ENDBRANCH  17  18
ENDBRANCH   8  16
BRANCH  12  22
HETATM   22  O1  UNL     1     -11.839   4.795  -2.497  1.00  0.00    -0.386 OA
ATOM     23  H1  UNL     1     -11.549   5.380  -3.187  1.00  0.00     0.210 HD
ENDBRANCH  12  22
TORSDOF 3
ENDMDL