MODEL 3
REMARK VINA RESULT: -5.694174396      2.988      5.394
REMARK  1 active torsions:
REMARK  status: ('A' for Active; 'I' for Inactive)
REMARK    1  A    between atoms: C13_18  and  O1_19
ROOT
HETATM    1  C1  UNL     1     -12.468   8.649  -0.452  1.00  0.00     0.020 C
HETATM    2  C2  UNL     1     -11.344   7.825   0.103  1.00  0.00     0.009 C
HETATM    3  C3  UNL     1     -11.453   7.674   1.630  1.00  0.00    -0.001 C
HETATM    4  C4  UNL     1     -12.735   7.077   2.044  1.00  0.00     0.006 C
HETATM    5  C5  UNL     1     -12.839   5.684   1.429  1.00  0.00     0.008 C
HETATM    6  C6  UNL     1     -12.686   5.810  -0.049  1.00  0.00     0.027 C
HETATM    7  C7  UNL     1     -12.604   4.521  -0.788  1.00  0.00     0.102 C
HETATM    8 BR1  UNL     1     -11.849   3.129   0.311  1.00  0.00    -0.087 Br
HETATM    9  C8  UNL     1     -11.730   4.793  -2.010  1.00  0.00     0.128 C
HETATM   10 CL1  UNL     1     -10.304   3.731  -1.893  1.00  0.00    -0.100 Cl
HETATM   11 CL2  UNL     1     -12.574   4.507  -3.519  1.00  0.00    -0.100 Cl
HETATM   12  C9  UNL     1     -11.288   6.256  -1.871  1.00  0.00     0.070 C
HETATM   13  C10 UNL     1     -11.336   6.443  -0.415  1.00  0.00     0.055 C
HETATM   14 CL3  UNL     1     -10.085   5.466   0.357  1.00  0.00    -0.118 Cl
HETATM   15  C11 UNL     1     -11.120   9.007   2.154  1.00  0.00     0.024 C
HETATM   16  C12 UNL     1     -10.037   9.495   1.203  1.00  0.00     0.087 C
HETATM   17 BR2  UNL     1     -10.440  11.293   0.673  1.00  0.00    -0.088 Br
HETATM   18  C13 UNL     1     -10.016   8.533   0.040  1.00  0.00     0.143 C
ENDROOT
BRANCH  18  19
HETATM   19  O1  UNL     1      -9.768   9.134  -1.168  1.00  0.00    -0.394 OA
ATOM     20  H1  UNL     1     -10.524   9.575  -1.538  1.00  0.00     0.210 HD
ENDBRANCH  18  19
TORSDOF 1
ENDMDL