MODEL 4
REMARK VINA RESULT: -5.643853411      2.149      3.185
REMARK  1 active torsions:
REMARK  status: ('A' for Active; 'I' for Inactive)
REMARK    1  A    between atoms: C8_8  and  C9_9
REMARK       I    between atoms: N1_16  and  C12_17
ROOT
HETATM    1  C1  UNL     1     -11.368   7.292  -0.595  1.00  0.00     0.038 C
HETATM    2  C2  UNL     1     -10.881   5.946  -1.047  1.00  0.00     0.032 C
HETATM    3  C3  UNL     1     -10.529   5.989  -2.520  1.00  0.00     0.038 C
HETATM    4  C4  UNL     1      -9.784   5.343  -0.201  1.00  0.00     0.061 C
HETATM    5  C5  UNL     1     -10.864   4.455   0.426  1.00  0.00     0.041 C
HETATM    6  C6  UNL     1     -10.466   3.020   0.534  1.00  0.00     0.032 C
HETATM    7  C7  UNL     1     -10.531   2.488   1.942  1.00  0.00     0.012 C
HETATM    8  C8  UNL     1     -11.877   2.752   2.588  1.00  0.00     0.050 C
HETATM    9  C10 UNL     1     -12.250   4.203   2.506  1.00  0.00     0.092 C
HETATM   10 CL2  UNL     1     -12.398   4.931   4.145  1.00  0.00    -0.124 Cl
HETATM   11  C11 UNL     1     -11.219   5.002   1.778  1.00  0.00     0.052 C
HETATM   12  N1  UNL     1     -11.717   4.821  -0.662  1.00  0.00    -0.318 N
HETATM   13  C12 UNL     1     -12.923   4.306  -1.192  1.00  0.00     0.332 C
HETATM   14  N2  UNL     1     -13.573   4.883  -2.314  1.00  0.00    -0.040 NA
HETATM   15  O1  UNL     1     -13.448   3.302  -0.660  1.00  0.00    -0.251 OA
ENDROOT
BRANCH   8  16
HETATM   16  C9  UNL     1     -11.789   2.259   4.018  1.00  0.00     0.156 C
HETATM   17 CL1  UNL     1     -13.470   2.129   4.635  1.00  0.00    -0.093 Cl
HETATM   18 BR1  UNL     1     -10.995   0.521   4.142  1.00  0.00    -0.055 Br
HETATM   19 BR2  UNL     1     -10.890   3.542   5.153  1.00  0.00    -0.055 Br
ENDBRANCH   8  16
TORSDOF 1
ENDMDL