MODEL 4
REMARK VINA RESULT: -6.980224048      3.863      6.338
REMARK  1 active torsions:
REMARK  status: ('A' for Active; 'I' for Inactive)
REMARK    1  A    between atoms: C1_2  and  C2_5
ROOT
HETATM    1  C2  UNL     1     -12.509   5.040  -0.901  1.00  0.00     0.136 C
HETATM    2  C3  UNL     1     -11.581   6.078  -1.405  1.00  0.00     0.236 C
HETATM    3  C4  UNL     1     -11.422   6.240  -2.874  1.00  0.00     0.038 C
HETATM    4  C5  UNL     1     -10.149   7.088  -3.085  1.00  0.00     0.020 C
HETATM    5  C6  UNL     1     -10.523   8.475  -2.607  1.00  0.00     0.086 C
HETATM    6 BR1  UNL     1      -9.079   9.722  -2.795  1.00  0.00    -0.089 Br
HETATM    7  C7  UNL     1     -10.916   8.375  -1.151  1.00  0.00     0.288 C
HETATM    8  N1  UNL     1     -11.979   7.426  -0.932  1.00  0.00     0.095 N
HETATM    9  C8  UNL     1     -12.332   7.458   0.446  1.00  0.00     0.273 C
HETATM   10  C9  UNL     1     -11.506   6.589   1.347  1.00  0.00     0.031 C
HETATM   11  C10 UNL     1     -12.063   5.200   1.490  1.00  0.00     0.013 C
HETATM   12  C11 UNL     1     -11.855   4.346   0.257  1.00  0.00    -0.016 C
HETATM   13  C12 UNL     1     -10.363   4.085   0.056  1.00  0.00     0.044 C
HETATM   14  C13 UNL     1     -10.545   2.788   0.765  1.00  0.00     0.196 C
HETATM   15  N2  UNL     1     -10.161   2.693   2.132  1.00  0.00    -0.062 N
ATOM     16  H21 UNL     1     -10.278   3.573   2.636  1.00  0.00     0.278 HD
ATOM     17  H22 UNL     1      -9.152   2.599   2.252  1.00  0.00     0.278 HD
HETATM   18  C14 UNL     1     -10.895   1.607   2.734  1.00  0.00     0.215 C
HETATM   19  C15 UNL     1     -10.506   1.342   4.171  1.00  0.00     0.038 C
HETATM   20  C16 UNL     1     -11.776   1.073   4.913  1.00  0.00     0.007 C
HETATM   21  C17 UNL     1     -12.887   1.737   4.172  1.00  0.00     0.036 C
HETATM   22  C18 UNL     1     -12.317   2.074   2.851  1.00  0.00    -0.053 C
HETATM   23  C19 UNL     1     -12.816   2.691   1.794  1.00  0.00    -0.014 C
HETATM   24  C20 UNL     1     -12.034   2.929   0.532  1.00  0.00     0.048 C
ENDROOT
BRANCH   1  25
HETATM   25  C1  UNL     1     -13.115   4.102  -1.895  1.00  0.00     0.394 C
HETATM   26  F1  UNL     1     -12.268   3.242  -2.510  1.00  0.00    -0.171 F
HETATM   27  F2  UNL     1     -14.226   3.515  -1.315  1.00  0.00    -0.171 F
HETATM   28  F3  UNL     1     -13.702   4.879  -2.907  1.00  0.00    -0.171 F
ENDBRANCH   1  25
TORSDOF 1
ENDMDL