MODEL 1
REMARK VINA RESULT: -7.466808309      0.000      0.000
REMARK  2 active torsions:
REMARK  status: ('A' for Active; 'I' for Inactive)
REMARK    1  A    between atoms: C20_21  and  O1_22
REMARK    2  A    between atoms: C20_21  and  C21_24
ROOT
HETATM    1  C1  UNL     1     -13.735   1.667   4.677  1.00  0.00     0.013 C
HETATM    2  C2  UNL     1     -12.677   1.983   4.195  1.00  0.00    -0.108 C
HETATM    3  C3  UNL     1     -11.365   2.352   3.612  1.00  0.00     0.019 C
HETATM    4  C4  UNL     1     -10.346   2.130   4.711  1.00  0.00     0.029 C
HETATM    5  C5  UNL     1     -11.098   1.331   2.521  1.00  0.00     0.022 C
HETATM    6  C6  UNL     1     -12.141   1.591   1.448  1.00  0.00     0.007 C
HETATM    7  C7  UNL     1     -11.891   2.917   0.787  1.00  0.00    -0.010 C
HETATM    8  C8  UNL     1     -13.148   3.654   0.450  1.00  0.00     0.006 C
HETATM    9  C9  UNL     1     -12.768   4.708  -0.575  1.00  0.00     0.014 C
HETATM   10  C10 UNL     1     -11.493   5.417  -0.285  1.00  0.00     0.015 C
HETATM   11  C11 UNL     1     -11.616   6.858  -0.665  1.00  0.00     0.030 C
HETATM   12  C12 UNL     1     -11.832   7.858   0.375  1.00  0.00     0.025 C
HETATM   13  C13 UNL     1     -11.201   7.573   1.705  1.00  0.00     0.059 C
HETATM   14 BR1  UNL     1     -11.781   8.860   3.010  1.00  0.00    -0.091 Br
HETATM   15  C14 UNL     1     -11.729   6.181   2.091  1.00  0.00     0.021 C
HETATM   16  C15 UNL     1     -11.013   5.231   1.136  1.00  0.00     0.004 C
HETATM   17  C16 UNL     1     -11.017   3.820   1.591  1.00  0.00    -0.004 C
HETATM   18  C17 UNL     1     -11.369   3.749   3.083  1.00  0.00     0.027 C
HETATM   19  C18 UNL     1     -10.227   6.864  -1.176  1.00  0.00    -0.041 C
HETATM   20  C19 UNL     1      -9.298   7.754  -1.451  1.00  0.00     0.018 C
HETATM   21  C20 UNL     1     -10.366   5.358  -1.239  1.00  0.00     0.187 C
ENDROOT
BRANCH  21  22
HETATM   22  O1  UNL     1      -9.162   4.829  -0.725  1.00  0.00    -0.376 OA
ATOM     23  H1  UNL     1      -8.445   4.768  -1.344  1.00  0.00     0.211 HD
ENDBRANCH  21  22
BRANCH  21  24
HETATM   24  C21 UNL     1     -10.521   4.966  -2.647  1.00  0.00     0.423 C
HETATM   25  F1  UNL     1      -9.217   4.967  -3.189  1.00  0.00    -0.167 F
HETATM   26  F2  UNL     1     -11.228   5.845  -3.444  1.00  0.00    -0.167 F
HETATM   27  F3  UNL     1     -10.931   3.651  -2.858  1.00  0.00    -0.167 F
ENDBRANCH  21  24
TORSDOF 2
ENDMDL