MODEL 5
REMARK VINA RESULT: -6.447282332      4.416      5.061
REMARK  5 active torsions:
REMARK  status: ('A' for Active; 'I' for Inactive)
REMARK    1  A    between atoms: C2_2  and  C4_5
REMARK    2  A    between atoms: C5_6  and  C6_7
REMARK    3  A    between atoms: C7_9  and  C8_10
REMARK    4  A    between atoms: C9_11  and  C10_12
REMARK    5  A    between atoms: C10_12  and  C11_15
ROOT
HETATM    1  C6  UNL     1     -12.591   6.768   4.188  1.00  0.00     0.189 A
HETATM    2  F1  UNL     1     -13.905   7.126   4.310  1.00  0.00    -0.227 F
HETATM    3  C7  UNL     1     -11.582   7.779   4.479  1.00  0.00     0.130 A
HETATM    4  C12 UNL     1     -11.770   7.408   3.057  1.00  0.00     0.020 A
HETATM    5  C13 UNL     1     -12.581   8.257   2.125  1.00  0.00     0.021 C
HETATM    6  C14 UNL     1     -10.712   6.549   2.399  1.00  0.00     0.021 C
ENDROOT
BRANCH   3   7
HETATM    7  C8  UNL     1     -12.014   9.160   4.801  1.00  0.00    -0.093 C
HETATM    8  C9  UNL     1     -12.359  10.290   5.044  1.00  0.00    -0.061 C
BRANCH   8   9
HETATM    9  C10 UNL     1     -12.766  11.664   5.316  1.00  0.00     0.225 C
HETATM   10 BR1  UNL     1     -11.748  12.280   6.863  1.00  0.00    -0.046 Br
HETATM   11 BR2  UNL     1     -12.228  12.725   3.769  1.00  0.00    -0.046 Br
BRANCH   9  12
HETATM   12  C11 UNL     1     -14.215  11.782   5.560  1.00  0.00     0.217 C
HETATM   13  O1  UNL     1     -14.741  11.214   6.543  1.00  0.00    -0.645 OA
HETATM   14  O2  UNL     1     -15.028  12.516   4.717  1.00  0.00    -0.645 OA
ENDBRANCH   9  12
ENDBRANCH   8   9
ENDBRANCH   3   7
BRANCH   1  15
HETATM   15  C5  UNL     1     -12.223   5.361   4.469  1.00  0.00    -0.058 C
HETATM   16  C4  UNL     1     -11.937   4.208   4.685  1.00  0.00    -0.077 C
BRANCH  16  17
HETATM   17  C2  UNL     1     -11.601   2.794   4.926  1.00  0.00     0.093 C
HETATM   18  C1  UNL     1     -10.742   2.352   3.767  1.00  0.00     0.046 C
HETATM   19  C3  UNL     1     -10.938   2.583   6.246  1.00  0.00     0.046 C
HETATM   20 CL1  UNL     1     -13.080   1.781   4.886  1.00  0.00    -0.106 Cl
ENDBRANCH  16  17
ENDBRANCH   1  15
TORSDOF 5
ENDMDL