MODEL 5
REMARK VINA RESULT: -7.412378429      4.025      6.000
REMARK  1 active torsions:
REMARK  status: ('A' for Active; 'I' for Inactive)
REMARK       I    between atoms: N1_2  and  C2_4
REMARK       I    between atoms: C2_4  and  N2_6
REMARK    1  A    between atoms: C13_18  and  C15_20
ROOT
HETATM    1  C1  UNL     1      -9.264  11.009   0.179  1.00  0.00     0.151 C
HETATM    2  N1  UNL     1      -9.827  10.307   1.298  1.00  0.00    -0.347 N
ATOM      3  H1  UNL     1      -9.689  10.678   2.239  1.00  0.00     0.163 HD
HETATM    4  C2  UNL     1     -10.567   9.114   1.127  1.00  0.00     0.317 C
HETATM    5  O1  UNL     1     -10.721   8.678  -0.059  1.00  0.00    -0.247 OA
HETATM    6  N2  UNL     1     -11.135   8.393   2.204  1.00  0.00    -0.333 N
HETATM    7  C3  UNL     1     -11.879   7.179   1.951  1.00  0.00     0.133 C
HETATM    8  C4  UNL     1     -11.496   6.207   3.013  1.00  0.00     0.017 C
HETATM    9  C5  UNL     1     -12.135   6.775   4.267  1.00  0.00     0.002 C
HETATM   10  C6  UNL     1     -11.861   5.947   5.481  1.00  0.00     0.006 C
HETATM   11  C7  UNL     1     -11.312   4.593   5.099  1.00  0.00     0.007 C
HETATM   12  C8  UNL     1     -12.112   3.973   3.953  1.00  0.00     0.012 C
HETATM   13  C9  UNL     1     -11.904   4.791   2.745  1.00  0.00    -0.033 C
HETATM   14  C10 UNL     1     -13.088   4.865   1.806  1.00  0.00     0.016 C
HETATM   15  C11 UNL     1     -10.860   4.016   1.973  1.00  0.00     0.027 C
HETATM   16  C12 UNL     1     -11.074   2.561   2.401  1.00  0.00     0.076 C
HETATM   17 BR1  UNL     1     -12.108   1.668   1.085  1.00  0.00    -0.090 Br
HETATM   18  C13 UNL     1     -11.565   2.581   3.778  1.00  0.00     0.071 C
HETATM   19  C14 UNL     1     -10.370   2.292   4.688  1.00  0.00     0.026 C
HETATM   20  C16 UNL     1     -11.785   8.181   4.559  1.00  0.00    -0.020 A
HETATM   21  C17 UNL     1     -11.748   8.737   5.928  1.00  0.00     0.012 A
HETATM   22  C18 UNL     1     -12.962   9.057   5.087  1.00  0.00     0.012 A
HETATM   23  C19 UNL     1     -10.957   8.889   3.528  1.00  0.00     0.137 C
ENDROOT
BRANCH  18  24
HETATM   24  C15 UNL     1     -12.590   1.585   4.208  1.00  0.00     0.396 C
HETATM   25  F1  UNL     1     -13.082   1.853   5.482  1.00  0.00    -0.170 F
HETATM   26  F2  UNL     1     -12.156   0.296   4.302  1.00  0.00    -0.170 F
HETATM   27  F3  UNL     1     -13.744   1.586   3.440  1.00  0.00    -0.170 F
ENDBRANCH  18  24
TORSDOF 1
ENDMDL