MODEL 4
REMARK VINA RESULT: -5.964042404      2.627      4.334
REMARK  1 active torsions:
REMARK  status: ('A' for Active; 'I' for Inactive)
REMARK    1  A    between atoms: C7_9  and  O1_10
ROOT
HETATM    1  C1  UNL     1     -11.299   2.412   1.363  1.00  0.00     0.015 C
HETATM    2  C2  UNL     1     -11.830   3.328   0.784  1.00  0.00    -0.072 C
HETATM    3  C3  UNL     1     -12.470   4.469   0.089  1.00  0.00     0.178 C
HETATM    4  F1  UNL     1     -13.678   3.987  -0.429  1.00  0.00    -0.228 F
HETATM    5  C4  UNL     1     -12.784   5.498   1.097  1.00  0.00     0.060 C
HETATM    6  C5  UNL     1     -13.064   6.871   0.547  1.00  0.00     0.028 C
HETATM    7  C6  UNL     1     -11.816   7.239  -0.284  1.00  0.00     0.051 C
HETATM    8 BR1  UNL     1     -10.351   6.905   0.931  1.00  0.00    -0.082 Br
HETATM    9  C7  UNL     1     -11.956   8.648  -0.685  1.00  0.00     0.156 C
HETATM   10  C8  UNL     1     -10.725   9.398  -1.025  1.00  0.00     0.116 C
HETATM   11 CL1  UNL     1      -9.632   9.601   0.389  1.00  0.00    -0.122 Cl
HETATM   12  C9  UNL     1      -9.986   8.954  -2.230  1.00  0.00     0.003 C
HETATM   13  C10 UNL     1      -8.576   9.552  -2.150  1.00  0.00     0.011 C
HETATM   14  C11 UNL     1      -9.812   7.471  -2.387  1.00  0.00     0.010 C
HETATM   15  C12 UNL     1     -11.100   6.750  -2.643  1.00  0.00    -0.011 C
HETATM   16  C13 UNL     1     -10.866   5.613  -3.605  1.00  0.00     0.010 C
HETATM   17  C14 UNL     1     -11.848   6.290  -1.453  1.00  0.00     0.030 C
HETATM   18  C15 UNL     1     -11.570   4.870  -1.025  1.00  0.00     0.116 C
HETATM   19 BR2  UNL     1      -9.750   4.494  -0.625  1.00  0.00    -0.086 Br
ENDROOT
BRANCH   9  20
HETATM   20  O1  UNL     1     -12.590   9.341   0.374  1.00  0.00    -0.392 OA
ATOM     21  H1  UNL     1     -13.529   9.244   0.264  1.00  0.00     0.210 HD
ENDBRANCH   9  20
TORSDOF 1
ENDMDL