MODEL 5
REMARK VINA RESULT: -4.815176359      2.595      4.383
REMARK  1 active torsions:
REMARK  status: ('A' for Active; 'I' for Inactive)
REMARK    1  A    between atoms: C14_18  and  O1_19
ROOT
HETATM    1  C1  UNL     1     -11.065  10.685   1.949  1.00  0.00     0.013 C
HETATM    2  C2  UNL     1     -10.626   9.580   0.972  1.00  0.00     0.019 C
HETATM    3  C3  UNL     1      -9.208   9.698   0.693  1.00  0.00     0.008 C
HETATM    4  C4  UNL     1      -8.652   9.360  -0.625  1.00  0.00     0.007 C
HETATM    5  C5  UNL     1      -9.318   8.345  -1.443  1.00  0.00     0.011 C
HETATM    6  C6  UNL     1     -10.077   7.415  -0.481  1.00  0.00     0.085 C
HETATM    7 BR1  UNL     1     -10.059   5.593  -1.095  1.00  0.00    -0.089 Br
HETATM    8  C7  UNL     1     -11.464   8.001  -0.661  1.00  0.00     0.065 C
HETATM    9 BR2  UNL     1     -12.720   6.791   0.137  1.00  0.00    -0.081 Br
HETATM   10  C8  UNL     1     -11.497   7.915  -2.194  1.00  0.00     0.036 C
HETATM   11  C9  UNL     1     -10.268   8.786  -2.483  1.00  0.00    -0.019 C
HETATM   12  C10 UNL     1      -9.815   8.509  -3.901  1.00  0.00     0.017 C
HETATM   13  C11 UNL     1     -10.746  10.194  -2.415  1.00  0.00     0.117 C
HETATM   14 CL1  UNL     1     -11.733  10.462  -3.906  1.00  0.00    -0.122 Cl
HETATM   15  C12 UNL     1     -11.633  10.442  -1.204  1.00  0.00     0.083 C
HETATM   16  C13 UNL     1     -11.315  11.846  -0.749  1.00  0.00     0.037 C
HETATM   17 CL2  UNL     1     -13.349  10.615  -1.765  1.00  0.00    -0.115 Cl
HETATM   18  C14 UNL     1     -11.588   9.410  -0.167  1.00  0.00     0.102 C
ENDROOT
BRANCH  18  19
HETATM   19  O1  UNL     1     -12.861   9.437   0.483  1.00  0.00    -0.386 OA
ATOM     20  H1  UNL     1     -13.334  10.104  -0.002  1.00  0.00     0.210 HD
ENDBRANCH  18  19
TORSDOF 1
ENDMDL