MODEL 2
REMARK VINA RESULT: -6.191372069      3.969      5.484
REMARK  3 active torsions:
REMARK  status: ('A' for Active; 'I' for Inactive)
REMARK    1  A    between atoms: C12_14  and  O1_15
REMARK    2  A    between atoms: C12_14  and  C13_17
REMARK    3  A    between atoms: C17_24  and  C19_26
ROOT
HETATM    1  C1  UNL     1      -8.417   9.337  -2.023  1.00  0.00     0.221 C
HETATM    2  N1  UNL     1      -9.371   8.852  -1.516  1.00  0.00    -0.465 NA
HETATM    3  C2  UNL     1     -10.538   8.289  -0.888  1.00  0.00     0.181 C
HETATM    4  C3  UNL     1     -11.004   7.296  -1.880  1.00  0.00     0.099 C
HETATM    5 BR1  UNL     1     -10.443   7.757  -3.694  1.00  0.00    -0.087 Br
HETATM    6  C4  UNL     1     -10.685   5.897  -1.672  1.00  0.00     0.011 C
HETATM    7  C5  UNL     1      -9.419   5.612  -0.877  1.00  0.00     0.012 C
HETATM    8  C6  UNL     1     -10.350   5.413   0.299  1.00  0.00    -0.000 C
HETATM    9  C7  UNL     1     -11.459   5.168  -0.711  1.00  0.00     0.018 C
HETATM   10  C8  UNL     1     -12.664   5.588  -0.018  1.00  0.00    -0.018 C
HETATM   11  C9  UNL     1     -12.799   6.349   1.024  1.00  0.00    -0.070 C
HETATM   12  C10 UNL     1     -13.977   6.808   1.790  1.00  0.00     0.038 C
HETATM   13  C11 UNL     1     -13.498   6.672   3.197  1.00  0.00     0.052 C
HETATM   14  C12 UNL     1     -12.007   6.438   3.132  1.00  0.00     0.168 C
HETATM   15  C14 UNL     1     -11.666   7.000   1.818  1.00  0.00     0.035 C
HETATM   16  C15 UNL     1     -10.415   6.617   1.093  1.00  0.00     0.015 C
HETATM   17  C16 UNL     1     -10.257   7.931   0.482  1.00  0.00     0.037 C
HETATM   18  C17 UNL     1     -11.313   8.377   1.517  1.00  0.00    -0.022 C
HETATM   19  C18 UNL     1     -12.365   9.298   0.915  1.00  0.00     0.017 C
ENDROOT
BRANCH  18  20
HETATM   20  C19 UNL     1     -10.581   9.221   2.540  1.00  0.00     0.006 C
HETATM   21  C20 UNL     1     -11.444  10.449   2.933  1.00  0.00     0.006 C
ENDBRANCH  18  20
BRANCH  14  22
HETATM   22  O1  UNL     1     -11.915   5.002   2.907  1.00  0.00    -0.380 OA
ATOM     23  H1  UNL     1     -12.345   4.892   2.067  1.00  0.00     0.211 HD
ENDBRANCH  14  22
BRANCH  14  24
HETATM   24  C13 UNL     1     -11.424   6.671   4.416  1.00  0.00     0.419 C
HETATM   25  F1  UNL     1     -10.201   6.018   4.665  1.00  0.00    -0.168 F
HETATM   26  F2  UNL     1     -12.177   5.873   5.372  1.00  0.00    -0.168 F
HETATM   27  F3  UNL     1     -11.532   7.871   5.048  1.00  0.00    -0.168 F
ENDBRANCH  14  24
TORSDOF 3
ENDMDL