MODEL 5
REMARK VINA RESULT: -8.472297518      7.464      9.804
REMARK  6 active torsions:
REMARK  status: ('A' for Active; 'I' for Inactive)
REMARK       I    between atoms: C1_2  and  N1_3
REMARK    1  A    between atoms: C1_2  and  C2_8
REMARK    2  A    between atoms: N1_3  and  N2_5
REMARK    3  A    between atoms: N2_5  and  O2_6
REMARK    4  A    between atoms: C5_14  and  N3_15
REMARK    5  A    between atoms: N3_15  and  C6_17
REMARK    6  A    between atoms: C7_22  and  C8_23
ROOT
HETATM    1  N3  UNL     1      23.909  60.298 -32.138  1.00  0.00    -0.194 N
ATOM      2  H3  UNL     1      23.349  61.139 -32.276  1.00  0.00     0.180 HD
ENDROOT
BRANCH   1   3
HETATM    3  C5  UNL     1      24.066  59.521 -33.287  1.00  0.00     0.314 C
HETATM    4  C4  UNL     1      25.342  59.834 -34.010  1.00  0.00     0.195 C
HETATM    5  S1  UNL     1      25.202  59.006 -35.604  1.00  0.00     0.150 S
HETATM    6  C3  UNL     1      24.694  57.337 -35.209  1.00  0.00     0.183 C
HETATM    7  O3  UNL     1      24.085  59.706 -36.347  1.00  0.00    -0.228 OA
HETATM    8  O4  UNL     1      26.483  59.041 -36.353  1.00  0.00    -0.228 OA
HETATM    9  C2  UNL     1      23.537  57.390 -34.256  1.00  0.00     0.294 C
HETATM   10  N11 UNL     1      23.847  58.117 -33.042  1.00  0.00    -0.039 N
ATOM     11 2H11 UNL     1      23.128  57.973 -32.333  1.00  0.00     0.280 HD
ATOM     12 1H11 UNL     1      24.640  57.700 -32.555  1.00  0.00     0.280 HD
BRANCH   9  13
HETATM   13  C1  UNL     1      23.119  56.014 -33.882  1.00  0.00     0.266 C
HETATM   14  O1  UNL     1      21.935  55.716 -33.596  1.00  0.00    -0.270 OA
HETATM   15  N1  UNL     1      24.092  54.981 -33.840  1.00  0.00    -0.246 N
ATOM     16  H1  UNL     1      25.063  55.196 -34.067  1.00  0.00     0.187 HD
BRANCH  15  17
HETATM   17  N2  UNL     1      23.741  53.673 -33.492  1.00  0.00     0.021 NA
BRANCH  17  18
HETATM   18  O2  UNL     1      23.484  53.584 -32.174  1.00  0.00    -0.277 OA
ATOM     19  H2  UNL     1      22.549  53.530 -32.018  1.00  0.00     0.240 HD
ENDBRANCH  17  18
ENDBRANCH  15  17
ENDBRANCH   9  13
ENDBRANCH   1   3
BRANCH   1  20
HETATM   20  C6  UNL     1      24.337  60.148 -30.954  1.00  0.00     0.696 A
HETATM   21  N4  UNL     1      25.163  60.934 -30.254  1.00  0.00    -0.130 N
HETATM   22  N5  UNL     1      25.320  60.361 -29.056  1.00  0.00    -0.268 N
ATOM     23  H4  UNL     1      25.591  61.803 -30.574  1.00  0.00     0.205 HD
HETATM   24  C7  UNL     1      24.621  59.228 -28.956  1.00  0.00     0.183 A
ATOM     25  H5  UNL     1      25.902  60.742 -28.310  1.00  0.00     0.189 HD
HETATM   26  N10 UNL     1      24.007  59.087 -30.133  1.00  0.00    -0.170 N
ATOM     27  H10 UNL     1      23.389  58.315 -30.386  1.00  0.00     0.186 HD
BRANCH  24  28
HETATM   28  C8  UNL     1      24.515  58.304 -27.831  1.00  0.00     0.184 A
HETATM   29  N6  UNL     1      23.816  57.155 -27.765  1.00  0.00    -0.266 N
HETATM   30  N7  UNL     1      23.990  56.631 -26.576  1.00  0.00    -0.226 N
ATOM     31  H6  UNL     1      23.247  56.759 -28.513  1.00  0.00     0.190 HD
HETATM   32  N8  UNL     1      24.782  57.399 -25.857  1.00  0.00    -0.226 N
ATOM     33  H7  UNL     1      23.573  55.757 -26.255  1.00  0.00     0.210 HD
HETATM   34  N9  UNL     1      25.107  58.430 -26.628  1.00  0.00    -0.266 N
ATOM     35  H8  UNL     1      25.085  57.234 -24.897  1.00  0.00     0.210 HD
ATOM     36  H9  UNL     1      25.713  59.201 -26.351  1.00  0.00     0.190 HD
ENDBRANCH  24  28
ENDBRANCH   1  20
TORSDOF 6
ENDMDL