MODEL 1
REMARK VINA RESULT: -8.081323066      0.000      0.000
REMARK  9 active torsions:
REMARK  status: ('A' for Active; 'I' for Inactive)
REMARK    1  A    between atoms: C4_11  and  C5_12
REMARK    2  A    between atoms: C5_12  and  N4_13
REMARK    3  A    between atoms: N4_13  and  N5_14
REMARK    4  A    between atoms: N5_14  and  C6_16
REMARK    5  A    between atoms: N9_27  and  C10_28
REMARK    6  A    between atoms: C10_28  and  O4_29
REMARK    7  A    between atoms: O4_29  and  C11_30
REMARK    8  A    between atoms: C11_30  and  O5_31
REMARK    9  A    between atoms: C11_30  and  O6_33
ROOT
HETATM    1  C6  UNL     1      27.938  61.714 -27.496  1.00  0.00     0.163 A
HETATM    2  N6  UNL     1      28.025  63.038 -27.635  1.00  0.00    -0.335 N
ATOM      3  H6  UNL     1      27.367  63.541 -28.231  1.00  0.00     0.168 HD
HETATM    4  C7  UNL     1      29.014  63.713 -26.962  1.00  0.00     0.183 A
HETATM    5  N7  UNL     1      29.887  63.072 -26.168  1.00  0.00    -0.336 N
ATOM      6  H7  UNL     1      30.608  63.605 -25.682  1.00  0.00     0.168 HD
HETATM    7  C8  UNL     1      29.829  61.731 -26.002  1.00  0.00     0.141 A
HETATM    8  N8  UNL     1      30.516  60.833 -25.272  1.00  0.00    -0.292 N
ATOM      9  H8  UNL     1      31.306  61.027 -24.658  1.00  0.00     0.172 HD
HETATM   10  C9  UNL     1      29.947  59.605 -25.514  1.00  0.00     0.330 A
HETATM   11  O3  UNL     1      30.376  58.574 -24.965  1.00  0.00    -0.246 OA
HETATM   12  N9  UNL     1      28.927  59.740 -26.378  1.00  0.00    -0.270 N
HETATM   13  C12 UNL     1      28.849  61.027 -26.669  1.00  0.00     0.131 A
ENDROOT
BRANCH   1  14
HETATM   14  N5  UNL     1      26.998  61.004 -27.961  1.00  0.00    -0.217 N
ATOM     15  H5  UNL     1      27.007  60.092 -27.503  1.00  0.00     0.203 HD
BRANCH  14  16
HETATM   16  N4  UNL     1      26.067  61.039 -28.788  1.00  0.00    -0.336 NA
BRANCH  16  17
HETATM   17  C5  UNL     1      25.143  60.859 -29.525  1.00  0.00     0.229 C
BRANCH  17  18
HETATM   18  C4  UNL     1      24.482  60.088 -30.498  1.00  0.00     0.104 A
HETATM   19  C1  UNL     1      24.467  60.577 -31.817  1.00  0.00     0.138 A
HETATM   20  N1  UNL     1      25.036  61.852 -32.130  1.00  0.00    -0.081 NA
HETATM   21  N2  UNL     1      23.892  59.835 -32.771  1.00  0.00    -0.296 N
HETATM   22  C2  UNL     1      23.331  58.642 -32.498  1.00  0.00     0.328 A
ATOM     23  H2  UNL     1      23.879  60.183 -33.730  1.00  0.00     0.171 HD
HETATM   24  O1  UNL     1      22.802  57.997 -33.446  1.00  0.00    -0.247 OA
HETATM   25  N3  UNL     1      23.325  58.145 -31.252  1.00  0.00    -0.275 N
HETATM   26  C3  UNL     1      23.890  58.845 -30.253  1.00  0.00     0.265 A
ATOM     27  H3  UNL     1      22.895  57.240 -31.063  1.00  0.00     0.173 HD
HETATM   28  O2  UNL     1      23.878  58.360 -29.078  1.00  0.00    -0.267 OA
ENDBRANCH  17  18
ENDBRANCH  16  17
ENDBRANCH  14  16
ENDBRANCH   1  14
BRANCH  12  29
HETATM   29  C10 UNL     1      28.192  58.635 -26.933  1.00  0.00     0.309 C
BRANCH  29  30
HETATM   30  O4  UNL     1      27.128  58.332 -26.087  1.00  0.00    -0.319 OA
BRANCH  30  31
HETATM   31  C11 UNL     1      25.971  57.885 -26.531  1.00  0.00     0.409 C
BRANCH  31  32
HETATM   32  O5  UNL     1      25.308  56.965 -25.684  1.00  0.00    -0.350 OA
ATOM     33  H5  UNL     1      25.081  56.133 -26.082  1.00  0.00     0.215 HD
ENDBRANCH  31  32
BRANCH  31  34
HETATM   34  O6  UNL     1      25.088  59.011 -26.613  1.00  0.00    -0.350 OA
ATOM     35  H6  UNL     1      24.267  58.697 -26.974  1.00  0.00     0.215 HD
ENDBRANCH  31  34
ENDBRANCH  30  31
ENDBRANCH  29  30
ENDBRANCH  12  29
TORSDOF 9
ENDMDL