MODEL 3
REMARK VINA RESULT: -7.999165697      2.893      4.959
REMARK  4 active torsions:
REMARK  status: ('A' for Active; 'I' for Inactive)
REMARK    1  A    between atoms: C2_7  and  C3_8
REMARK    2  A    between atoms: C5_15  and  C6_16
REMARK       I    between atoms: C6_16  and  N7_18
REMARK    3  A    between atoms: N7_18  and  C7_20
REMARK    4  A    between atoms: C10_26  and  O2_27
ROOT
HETATM    1  C3  UNL     1      25.805  60.580 -29.542  1.00  0.00     0.126 A
HETATM    2  N4  UNL     1      25.675  61.508 -30.510  1.00  0.00    -0.265 N
ATOM      3  H4  UNL     1      26.074  62.435 -30.358  1.00  0.00     0.190 HD
HETATM    4  N5  UNL     1      25.053  61.267 -31.644  1.00  0.00    -0.189 N
HETATM    5  N6  UNL     1      24.804  62.008 -32.729  1.00  0.00    -0.289 N
ATOM      6  H6  UNL     1      25.090  62.979 -32.852  1.00  0.00     0.188 HD
HETATM    7  C4  UNL     1      24.129  61.291 -33.624  1.00  0.00     0.129 A
HETATM    8  C5  UNL     1      23.934  60.011 -33.075  1.00  0.00     0.084 A
HETATM    9  C11 UNL     1      24.531  60.041 -31.829  1.00  0.00     0.159 A
HETATM   10  C12 UNL     1      24.654  59.065 -30.838  1.00  0.00     0.278 A
HETATM   11  O3  UNL     1      24.169  57.929 -31.008  1.00  0.00    -0.265 OA
HETATM   12  N9  UNL     1      25.295  59.340 -29.688  1.00  0.00    -0.308 N
ATOM     13  H9  UNL     1      25.392  58.638 -28.955  1.00  0.00     0.170 HD
ENDROOT
BRANCH   8  14
HETATM   14  C6  UNL     1      23.244  58.901 -33.709  1.00  0.00     0.256 C
HETATM   15  O1  UNL     1      22.024  58.890 -33.948  1.00  0.00    -0.268 OA
HETATM   16  N7  UNL     1      23.998  57.756 -34.080  1.00  0.00    -0.348 N
ATOM     17  H7  UNL     1      25.001  57.749 -33.888  1.00  0.00     0.163 HD
BRANCH  16  18
HETATM   18  C7  UNL     1      23.406  56.596 -34.718  1.00  0.00     0.140 C
HETATM   19  C8  UNL     1      24.464  55.928 -35.554  1.00  0.00     0.260 C
HETATM   20  N8  UNL     1      25.309  55.231 -34.630  1.00  0.00    -0.071 N
HETATM   21  C9  UNL     1      24.627  55.115 -33.368  1.00  0.00     0.266 C
ATOM     22  H82 UNL     1      25.617  54.328 -34.991  1.00  0.00     0.277 HD
ATOM     23  H81 UNL     1      26.226  55.668 -34.537  1.00  0.00     0.277 HD
HETATM   24  C10 UNL     1      23.197  55.557 -33.611  1.00  0.00     0.168 C
BRANCH  24  25
HETATM   25  O2  UNL     1      22.644  56.210 -32.529  1.00  0.00    -0.392 OA
ATOM     26  H2  UNL     1      22.832  55.691 -31.756  1.00  0.00     0.210 HD
ENDBRANCH  24  25
ENDBRANCH  16  18
ENDBRANCH   8  14
BRANCH   1  27
HETATM   27  C2  UNL     1      26.518  60.980 -28.329  1.00  0.00     0.186 C
HETATM   28  N3  UNL     1      27.103  59.845 -27.634  1.00  0.00    -0.320 N
HETATM   29  N2  UNL     1      27.990  60.004 -26.573  1.00  0.00    -0.277 N
ATOM     30  H3  UNL     1      26.856  58.902 -27.933  1.00  0.00     0.181 HD
HETATM   31  C1  UNL     1      28.490  61.196 -26.377  1.00  0.00     0.202 C
ATOM     32  H2  UNL     1      28.240  59.220 -25.971  1.00  0.00     0.189 HD
HETATM   33  N1  UNL     1      29.397  61.460 -25.328  1.00  0.00    -0.062 NA
HETATM   34  N10 UNL     1      28.155  62.305 -27.218  1.00  0.00    -0.361 N
HETATM   35  C13 UNL     1      27.594  62.003 -28.520  1.00  0.00     0.157 C
ATOM     36  H10 UNL     1      28.303  63.267 -26.913  1.00  0.00     0.162 HD
ENDBRANCH   1  27
TORSDOF 4
ENDMDL