MODEL 1
REMARK VINA RESULT: -7.947013098      0.000      0.000
REMARK  10 active torsions:
REMARK  status: ('A' for Active; 'I' for Inactive)
REMARK    1  A    between atoms: C2_3  and  C3_4
REMARK    2  A    between atoms: C3_4  and  O2_6
REMARK    3  A    between atoms: O2_6  and  C4_7
REMARK    4  A    between atoms: C4_7  and  C5_8
REMARK    5  A    between atoms: C5_8  and  N2_9
REMARK    6  A    between atoms: C5_8  and  C6_13
REMARK    7  A    between atoms: C7_17  and  C8_18
REMARK    8  A    between atoms: C8_18  and  O4_19
REMARK    9  A    between atoms: C8_18  and  N5_21
REMARK   10  A    between atoms: N5_21  and  N6_23
ROOT
HETATM    1  C1  UNL     1      28.983  62.687 -28.421  1.00  0.00     0.182 C
HETATM    2  N1  UNL     1      28.084  61.597 -28.120  1.00  0.00    -0.251 N
HETATM    3  C2  UNL     1      28.004  60.670 -27.095  1.00  0.00     0.224 A
HETATM    4  N4  UNL     1      26.916  60.147 -27.672  1.00  0.00    -0.204 N
HETATM    5  C7  UNL     1      25.925  59.219 -27.737  1.00  0.00     0.138 A
HETATM    6  C9  UNL     1      25.049  59.238 -28.840  1.00  0.00     0.095 A
HETATM    7  N7  UNL     1      24.000  58.268 -28.918  1.00  0.00    -0.099 NA
HETATM    8  C10 UNL     1      25.194  60.176 -29.818  1.00  0.00     0.056 A
HETATM    9  C11 UNL     1      24.512  60.447 -30.988  1.00  0.00     0.124 A
HETATM   10  N8  UNL     1      25.107  61.508 -31.560  1.00  0.00    -0.309 N
ATOM     11  H8  UNL     1      24.833  61.950 -32.438  1.00  0.00     0.186 HD
HETATM   12  N9  UNL     1      26.107  61.876 -30.784  1.00  0.00    -0.282 N
ATOM     13  H9  UNL     1      26.729  62.660 -30.983  1.00  0.00     0.188 HD
HETATM   14  C12 UNL     1      26.206  61.093 -29.702  1.00  0.00     0.174 A
HETATM   15  N10 UNL     1      27.030  61.037 -28.625  1.00  0.00    -0.165 N
ENDROOT
BRANCH   3  16
HETATM   16  C3  UNL     1      28.881  60.422 -25.971  1.00  0.00     0.331 C
HETATM   17  O1  UNL     1      29.160  61.117 -24.998  1.00  0.00    -0.256 OA
BRANCH  16  18
HETATM   18  O2  UNL     1      29.563  59.180 -25.920  1.00  0.00    -0.313 OA
BRANCH  18  19
HETATM   19  C4  UNL     1      30.457  58.702 -26.860  1.00  0.00     0.221 C
BRANCH  19  20
HETATM   20  C5  UNL     1      31.227  57.471 -26.589  1.00  0.00     0.295 C
BRANCH  20  21
HETATM   21  N2  UNL     1      32.339  57.139 -27.386  1.00  0.00    -0.065 N
ATOM     22  H23 UNL     1      32.182  57.505 -28.325  1.00  0.00     0.275 HD
ATOM     23  H22 UNL     1      33.134  57.699 -27.079  1.00  0.00     0.275 HD
ATOM     24  H21 UNL     1      32.644  56.168 -27.467  1.00  0.00     0.275 HD
ENDBRANCH  20  21
BRANCH  20  25
HETATM   25  C6  UNL     1      30.320  56.258 -26.527  1.00  0.00     0.263 C
HETATM   26  N3  UNL     1      30.733  55.202 -25.674  1.00  0.00    -0.060 NA
HETATM   27  O3  UNL     1      29.268  56.231 -27.210  1.00  0.00    -0.274 OA
ENDBRANCH  20  25
ENDBRANCH  19  20
ENDBRANCH  18  19
ENDBRANCH  16  18
ENDBRANCH   3  16
BRANCH   5  28
HETATM   28  C8  UNL     1      25.739  58.175 -26.801  1.00  0.00     0.186 C
BRANCH  28  29
HETATM   29  O4  UNL     1      26.831  57.478 -26.560  1.00  0.00    -0.343 OA
ATOM     30  H4  UNL     1      26.789  56.965 -25.762  1.00  0.00     0.219 HD
ENDBRANCH  28  29
BRANCH  28  31
HETATM   31  N5  UNL     1      24.676  57.694 -26.087  1.00  0.00    -0.285 N
ATOM     32  H5  UNL     1      24.397  58.142 -25.214  1.00  0.00     0.188 HD
BRANCH  31  33
HETATM   33  N6  UNL     1      23.957  56.548 -26.582  1.00  0.00    -0.343 N
ATOM     34  H62 UNL     1      24.467  55.801 -27.054  1.00  0.00     0.176 HD
ATOM     35  H61 UNL     1      22.946  56.502 -26.453  1.00  0.00     0.176 HD
ENDBRANCH  31  33
ENDBRANCH  28  31
ENDBRANCH   5  28
TORSDOF 10
ENDMDL