MODEL 3
REMARK VINA RESULT: -8.484456896      4.434      6.062
REMARK  8 active torsions:
REMARK  status: ('A' for Active; 'I' for Inactive)
REMARK    1  A    between atoms: C2_3  and  O1_4
REMARK    2  A    between atoms: N5_15  and  C6_16
REMARK    3  A    between atoms: C6_16  and  C7_17
REMARK    4  A    between atoms: C7_17  and  C8_18
REMARK    5  A    between atoms: C8_18  and  N6_19
REMARK    6  A    between atoms: C11_24  and  N8_25
REMARK    7  A    between atoms: C12_30  and  N10_31
REMARK    8  A    between atoms: N10_31  and  N11_33
ROOT
HETATM    1  N1  UNL     1      30.157  60.348 -24.725  1.00  0.00    -0.190 NA
HETATM    2  C1  UNL     1      29.808  61.424 -24.473  1.00  0.00     0.148 C
HETATM    3  C2  UNL     1      29.381  62.803 -24.153  1.00  0.00     0.340 C
HETATM    4  O2  UNL     1      30.412  63.492 -23.605  1.00  0.00    -0.315 OA
HETATM    5  C3  UNL     1      30.999  64.457 -24.366  1.00  0.00     0.213 C
HETATM    6  C4  UNL     1      31.836  65.412 -23.555  1.00  0.00     0.175 C
HETATM    7  N2  UNL     1      31.530  66.700 -24.136  1.00  0.00    -0.137 NA
HETATM    8  N3  UNL     1      30.258  66.602 -24.709  1.00  0.00    -0.290 N
ATOM      9  H3  UNL     1      29.678  67.397 -24.974  1.00  0.00     0.183 HD
HETATM   10  C5  UNL     1      29.924  65.366 -24.854  1.00  0.00     0.134 C
HETATM   11  N4  UNL     1      28.763  64.730 -25.371  1.00  0.00    -0.300 N
ATOM     12  H4  UNL     1      27.990  65.260 -25.772  1.00  0.00     0.182 HD
HETATM   13  N5  UNL     1      28.745  63.337 -25.299  1.00  0.00    -0.158 NA
ENDROOT
BRANCH   3  14
HETATM   14  O1  UNL     1      28.392  62.650 -23.151  1.00  0.00    -0.340 OA
ATOM     15  H1  UNL     1      27.777  62.023 -23.513  1.00  0.00     0.215 HD
ENDBRANCH   3  14
BRANCH  13  16
HETATM   16  C6  UNL     1      29.189  62.789 -26.557  1.00  0.00     0.122 C
BRANCH  16  17
HETATM   17  C7  UNL     1      27.965  62.535 -27.393  1.00  0.00     0.037 C
BRANCH  17  18
HETATM   18  C8  UNL     1      27.650  61.076 -27.570  1.00  0.00     0.133 C
BRANCH  18  19
HETATM   19  N6  UNL     1      26.750  60.849 -28.670  1.00  0.00    -0.327 N
HETATM   20  C9  UNL     1      26.660  61.610 -29.776  1.00  0.00     0.185 A
HETATM   21  N7  UNL     1      25.708  61.124 -30.586  1.00  0.00    -0.346 N
HETATM   22  C10 UNL     1      25.193  60.033 -29.969  1.00  0.00     0.123 A
ATOM     23  H7  UNL     1      25.427  61.501 -31.492  1.00  0.00     0.167 HD
HETATM   24  C11 UNL     1      24.206  59.145 -30.332  1.00  0.00     0.145 A
HETATM   25  C13 UNL     1      25.835  59.845 -28.763  1.00  0.00     0.155 A
HETATM   26  N9  UNL     1      23.873  58.127 -29.548  1.00  0.00    -0.173 N
HETATM   27  C12 UNL     1      24.527  57.982 -28.383  1.00  0.00     0.699 A
ATOM     28  H9  UNL     1      23.141  57.472 -29.823  1.00  0.00     0.186 HD
HETATM   29  N12 UNL     1      25.482  58.819 -28.001  1.00  0.00    -0.172 N
ATOM     30  H12 UNL     1      25.952  58.672 -27.107  1.00  0.00     0.186 HD
BRANCH  24  31
HETATM   31  N8  UNL     1      23.600  59.314 -31.457  1.00  0.00    -0.383 N
ATOM     32  H82 UNL     1      22.705  59.803 -31.483  1.00  0.00     0.157 HD
ATOM     33  H81 UNL     1      24.031  58.951 -32.308  1.00  0.00     0.157 HD
ENDBRANCH  24  31
BRANCH  27  34
HETATM   34  N10 UNL     1      24.180  56.975 -27.635  1.00  0.00    -0.138 N
ATOM     35  H10 UNL     1      23.737  56.164 -28.067  1.00  0.00     0.205 HD
BRANCH  34  36
HETATM   36  N11 UNL     1      24.400  56.975 -26.261  1.00  0.00    -0.331 N
ATOM     37 2H11 UNL     1      24.435  56.077 -25.779  1.00  0.00     0.177 HD
ATOM     38 1H11 UNL     1      24.526  57.843 -25.739  1.00  0.00     0.177 HD
ENDBRANCH  34  36
ENDBRANCH  27  34
ENDBRANCH  18  19
ENDBRANCH  17  18
ENDBRANCH  16  17
ENDBRANCH  13  16
TORSDOF 8
ENDMDL