MODEL 2
REMARK VINA RESULT: -7.563042081      1.149      1.230
REMARK  6 active torsions:
REMARK  status: ('A' for Active; 'I' for Inactive)
REMARK    1  A    between atoms: C2_2  and  O1_3
REMARK    2  A    between atoms: C2_2  and  C3_5
REMARK    3  A    between atoms: C3_5  and  N1_6
REMARK    4  A    between atoms: C6_15  and  O3_16
REMARK    5  A    between atoms: C7_18  and  C8_19
REMARK    6  A    between atoms: C10_26  and  C11_27
ROOT
HETATM    1  N1  UNL     1      31.319  59.726 -26.488  1.00  0.00    -0.331 N
HETATM    2  C4  UNL     1      30.974  59.621 -25.121  1.00  0.00     0.190 C
HETATM    3  N2  UNL     1      31.045  58.316 -24.486  1.00  0.00    -0.064 NA
HETATM    4  N3  UNL     1      30.601  60.570 -24.350  1.00  0.00    -0.329 N
ATOM      5  H3  UNL     1      30.380  60.349 -23.379  1.00  0.00     0.165 HD
HETATM    6  C5  UNL     1      30.477  61.936 -24.787  1.00  0.00     0.210 C
HETATM    7  N4  UNL     1      29.125  62.295 -25.118  1.00  0.00    -0.089 NA
HETATM    8  N5  UNL     1      28.924  62.441 -23.716  1.00  0.00    -0.069 NA
HETATM    9  O2  UNL     1      28.033  63.382 -23.344  1.00  0.00    -0.215 OA
HETATM   10  C6  UNL     1      28.239  64.731 -23.319  1.00  0.00     0.233 C
HETATM   11  C7  UNL     1      29.418  65.211 -23.688  1.00  0.00     0.167 C
HETATM   12  N6  UNL     1      30.429  64.280 -24.101  1.00  0.00    -0.356 N
ATOM     13  H6  UNL     1      31.213  64.584 -24.678  1.00  0.00     0.162 HD
HETATM   14  C9  UNL     1      30.314  62.918 -23.687  1.00  0.00     0.262 C
HETATM   15  S1  UNL     1      31.745  62.329 -26.017  1.00  0.00    -0.081 SA
HETATM   16  C10 UNL     1      31.607  60.932 -27.226  1.00  0.00     0.242 C
ENDROOT
BRANCH  16  17
HETATM   17  C11 UNL     1      30.573  61.257 -28.217  1.00  0.00     0.264 C
HETATM   18  N7  UNL     1      29.267  60.738 -28.218  1.00  0.00    -0.059 NA
HETATM   19  O6  UNL     1      30.903  62.075 -29.142  1.00  0.00    -0.274 OA
ENDBRANCH  16  17
BRANCH   1  20
HETATM   20  C3  UNL     1      31.401  58.444 -27.199  1.00  0.00     0.158 C
BRANCH  20  21
HETATM   21  C2  UNL     1      32.762  57.849 -27.273  1.00  0.00     0.132 C
HETATM   22  C1  UNL     1      32.617  56.329 -27.422  1.00  0.00     0.041 C
BRANCH  21  23
HETATM   23  O1  UNL     1      33.577  58.283 -28.295  1.00  0.00    -0.394 OA
ATOM     24  H1  UNL     1      33.304  59.166 -28.517  1.00  0.00     0.210 HD
ENDBRANCH  21  23
ENDBRANCH  20  21
ENDBRANCH   1  20
BRANCH  11  25
HETATM   25  C8  UNL     1      29.657  66.641 -23.671  1.00  0.00     0.231 C
HETATM   26  O4  UNL     1      30.308  67.153 -24.602  1.00  0.00    -0.643 OA
HETATM   27  O5  UNL     1      29.188  67.453 -22.658  1.00  0.00    -0.643 OA
ENDBRANCH  11  25
BRANCH  10  28
HETATM   28  O3  UNL     1      27.253  65.648 -22.918  1.00  0.00    -0.338 OA
ATOM     29  H3  UNL     1      26.487  65.848 -23.444  1.00  0.00     0.220 HD
ENDBRANCH  10  28
TORSDOF 6
ENDMDL