MODEL 2
REMARK VINA RESULT: -5.955814562      4.427      7.437
REMARK  8 active torsions:
REMARK  status: ('A' for Active; 'I' for Inactive)
REMARK    1  A    between atoms: C1_4  and  C2_6
REMARK    2  A    between atoms: C2_6  and  O1_7
REMARK    3  A    between atoms: C3_9  and  S1_10
REMARK    4  A    between atoms: C4_16  and  C5_17
REMARK    5  A    between atoms: N4_18  and  N5_20
REMARK    6  A    between atoms: C6_23  and  N6_24
REMARK    7  A    between atoms: C7_28  and  O7_29
REMARK    8  A    between atoms: C7_28  and  C8_31
ROOT
HETATM    1  C2  UNL     1      30.328  62.970 -24.678  1.00  0.00     0.212 C
HETATM    2  C3  UNL     1      30.730  61.579 -24.288  1.00  0.00     0.169 C
HETATM    3  N3  UNL     1      30.149  60.551 -24.726  1.00  0.00    -0.367 N
ATOM      4  H3  UNL     1      30.483  59.640 -24.411  1.00  0.00     0.161 HD
HETATM    5  C4  UNL     1      29.046  60.586 -25.642  1.00  0.00     0.156 C
HETATM    6  C6  UNL     1      29.334  61.690 -26.625  1.00  0.00     0.260 C
HETATM    7  C7  UNL     1      29.558  63.028 -25.965  1.00  0.00     0.221 C
ENDROOT
BRANCH   1   8
HETATM    8  C1  UNL     1      29.536  63.505 -23.547  1.00  0.00     0.132 C
HETATM    9  N1  UNL     1      29.794  64.677 -23.103  1.00  0.00    -0.388 N
ATOM     10  H12 UNL     1      29.248  65.046 -22.324  1.00  0.00     0.157 HD
ATOM     11  H11 UNL     1      30.547  65.191 -23.561  1.00  0.00     0.157 HD
HETATM   12  N2  UNL     1      28.485  62.787 -22.909  1.00  0.00    -0.084 NA
ENDBRANCH   1   8
BRANCH   1  13
HETATM   13  O1  UNL     1      31.522  63.689 -24.737  1.00  0.00    -0.372 OA
ATOM     14  H1  UNL     1      31.451  64.417 -24.130  1.00  0.00     0.211 HD
ENDBRANCH   1  13
BRANCH   2  15
HETATM   15  S1  UNL     1      32.072  61.341 -23.171  1.00  0.00     0.153 S
HETATM   16  O2  UNL     1      32.136  59.911 -22.713  1.00  0.00    -0.590 OA
HETATM   17  O3  UNL     1      33.346  61.611 -23.920  1.00  0.00    -0.590 OA
HETATM   18  O4  UNL     1      31.954  62.395 -21.866  1.00  0.00    -0.590 OA
ENDBRANCH   2  15
BRANCH   7  19
HETATM   19  O7  UNL     1      28.292  63.529 -25.673  1.00  0.00    -0.374 OA
ATOM     20  H7  UNL     1      27.958  63.938 -26.463  1.00  0.00     0.211 HD
ENDBRANCH   7  19
BRANCH   7  21
HETATM   21  C8  UNL     1      30.173  63.896 -26.979  1.00  0.00     0.215 C
HETATM   22  O8  UNL     1      30.872  63.489 -27.939  1.00  0.00    -0.646 OA
HETATM   23  O9  UNL     1      29.978  65.263 -26.888  1.00  0.00    -0.646 OA
ENDBRANCH   7  21
BRANCH   6  24
HETATM   24  N6  UNL     1      28.186  61.809 -27.509  1.00  0.00    -0.069 N
ATOM     25  H63 UNL     1      27.302  61.613 -27.038  1.00  0.00     0.275 HD
ATOM     26  H62 UNL     1      27.988  62.775 -27.772  1.00  0.00     0.275 HD
ATOM     27  H61 UNL     1      28.348  61.204 -28.314  1.00  0.00     0.275 HD
ENDBRANCH   6  24
BRANCH   5  28
HETATM   28  C5  UNL     1      29.087  59.298 -26.408  1.00  0.00     0.113 C
HETATM   29  N4  UNL     1      30.163  58.606 -26.335  1.00  0.00    -0.254 N
ATOM     30  H4  UNL     1      30.918  58.979 -25.761  1.00  0.00     0.192 HD
BRANCH  29  31
HETATM   31  N5  UNL     1      30.388  57.405 -26.963  1.00  0.00    -0.040 N
HETATM   32  O5  UNL     1      31.502  57.154 -27.455  1.00  0.00    -0.516 OA
HETATM   33  O6  UNL     1      29.414  56.449 -27.073  1.00  0.00    -0.516 OA
ENDBRANCH  29  31
ENDBRANCH   5  28
TORSDOF 8
ENDMDL