MODEL 1
REMARK VINA RESULT: -7.768918907      0.000      0.000
REMARK  8 active torsions:
REMARK  status: ('A' for Active; 'I' for Inactive)
REMARK    1  A    between atoms: C8_11  and  N3_12
REMARK    2  A    between atoms: N6_16  and  C9_17
REMARK    3  A    between atoms: C9_17  and  C10_18
REMARK    4  A    between atoms: C10_18  and  N7_19
REMARK    5  A    between atoms: C10_18  and  C11_23
REMARK    6  A    between atoms: C11_23  and  N9_27
REMARK    7  A    between atoms: N9_27  and  O3_29
REMARK    8  A    between atoms: O3_29  and  C12_30
ROOT
HETATM    1  C1  UNL     1      26.327  59.790 -36.354  1.00  0.00     0.132 C
HETATM    2  N1  UNL     1      25.169  60.103 -35.577  1.00  0.00    -0.232 NA
HETATM    3  N2  UNL     1      24.076  60.522 -36.343  1.00  0.00    -0.157 NA
HETATM    4  C2  UNL     1      23.156  61.165 -35.424  1.00  0.00     0.125 C
HETATM    5  C3  UNL     1      23.683  62.557 -35.143  1.00  0.00     0.027 C
HETATM    6  C4  UNL     1      25.202  62.408 -34.976  1.00  0.00     0.025 C
HETATM    7  C5  UNL     1      25.425  60.997 -34.472  1.00  0.00     0.111 C
HETATM    8  C6  UNL     1      24.375  60.778 -33.362  1.00  0.00     0.277 C
HETATM    9  C7  UNL     1      23.128  60.337 -34.167  1.00  0.00     0.181 C
HETATM   10  O1  UNL     1      23.316  58.998 -34.346  1.00  0.00    -0.334 OA
HETATM   11  C8  UNL     1      24.191  58.531 -33.375  1.00  0.00     0.486 C
HETATM   12  N6  UNL     1      24.622  59.639 -32.600  1.00  0.00     0.146 N
ENDROOT
BRANCH  12  13
HETATM   13  C9  UNL     1      24.040  59.631 -31.309  1.00  0.00     0.319 C
BRANCH  13  14
HETATM   14  C10 UNL     1      24.947  59.843 -30.136  1.00  0.00     0.280 C
BRANCH  14  15
HETATM   15  N7  UNL     1      25.300  61.171 -29.805  1.00  0.00    -0.066 N
ATOM     16  H73 UNL     1      24.481  61.653 -29.432  1.00  0.00     0.275 HD
ATOM     17  H72 UNL     1      25.909  61.163 -28.988  1.00  0.00     0.275 HD
ATOM     18  H71 UNL     1      25.724  61.745 -30.533  1.00  0.00     0.275 HD
ENDBRANCH  14  15
BRANCH  14  19
HETATM   19  C11 UNL     1      24.315  59.252 -28.900  1.00  0.00     0.128 C
HETATM   20  N8  UNL     1      23.521  58.249 -28.926  1.00  0.00    -0.386 N
ATOM     21  H82 UNL     1      23.295  57.818 -29.822  1.00  0.00     0.157 HD
ATOM     22  H81 UNL     1      23.094  57.849 -28.091  1.00  0.00     0.157 HD
BRANCH  19  23
HETATM   23  N9  UNL     1      24.628  59.848 -27.659  1.00  0.00    -0.242 N
ATOM     24  H9  UNL     1      23.939  60.465 -27.229  1.00  0.00     0.196 HD
BRANCH  23  25
HETATM   25  O3  UNL     1      25.829  59.634 -26.996  1.00  0.00    -0.182 OA
BRANCH  25  26
HETATM   26  C12 UNL     1      26.068  58.327 -26.567  1.00  0.00     0.394 C
HETATM   27  N10 UNL     1      25.014  57.562 -25.990  1.00  0.00    -0.031 NA
HETATM   28  O4  UNL     1      27.212  57.808 -26.682  1.00  0.00    -0.240 OA
ENDBRANCH  25  26
ENDBRANCH  23  25
ENDBRANCH  19  23
ENDBRANCH  14  19
ENDBRANCH  13  14
ENDBRANCH  12  13
BRANCH  11  29
HETATM   29  N3  UNL     1      23.589  57.446 -32.619  1.00  0.00    -0.006 NA
HETATM   30  N4  UNL     1      22.793  56.686 -33.521  1.00  0.00     0.006 NA
HETATM   31  N5  UNL     1      23.827  55.755 -33.674  1.00  0.00     0.053 NA
HETATM   32  O2  UNL     1      24.407  56.340 -32.598  1.00  0.00    -0.148 OA
ENDBRANCH  11  29
TORSDOF 8
ENDMDL