MODEL 1
REMARK VINA RESULT: -7.953332738      0.000      0.000
REMARK  9 active torsions:
REMARK  status: ('A' for Active; 'I' for Inactive)
REMARK    1  A    between atoms: N1_1  and  N2_4
REMARK    2  A    between atoms: N2_4  and  C1_6
REMARK    3  A    between atoms: C2_7  and  O1_8
REMARK    4  A    between atoms: C3_12  and  N4_13
REMARK    5  A    between atoms: C4_16  and  N6_17
REMARK    6  A    between atoms: N6_17  and  N7_19
REMARK       I    between atoms: N8_21  and  C5_23
REMARK    7  A    between atoms: C5_23  and  C6_25
REMARK    8  A    between atoms: C6_25  and  N9_26
REMARK    9  A    between atoms: C6_25  and  C7_30
ROOT
HETATM    1  N4  UNL     1      29.081  61.103 -26.820  1.00  0.00    -0.151 N
HETATM    2  N5  UNL     1      29.199  62.295 -26.282  1.00  0.00    -0.117 N
ATOM      3  H5  UNL     1      28.423  62.852 -25.925  1.00  0.00     0.206 HD
HETATM    4  C4  UNL     1      30.487  62.676 -26.269  1.00  0.00     0.717 A
HETATM    5  N10 UNL     1      31.159  61.656 -26.829  1.00  0.00    -0.137 N
ATOM      6  H10 UNL     1      32.168  61.625 -26.973  1.00  0.00     0.189 HD
HETATM    7  C8  UNL     1      30.302  60.683 -27.170  1.00  0.00     0.363 A
HETATM    8  O5  UNL     1      30.632  59.593 -27.718  1.00  0.00    -0.244 OA
ENDROOT
BRANCH   4   9
HETATM    9  N6  UNL     1      30.960  63.808 -25.805  1.00  0.00    -0.116 N
ATOM     10  H6  UNL     1      31.756  63.838 -25.168  1.00  0.00     0.207 HD
BRANCH   9  11
HETATM   11  N7  UNL     1      30.313  64.968 -26.230  1.00  0.00    -0.226 N
HETATM   12  N8  UNL     1      30.063  65.887 -25.377  1.00  0.00    -0.253 N
HETATM   13  C5  UNL     1      30.436  65.736 -24.020  1.00  0.00     0.278 C
ATOM     14  H8  UNL     1      29.591  66.739 -25.678  1.00  0.00     0.191 HD
HETATM   15  O2  UNL     1      31.632  65.532 -23.760  1.00  0.00    -0.269 OA
ATOM     16  H7  UNL     1      30.043  65.081 -27.207  1.00  0.00     0.209 HD
BRANCH  13  17
HETATM   17  C6  UNL     1      29.464  65.810 -22.907  1.00  0.00     0.375 C
BRANCH  17  18
HETATM   18  N9  UNL     1      29.290  67.188 -22.488  1.00  0.00    -0.056 N
ATOM     19  H93 UNL     1      30.184  67.655 -22.333  1.00  0.00     0.275 HD
ATOM     20  H92 UNL     1      28.944  67.777 -23.246  1.00  0.00     0.275 HD
ATOM     21  H91 UNL     1      28.689  67.231 -21.665  1.00  0.00     0.275 HD
ENDBRANCH  17  18
BRANCH  17  22
HETATM   22  C7  UNL     1      28.163  65.214 -23.268  1.00  0.00     0.214 C
HETATM   23  O3  UNL     1      27.119  65.675 -22.770  1.00  0.00    -0.646 OA
HETATM   24  O4  UNL     1      28.120  64.159 -24.148  1.00  0.00    -0.646 OA
ENDBRANCH  17  22
ENDBRANCH  13  17
ENDBRANCH   9  11
ENDBRANCH   4   9
BRANCH   1  25
HETATM   25  C3  UNL     1      27.850  60.368 -27.003  1.00  0.00     0.260 A
HETATM   26  N3  UNL     1      27.753  59.125 -26.510  1.00  0.00    -0.299 N
HETATM   27  C2  UNL     1      26.616  58.423 -26.668  1.00  0.00     0.178 A
ATOM     28  H3  UNL     1      28.541  58.711 -26.014  1.00  0.00     0.171 HD
HETATM   29  C1  UNL     1      25.581  59.034 -27.350  1.00  0.00     0.175 A
HETATM   30  C9  UNL     1      25.737  60.321 -27.840  1.00  0.00     0.323 A
HETATM   31  O6  UNL     1      26.877  60.947 -27.646  1.00  0.00    -0.239 OA
HETATM   32  O7  UNL     1      24.771  60.841 -28.453  1.00  0.00    -0.257 OA
BRANCH  27  33
HETATM   33  O1  UNL     1      26.439  57.135 -26.187  1.00  0.00    -0.344 OA
ATOM     34  H1  UNL     1      27.138  56.728 -25.690  1.00  0.00     0.219 HD
ENDBRANCH  27  33
BRANCH  29  35
HETATM   35  N2  UNL     1      24.375  58.304 -27.525  1.00  0.00    -0.298 N
ATOM     36  H2  UNL     1      23.847  57.971 -26.719  1.00  0.00     0.186 HD
BRANCH  35  37
HETATM   37  N1  UNL     1      23.930  58.054 -28.816  1.00  0.00    -0.344 N
ATOM     38  H12 UNL     1      24.598  58.035 -29.586  1.00  0.00     0.176 HD
ATOM     39  H11 UNL     1      22.935  57.893 -28.967  1.00  0.00     0.176 HD
ENDBRANCH  35  37
ENDBRANCH  29  35
ENDBRANCH   1  25
TORSDOF 9
ENDMDL