MODEL 1
REMARK VINA RESULT: -7.041293092      0.000      0.000
REMARK  6 active torsions:
REMARK  status: ('A' for Active; 'I' for Inactive)
REMARK    1  A    between atoms: C2_2  and  C3_3
REMARK    2  A    between atoms: C4_4  and  C5_5
REMARK    3  A    between atoms: C6_6  and  C7_7
REMARK    4  A    between atoms: C8_12  and  C9_13
REMARK    5  A    between atoms: N4_15  and  N5_17
REMARK    6  A    between atoms: C11_22  and  C12_23
ROOT
HETATM    1  C5  UNL     1      25.617  55.536 -34.690  1.00  0.00     0.047 A
HETATM    2  C6  UNL     1      25.046  55.735 -33.489  1.00  0.00     0.112 A
HETATM    3  N2  UNL     1      24.417  56.915 -33.190  1.00  0.00    -0.348 N
ATOM      4  H2  UNL     1      24.001  57.030 -32.265  1.00  0.00     0.166 HD
HETATM    5  C8  UNL     1      24.325  57.946 -34.087  1.00  0.00     0.095 A
HETATM    6  C11 UNL     1      24.888  57.797 -35.329  1.00  0.00     0.110 A
HETATM    7  C13 UNL     1      25.527  56.579 -35.610  1.00  0.00     0.202 A
HETATM    8  O3  UNL     1      26.035  56.440 -36.744  1.00  0.00    -0.286 OA
ENDROOT
BRANCH   5   9
HETATM    9  C9  UNL     1      23.469  59.073 -33.776  1.00  0.00     0.159 C
HETATM   10  N3  UNL     1      22.010  58.966 -33.948  1.00  0.00    -0.079 NA
HETATM   11  N4  UNL     1      23.810  60.151 -33.252  1.00  0.00    -0.284 N
ATOM     12  H4  UNL     1      23.016  60.782 -33.138  1.00  0.00     0.188 HD
BRANCH  11  13
HETATM   13  N5  UNL     1      24.931  60.688 -32.804  1.00  0.00    -0.275 N
HETATM   14  C10 UNL     1      25.263  60.671 -31.540  1.00  0.00     0.215 C
HETATM   15  N6  UNL     1      26.491  61.284 -31.203  1.00  0.00    -0.065 NA
HETATM   16  N7  UNL     1      24.430  60.069 -30.567  1.00  0.00    -0.065 NA
ATOM     17  H5  UNL     1      25.561  61.133 -33.471  1.00  0.00     0.189 HD
ENDBRANCH  11  13
ENDBRANCH   5   9
BRANCH   6  18
HETATM   18  C12 UNL     1      25.050  58.838 -36.330  1.00  0.00     0.271 C
HETATM   19  N8  UNL     1      26.278  59.551 -36.335  1.00  0.00    -0.057 NA
HETATM   20  O2  UNL     1      24.190  59.125 -37.157  1.00  0.00    -0.271 OA
ENDBRANCH   6  18
BRANCH   2  21
HETATM   21  C7  UNL     1      24.838  54.665 -32.513  1.00  0.00     0.282 C
HETATM   22  N1  UNL     1      23.770  53.767 -32.660  1.00  0.00    -0.056 NA
HETATM   23  O1  UNL     1      25.612  54.570 -31.549  1.00  0.00    -0.269 OA
ENDBRANCH   2  21
BRANCH   1  24
HETATM   24  C4  UNL     1      26.506  54.441 -35.068  1.00  0.00     0.018 C
HETATM   25  C3  UNL     1      26.214  53.322 -35.598  1.00  0.00     0.000 C
BRANCH  25  26
HETATM   26  C2  UNL     1      24.915  52.787 -35.969  1.00  0.00    -0.010 C
HETATM   27  C1  UNL     1      24.363  51.796 -35.283  1.00  0.00     0.011 C
ENDBRANCH  25  26
ENDBRANCH   1  24
TORSDOF 6
ENDMDL