MODEL 2
REMARK VINA RESULT: -9.420019079      0.671      1.176
REMARK  6 active torsions:
REMARK  status: ('A' for Active; 'I' for Inactive)
REMARK    1  A    between atoms: C2_2  and  C3_3
REMARK    2  A    between atoms: C3_3  and  S1_4
REMARK    3  A    between atoms: S1_4  and  C4_6
REMARK    4  A    between atoms: S1_4  and  N4_19
REMARK    5  A    between atoms: C4_6  and  C5_7
REMARK    6  A    between atoms: C8_13  and  N2_14
ROOT
HETATM    1  S1  UNL     1      24.674  57.871 -32.075  1.00  0.00     0.035 S
HETATM    2  O1  UNL     1      22.842  58.232 -32.912  1.00  0.00    -0.249 OA
ENDROOT
BRANCH   1   3
HETATM    3  C3  UNL     1      25.307  59.001 -33.616  1.00  0.00     0.144 C
BRANCH   3   4
HETATM    4  C2  UNL     1      25.659  58.192 -34.818  1.00  0.00    -0.024 C
HETATM    5  C1  UNL     1      24.873  58.062 -35.867  1.00  0.00     0.008 C
ENDBRANCH   3   4
ENDBRANCH   1   3
BRANCH   1   6
HETATM    6  C4  UNL     1      23.943  59.006 -30.617  1.00  0.00     0.175 C
BRANCH   6   7
HETATM    7  C5  UNL     1      24.603  58.759 -29.276  1.00  0.00     0.044 A
HETATM    8  C6  UNL     1      25.708  59.468 -28.882  1.00  0.00     0.101 A
HETATM    9  C7  UNL     1      26.268  59.198 -27.645  1.00  0.00     0.261 A
HETATM   10  O2  UNL     1      27.280  59.808 -27.219  1.00  0.00    -0.268 OA
HETATM   11  N1  UNL     1      25.704  58.238 -26.862  1.00  0.00    -0.156 N
HETATM   12  C8  UNL     1      24.630  57.548 -27.245  1.00  0.00     0.678 A
ATOM     13  H1  UNL     1      26.117  58.040 -25.951  1.00  0.00     0.187 HD
HETATM   14  N3  UNL     1      24.103  57.830 -28.454  1.00  0.00    -0.195 N
ATOM     15  H3  UNL     1      23.280  57.309 -28.758  1.00  0.00     0.184 HD
BRANCH  12  16
HETATM   16  N2  UNL     1      24.095  56.636 -26.498  1.00  0.00    -0.234 N
ATOM     17  H22 UNL     1      24.596  55.767 -26.312  1.00  0.00     0.174 HD
ATOM     18  H21 UNL     1      23.173  56.751 -26.079  1.00  0.00     0.174 HD
ENDBRANCH  12  16
ENDBRANCH   6   7
ENDBRANCH   1   6
BRANCH   1  19
HETATM   19  N4  UNL     1      24.159  56.208 -32.361  1.00  0.00    -0.304 N
HETATM   20  C9  UNL     1      24.153  55.123 -32.896  1.00  0.00     0.110 C
HETATM   21  C10 UNL     1      25.040  54.748 -34.030  1.00  0.00     0.308 C
HETATM   22  N6  UNL     1      23.250  54.089 -32.455  1.00  0.00    -0.376 N
HETATM   23  N5  UNL     1      24.307  53.839 -34.876  1.00  0.00    -0.067 N
HETATM   24  C11 UNL     1      24.032  52.576 -34.233  1.00  0.00     0.252 C
ATOM     25  H52 UNL     1      23.448  54.270 -35.218  1.00  0.00     0.277 HD
ATOM     26  H51 UNL     1      24.787  53.700 -35.765  1.00  0.00     0.277 HD
HETATM   27  C12 UNL     1      23.438  52.713 -32.868  1.00  0.00     0.148 C
ATOM     28  H6  UNL     1      22.470  54.329 -31.843  1.00  0.00     0.160 HD
ATOM     29  H4  UNL     1      23.435  56.092 -31.651  1.00  0.00     0.176 HD
ENDBRANCH   1  19
TORSDOF 6
ENDMDL