MODEL 2
REMARK VINA RESULT: -7.592764249      0.516      1.114
REMARK  6 active torsions:
REMARK  status: ('A' for Active; 'I' for Inactive)
REMARK    1  A    between atoms: C3_5  and  N2_6
REMARK    2  A    between atoms: N5_17  and  C9_19
REMARK    3  A    between atoms: C9_19  and  C10_23
REMARK    4  A    between atoms: C10_23  and  C11_24
REMARK    5  A    between atoms: C11_24  and  C12_25
REMARK    6  A    between atoms: C12_25  and  N7_26
ROOT
HETATM    1  C1  UNL     1      23.418  53.178 -32.210  1.00  0.00     0.064 C
HETATM    2  C2  UNL     1      24.031  54.097 -32.929  1.00  0.00     0.127 A
HETATM    3  N1  UNL     1      24.610  53.841 -34.194  1.00  0.00    -0.176 N
ATOM      4  H1  UNL     1      24.541  52.890 -34.555  1.00  0.00     0.185 HD
HETATM    5  C3  UNL     1      25.218  54.710 -34.928  1.00  0.00     0.696 A
HETATM    6  N4  UNL     1      25.331  56.045 -34.454  1.00  0.00    -0.022 N
ATOM      7  H4  UNL     1      25.809  56.748 -35.019  1.00  0.00     0.203 HD
HETATM    8  C8  UNL     1      24.779  56.400 -33.194  1.00  0.00     0.699 A
HETATM    9  N5  UNL     1      24.882  57.614 -32.763  1.00  0.00    -0.180 N
ATOM     10  H5  UNL     1      25.362  58.304 -33.342  1.00  0.00     0.185 HD
HETATM   11  N10 UNL     1      24.119  55.427 -32.411  1.00  0.00    -0.176 N
ATOM     12  H10 UNL     1      23.718  55.666 -31.504  1.00  0.00     0.185 HD
ENDROOT
BRANCH   9  13
HETATM   13  C9  UNL     1      24.355  58.013 -31.527  1.00  0.00     0.091 C
HETATM   14  N6  UNL     1      23.065  58.093 -31.392  1.00  0.00    -0.388 N
ATOM     15  H62 UNL     1      22.469  57.863 -32.187  1.00  0.00     0.157 HD
ATOM     16  H61 UNL     1      22.681  58.383 -30.493  1.00  0.00     0.157 HD
BRANCH  13  17
HETATM   17  C10 UNL     1      25.219  58.346 -30.372  1.00  0.00     0.078 C
BRANCH  17  18
HETATM   18  C11 UNL     1      24.688  59.567 -29.650  1.00  0.00     0.027 C
BRANCH  18  19
HETATM   19  C12 UNL     1      25.458  59.639 -28.325  1.00  0.00     0.122 C
BRANCH  19  20
HETATM   20  N7  UNL     1      24.806  58.756 -27.379  1.00  0.00    -0.367 N
HETATM   21  C13 UNL     1      25.435  57.835 -26.737  1.00  0.00     0.196 C
HETATM   22  N8  UNL     1      24.748  57.011 -25.832  1.00  0.00    -0.067 NA
HETATM   23  N9  UNL     1      26.828  57.647 -26.939  1.00  0.00    -0.067 NA
ATOM     24  H7  UNL     1      23.806  58.870 -27.215  1.00  0.00     0.161 HD
ENDBRANCH  19  20
ENDBRANCH  18  19
ENDBRANCH  17  18
ENDBRANCH  13  17
ENDBRANCH   9  13
BRANCH   5  25
HETATM   25  N2  UNL     1      25.769  54.322 -36.205  1.00  0.00    -0.214 N
HETATM   26  C4  UNL     1      26.378  55.343 -36.995  1.00  0.00     0.168 C
HETATM   27  C5  UNL     1      27.268  54.807 -38.086  1.00  0.00     0.252 C
HETATM   28  N3  UNL     1      26.846  53.502 -38.551  1.00  0.00    -0.072 N
HETATM   29  C6  UNL     1      26.881  52.602 -37.420  1.00  0.00     0.252 C
ATOM     30  H32 UNL     1      25.939  53.520 -39.016  1.00  0.00     0.277 HD
ATOM     31  H31 UNL     1      27.396  53.166 -39.342  1.00  0.00     0.277 HD
HETATM   32  C7  UNL     1      25.654  52.932 -36.566  1.00  0.00     0.168 C
ENDBRANCH   5  25
TORSDOF 6
ENDMDL