MODEL 4
REMARK VINA RESULT: -6.744852428      5.744     10.100
REMARK  6 active torsions:
REMARK  status: ('A' for Active; 'I' for Inactive)
REMARK    1  A    between atoms: C2_2  and  N1_3
REMARK    2  A    between atoms: C2_2  and  C3_7
REMARK       I    between atoms: C3_7  and  N2_9
REMARK    3  A    between atoms: N2_9  and  C4_11
REMARK    4  A    between atoms: C4_11  and  C5_12
REMARK       I    between atoms: C5_12  and  N3_14
REMARK    5  A    between atoms: N3_14  and  C6_16
REMARK    6  A    between atoms: C6_16  and  C7_17
ROOT
HETATM    1  C5  UNL     1      24.332  57.709 -32.315  1.00  0.00     0.248 C
HETATM    2  O2  UNL     1      23.082  57.753 -32.119  1.00  0.00    -0.271 OA
HETATM    3  N3  UNL     1      24.902  56.893 -33.319  1.00  0.00    -0.325 N
ATOM      4  H3  UNL     1      25.919  56.863 -33.394  1.00  0.00     0.165 HD
ENDROOT
BRANCH   1   5
HETATM    5  C4  UNL     1      25.162  58.577 -31.394  1.00  0.00     0.114 A
HETATM    6  C12 UNL     1      25.828  59.730 -31.989  1.00  0.00     0.044 A
HETATM    7  C13 UNL     1      24.555  59.951 -31.169  1.00  0.00     0.044 A
BRANCH   5   8
HETATM    8  N2  UNL     1      25.503  57.909 -30.163  1.00  0.00    -0.341 N
HETATM    9  C3  UNL     1      24.767  57.965 -28.960  1.00  0.00     0.248 C
HETATM   10  O1  UNL     1      23.692  58.628 -28.915  1.00  0.00    -0.271 OA
ATOM     11  H2  UNL     1      26.353  57.345 -30.161  1.00  0.00     0.163 HD
BRANCH   9  12
HETATM   12  C2  UNL     1      25.211  57.276 -27.725  1.00  0.00     0.270 C
HETATM   13  C1  UNL     1      25.942  58.353 -26.885  1.00  0.00     0.050 C
BRANCH  12  14
HETATM   14  N1  UNL     1      24.050  56.851 -26.928  1.00  0.00    -0.067 N
ATOM     15  H13 UNL     1      24.274  56.138 -26.234  1.00  0.00     0.275 HD
ATOM     16  H12 UNL     1      23.724  57.564 -26.275  1.00  0.00     0.275 HD
ATOM     17  H11 UNL     1      23.338  56.557 -27.596  1.00  0.00     0.275 HD
ENDBRANCH  12  14
ENDBRANCH   9  12
ENDBRANCH   5   8
ENDBRANCH   1   5
BRANCH   3  18
HETATM   18  C6  UNL     1      24.120  56.090 -34.255  1.00  0.00     0.189 C
HETATM   19  C8  UNL     1      24.981  55.369 -35.215  1.00  0.00     0.064 C
HETATM   20  C9  UNL     1      24.861  53.877 -35.159  1.00  0.00     0.014 C
HETATM   21  C10 UNL     1      24.750  53.274 -33.801  1.00  0.00     0.103 C
HETATM   22  C11 UNL     1      23.700  53.984 -33.010  1.00  0.00     0.219 C
HETATM   23  O4  UNL     1      23.256  53.439 -31.945  1.00  0.00    -0.274 OA
HETATM   24  N5  UNL     1      23.244  55.218 -33.460  1.00  0.00    -0.327 N
ATOM     25  H5  UNL     1      22.297  55.520 -33.236  1.00  0.00     0.165 HD
BRANCH  18  26
HETATM   26  C7  UNL     1      23.166  57.008 -34.933  1.00  0.00     0.280 C
HETATM   27  N4  UNL     1      23.656  58.173 -35.652  1.00  0.00    -0.058 NA
HETATM   28  O3  UNL     1      21.940  56.840 -34.925  1.00  0.00    -0.272 OA
ENDBRANCH  18  26
ENDBRANCH   3  18
TORSDOF 6
ENDMDL