MODEL 4
REMARK VINA RESULT: -6.772719955      2.822      6.320
REMARK  7 active torsions:
REMARK  status: ('A' for Active; 'I' for Inactive)
REMARK    1  A    between atoms: N4_10  and  C5_12
REMARK    2  A    between atoms: C5_12  and  C6_13
REMARK    3  A    between atoms: C6_13  and  C7_14
REMARK    4  A    between atoms: C7_14  and  C8_15
REMARK    5  A    between atoms: C8_15  and  N5_16
REMARK    6  A    between atoms: N8_21  and  C10_23
REMARK    7  A    between atoms: C10_23  and  C11_27
ROOT
HETATM    1  C11 UNL     1      25.554  57.670 -28.371  1.00  0.00     0.199 C
HETATM    2  C12 UNL     1      26.732  58.087 -27.579  1.00  0.00     0.066 C
HETATM    3  N10 UNL     1      27.660  58.401 -26.976  1.00  0.00    -0.197 NA
ENDROOT
BRANCH   1   4
HETATM    4  C10 UNL     1      24.704  58.868 -28.660  1.00  0.00     0.089 C
HETATM    5  N9  UNL     1      24.524  59.760 -27.745  1.00  0.00    -0.388 N
ATOM      6  H92 UNL     1      23.945  60.576 -27.942  1.00  0.00     0.157 HD
ATOM      7  H91 UNL     1      24.952  59.660 -26.825  1.00  0.00     0.157 HD
BRANCH   4   8
HETATM    8  N8  UNL     1      24.107  59.006 -29.943  1.00  0.00    -0.335 N
HETATM    9  C5  UNL     1      24.595  59.705 -30.908  1.00  0.00     0.098 C
ATOM     10  H8  UNL     1      23.228  58.518 -30.111  1.00  0.00     0.168 HD
BRANCH   9  11
HETATM   11  N4  UNL     1      25.798  60.391 -30.721  1.00  0.00    -0.179 N
HETATM   12  C4  UNL     1      26.538  60.931 -31.599  1.00  0.00     0.695 C
HETATM   13  N1  UNL     1      27.732  61.588 -31.197  1.00  0.00    -0.219 N
HETATM   14  N3  UNL     1      26.273  60.939 -33.008  1.00  0.00    -0.136 N
HETATM   15  C1  UNL     1      28.431  61.088 -30.024  1.00  0.00     0.168 C
HETATM   16  C2  UNL     1      28.225  62.739 -31.966  1.00  0.00     0.161 C
HETATM   17  C3  UNL     1      27.893  62.642 -33.408  1.00  0.00     0.160 C
HETATM   18  N2  UNL     1      27.247  61.455 -33.829  1.00  0.00    -0.321 N
ATOM     19  H2  UNL     1      27.494  61.000 -34.708  1.00  0.00     0.180 HD
ATOM     20  H3  UNL     1      25.397  60.576 -33.386  1.00  0.00     0.205 HD
ATOM     21  H4  UNL     1      26.123  60.468 -29.757  1.00  0.00     0.185 HD
ENDBRANCH   9  11
BRANCH   9  22
HETATM   22  C6  UNL     1      23.881  59.761 -32.183  1.00  0.00     0.079 C
BRANCH  22  23
HETATM   23  C7  UNL     1      23.127  58.491 -32.497  1.00  0.00     0.027 C
BRANCH  23  24
HETATM   24  C8  UNL     1      23.750  57.886 -33.746  1.00  0.00     0.122 C
BRANCH  24  25
HETATM   25  N5  UNL     1      23.772  56.443 -33.636  1.00  0.00    -0.367 N
HETATM   26  C9  UNL     1      22.840  55.757 -34.156  1.00  0.00     0.196 C
HETATM   27  N6  UNL     1      22.827  54.323 -34.069  1.00  0.00    -0.067 NA
HETATM   28  N7  UNL     1      21.765  56.379 -34.851  1.00  0.00    -0.067 NA
ATOM     29  H5  UNL     1      24.535  55.980 -33.142  1.00  0.00     0.161 HD
ENDBRANCH  24  25
ENDBRANCH  23  24
ENDBRANCH  22  23
ENDBRANCH   9  22
ENDBRANCH   4   8
ENDBRANCH   1   4
TORSDOF 7
ENDMDL