MODEL 5
REMARK VINA RESULT: -6.399182752      1.685      2.061
REMARK  5 active torsions:
REMARK  status: ('A' for Active; 'I' for Inactive)
REMARK    1  A    between atoms: C5_9  and  C6_10
REMARK    2  A    between atoms: C5_9  and  N6_23
REMARK    3  A    between atoms: N3_11  and  N4_13
REMARK       I    between atoms: N4_13  and  C7_15
REMARK    4  A    between atoms: C7_15  and  C8_17
REMARK    5  A    between atoms: C8_17  and  N5_18
ROOT
HETATM    1  C1  UNL     1      25.901  58.354 -36.014  1.00  0.00     0.151 C
HETATM    2  N1  UNL     1      25.720  56.971 -35.867  1.00  0.00    -0.364 N
HETATM    3  C2  UNL     1      26.291  56.123 -36.826  1.00  0.00     0.088 C
HETATM    4  C3  UNL     1      25.904  54.676 -36.715  1.00  0.00     0.276 C
HETATM    5  N2  UNL     1      25.808  54.214 -35.354  1.00  0.00    -0.066 N
ATOM      6  H21 UNL     1      26.321  53.342 -35.227  1.00  0.00     0.277 HD
ATOM      7  H22 UNL     1      24.866  53.882 -35.146  1.00  0.00     0.277 HD
HETATM    8  C4  UNL     1      26.231  55.208 -34.395  1.00  0.00     0.292 C
HETATM    9  C5  UNL     1      25.320  56.433 -34.635  1.00  0.00     0.166 C
ENDROOT
BRANCH   9  10
HETATM   10  C6  UNL     1      25.625  57.333 -33.486  1.00  0.00     0.135 C
HETATM   11  N3  UNL     1      25.098  57.026 -32.360  1.00  0.00    -0.309 N
ATOM     12  H3  UNL     1      24.510  56.193 -32.334  1.00  0.00     0.185 HD
BRANCH  11  13
HETATM   13  N4  UNL     1      25.256  57.729 -31.163  1.00  0.00    -0.269 N
HETATM   14  C7  UNL     1      24.266  58.494 -30.550  1.00  0.00     0.264 C
HETATM   15  O1  UNL     1      23.138  58.552 -31.133  1.00  0.00    -0.270 OA
ATOM     16  H4  UNL     1      26.165  57.679 -30.703  1.00  0.00     0.190 HD
BRANCH  14  17
HETATM   17  C8  UNL     1      24.474  59.208 -29.302  1.00  0.00     0.376 C
BRANCH  17  18
HETATM   18  N5  UNL     1      24.825  60.598 -29.403  1.00  0.00     0.097 N
HETATM   19  C9  UNL     1      25.906  60.805 -28.432  1.00  0.00     0.273 C
HETATM   20  C10 UNL     1      27.179  60.509 -29.187  1.00  0.00     0.032 C
HETATM   21  C11 UNL     1      26.874  61.130 -30.524  1.00  0.00     0.032 C
HETATM   22  C12 UNL     1      25.414  60.920 -30.691  1.00  0.00     0.273 C
ENDBRANCH  17  18
ENDBRANCH  14  17
ENDBRANCH  11  13
ENDBRANCH   9  10
BRANCH   9  23
HETATM   23  N6  UNL     1      23.997  55.936 -34.547  1.00  0.00    -0.334 N
HETATM   24  C13 UNL     1      22.888  56.523 -34.452  1.00  0.00     0.199 C
HETATM   25  N7  UNL     1      22.719  57.935 -34.414  1.00  0.00    -0.067 NA
HETATM   26  N8  UNL     1      21.713  55.741 -34.378  1.00  0.00    -0.067 NA
ATOM     27  H6  UNL     1      23.932  54.918 -34.562  1.00  0.00     0.164 HD
ENDBRANCH   9  23
TORSDOF 5
ENDMDL