MODEL 5
REMARK VINA RESULT: -6.717837277      4.829      7.610
REMARK  6 active torsions:
REMARK  status: ('A' for Active; 'I' for Inactive)
REMARK    1  A    between atoms: C1_2  and  C2_4
REMARK    2  A    between atoms: C2_4  and  N2_5
REMARK    3  A    between atoms: C2_4  and  N3_9
REMARK       I    between atoms: N3_9  and  C3_11
REMARK    4  A    between atoms: C3_11  and  C4_13
REMARK       I    between atoms: N4_17  and  C8_18
REMARK       I    between atoms: C8_18  and  N5_20
REMARK    5  A    between atoms: N5_20  and  C9_22
REMARK    6  A    between atoms: C9_22  and  C10_23
ROOT
HETATM    1  C4  UNL     1      24.180  57.074 -32.991  1.00  0.00     0.181 C
HETATM    2  C5  UNL     1      23.467  57.678 -31.834  1.00  0.00     0.037 C
HETATM    3  C6  UNL     1      23.704  59.158 -31.960  1.00  0.00     0.022 C
HETATM    4  C7  UNL     1      23.649  59.316 -33.481  1.00  0.00     0.129 C
HETATM    5  N4  UNL     1      24.328  58.115 -33.958  1.00  0.00    -0.321 N
HETATM    6  C8  UNL     1      25.016  58.064 -35.188  1.00  0.00     0.320 C
HETATM    7  O3  UNL     1      25.584  56.979 -35.490  1.00  0.00    -0.247 OA
HETATM    8  N5  UNL     1      25.095  59.156 -36.083  1.00  0.00    -0.324 N
ATOM      9  H5  UNL     1      24.620  60.014 -35.801  1.00  0.00     0.165 HD
ENDROOT
BRANCH   1  10
HETATM   10  C3  UNL     1      23.492  55.866 -33.521  1.00  0.00     0.242 C
HETATM   11  N3  UNL     1      24.209  54.681 -33.715  1.00  0.00    -0.325 N
ATOM     12  H3  UNL     1      25.202  54.684 -33.482  1.00  0.00     0.165 HD
HETATM   13  O2  UNL     1      22.286  55.920 -33.786  1.00  0.00    -0.271 OA
BRANCH  11  14
HETATM   14  C2  UNL     1      23.643  53.450 -34.223  1.00  0.00     0.373 C
BRANCH  14  15
HETATM   15  C1  UNL     1      23.163  52.559 -33.164  1.00  0.00     0.281 C
HETATM   16  N1  UNL     1      22.336  51.448 -33.444  1.00  0.00    -0.059 NA
HETATM   17  O1  UNL     1      23.486  52.772 -31.976  1.00  0.00    -0.273 OA
ENDBRANCH  14  15
BRANCH  14  18
HETATM   18  N2  UNL     1      24.572  52.811 -35.139  1.00  0.00    -0.050 N
ATOM     19  H23 UNL     1      25.035  52.021 -34.692  1.00  0.00     0.277 HD
ATOM     20  H22 UNL     1      24.070  52.317 -35.877  1.00  0.00     0.277 HD
ATOM     21  H21 UNL     1      25.256  53.454 -35.537  1.00  0.00     0.277 HD
ENDBRANCH  14  18
ENDBRANCH  11  14
ENDBRANCH   1  10
BRANCH   8  22
HETATM   22  C9  UNL     1      25.769  59.181 -37.338  1.00  0.00     0.123 A
HETATM   23  C11 UNL     1      25.143  59.981 -38.482  1.00  0.00     0.045 A
HETATM   24  C12 UNL     1      25.258  58.509 -38.558  1.00  0.00     0.045 A
BRANCH  22  25
HETATM   25  C10 UNL     1      27.262  59.355 -37.269  1.00  0.00     0.202 C
HETATM   26  O4  UNL     1      28.025  58.500 -37.788  1.00  0.00    -0.646 OA
HETATM   27  O5  UNL     1      27.751  60.476 -36.623  1.00  0.00    -0.646 OA
ENDBRANCH  22  25
ENDBRANCH   8  22
TORSDOF 6
ENDMDL