MODEL 1
REMARK VINA RESULT: -8.577146857      0.000      0.000
REMARK  5 active torsions:
REMARK  status: ('A' for Active; 'I' for Inactive)
REMARK       I    between atoms: C1_4  and  N3_6
REMARK    1  A    between atoms: N3_6  and  C2_8
REMARK    2  A    between atoms: N6_15  and  C4_16
REMARK    3  A    between atoms: C4_16  and  C5_17
REMARK    4  A    between atoms: C5_17  and  C6_18
REMARK    5  A    between atoms: C5_17  and  C7_21
REMARK       I    between atoms: C7_21  and  N8_23
ROOT
HETATM    1  C2  UNL     1      24.654  59.518 -31.086  1.00  0.00     0.705 A
HETATM    2  N4  UNL     1      24.973  60.835 -31.234  1.00  0.00    -0.128 N
ATOM      3  H4  UNL     1      24.734  61.579 -30.578  1.00  0.00     0.205 HD
HETATM    4  N5  UNL     1      25.637  60.994 -32.353  1.00  0.00    -0.236 N
ATOM      5  H5  UNL     1      25.994  61.882 -32.703  1.00  0.00     0.192 HD
HETATM    6  C3  UNL     1      25.773  59.817 -32.962  1.00  0.00     0.355 A
HETATM    7  O1  UNL     1      26.356  59.587 -34.063  1.00  0.00    -0.244 OA
HETATM    8  N6  UNL     1      25.151  58.898 -32.151  1.00  0.00    -0.129 N
ENDROOT
BRANCH   8   9
HETATM    9  C4  UNL     1      25.133  57.504 -32.448  1.00  0.00     0.176 C
BRANCH   9  10
HETATM   10  C5  UNL     1      24.152  56.955 -33.385  1.00  0.00     0.186 C
BRANCH  10  11
HETATM   11  C6  UNL     1      23.418  57.797 -34.309  1.00  0.00     0.246 C
HETATM   12  N7  UNL     1      22.330  58.562 -33.715  1.00  0.00    -0.061 NA
HETATM   13  O2  UNL     1      23.657  57.893 -35.508  1.00  0.00    -0.276 OA
ENDBRANCH  10  11
BRANCH  10  14
HETATM   14  C7  UNL     1      24.899  55.938 -34.238  1.00  0.00     0.234 C
HETATM   15  O3  UNL     1      26.048  56.284 -34.683  1.00  0.00    -0.272 OA
HETATM   16  N8  UNL     1      24.411  54.668 -34.554  1.00  0.00    -0.351 N
HETATM   17  C8  UNL     1      23.130  54.213 -34.130  1.00  0.00     0.125 C
HETATM   18  C12 UNL     1      25.213  53.763 -35.340  1.00  0.00     0.125 C
HETATM   19  C9  UNL     1      23.271  52.900 -33.401  1.00  0.00     0.020 C
HETATM   20  C10 UNL     1      24.032  51.871 -34.183  1.00  0.00     0.003 C
HETATM   21  C11 UNL     1      24.621  52.400 -35.458  1.00  0.00     0.020 C
ENDBRANCH  10  14
ENDBRANCH   9  10
ENDBRANCH   8   9
BRANCH   1  22
HETATM   22  N3  UNL     1      23.945  59.064 -30.079  1.00  0.00    -0.162 N
HETATM   23  C1  UNL     1      24.561  58.799 -28.851  1.00  0.00     0.200 C
HETATM   24  N1  UNL     1      24.483  59.669 -27.876  1.00  0.00    -0.373 N
HETATM   25  N2  UNL     1      25.284  57.606 -28.604  1.00  0.00    -0.063 NA
ATOM     26  H12 UNL     1      24.933  59.475 -26.981  1.00  0.00     0.158 HD
ATOM     27  H11 UNL     1      23.962  60.528 -28.055  1.00  0.00     0.158 HD
ATOM     28  H3  UNL     1      22.944  58.904 -30.192  1.00  0.00     0.187 HD
ENDBRANCH   1  22
TORSDOF 5
ENDMDL