MODEL 5
REMARK VINA RESULT: -6.735923540      3.412      6.829
REMARK  6 active torsions:
REMARK  status: ('A' for Active; 'I' for Inactive)
REMARK    1  A    between atoms: C2_2  and  C3_4
REMARK    2  A    between atoms: C3_4  and  C4_5
REMARK    3  A    between atoms: C4_5  and  N2_6
REMARK    4  A    between atoms: C4_5  and  C6_11
REMARK       I    between atoms: N2_6  and  C5_8
REMARK    5  A    between atoms: C6_11  and  N4_12
REMARK    6  A    between atoms: C6_11  and  C7_16
REMARK       I    between atoms: C7_16  and  N5_18
ROOT
HETATM    1  C6  UNL     1      25.972  61.512 -31.831  1.00  0.00     0.297 C
ENDROOT
BRANCH   1   2
HETATM    2  C4  UNL     1      25.862  61.114 -30.380  1.00  0.00     0.130 C
BRANCH   2   3
HETATM    3  C3  UNL     1      24.684  60.225 -30.150  1.00  0.00     0.081 C
BRANCH   3   4
HETATM    4  C2  UNL     1      24.737  59.511 -28.872  1.00  0.00     0.017 C
HETATM    5  C1  UNL     1      24.587  58.201 -28.849  1.00  0.00     0.035 C
HETATM    6  N1  UNL     1      24.947  60.189 -27.645  1.00  0.00    -0.108 NA
ENDBRANCH   3   4
ENDBRANCH   2   3
BRANCH   2   7
HETATM    7  N2  UNL     1      27.056  60.454 -29.944  1.00  0.00    -0.338 N
HETATM    8  C5  UNL     1      28.126  61.118 -29.296  1.00  0.00     0.329 C
HETATM    9  N3  UNL     1      29.288  60.423 -28.881  1.00  0.00    -0.040 NA
HETATM   10  O1  UNL     1      28.031  62.354 -29.091  1.00  0.00    -0.251 OA
ATOM     11  H2  UNL     1      27.141  59.451 -30.108  1.00  0.00     0.164 HD
ENDBRANCH   2   7
ENDBRANCH   1   2
BRANCH   1  12
HETATM   12  N4  UNL     1      24.782  62.216 -32.255  1.00  0.00    -0.064 N
ATOM     13  H43 UNL     1      24.060  62.210 -31.535  1.00  0.00     0.275 HD
ATOM     14  H42 UNL     1      24.936  63.223 -32.307  1.00  0.00     0.275 HD
ATOM     15  H41 UNL     1      24.439  61.839 -33.139  1.00  0.00     0.275 HD
ENDBRANCH   1  12
BRANCH   1  16
HETATM   16  C7  UNL     1      26.160  60.323 -32.695  1.00  0.00     0.256 C
HETATM   17  O2  UNL     1      27.294  59.790 -32.751  1.00  0.00    -0.271 OA
HETATM   18  N5  UNL     1      25.122  59.753 -33.470  1.00  0.00    -0.302 N
HETATM   19  C8  UNL     1      24.892  58.491 -33.532  1.00  0.00     0.201 C
ATOM     20  H5  UNL     1      24.524  60.379 -34.009  1.00  0.00     0.171 HD
HETATM   21  N6  UNL     1      25.549  57.398 -32.902  1.00  0.00    -0.366 N
HETATM   22  S1  UNL     1      23.613  57.727 -34.480  1.00  0.00     0.208 S
HETATM   23  C9  UNL     1      24.638  56.300 -32.647  1.00  0.00     0.137 C
ATOM     24  H6  UNL     1      26.540  57.388 -32.659  1.00  0.00     0.161 HD
HETATM   25  C10 UNL     1      23.874  56.031 -33.926  1.00  0.00     0.168 C
HETATM   26  O3  UNL     1      23.876  57.856 -35.939  1.00  0.00    -0.220 OA
HETATM   27  O4  UNL     1      22.284  58.229 -34.067  1.00  0.00    -0.220 OA
ENDBRANCH   1  16
TORSDOF 6
ENDMDL