MODEL 4
REMARK VINA RESULT: -7.458363300      1.828      2.976
REMARK  12 active torsions:
REMARK  status: ('A' for Active; 'I' for Inactive)
REMARK    1  A    between atoms: C2_2  and  O1_3
REMARK    2  A    between atoms: O1_3  and  C3_4
REMARK    3  A    between atoms: C5_6  and  C6_7
REMARK    4  A    between atoms: C8_9  and  O2_10
REMARK    5  A    between atoms: O2_10  and  C9_11
REMARK    6  A    between atoms: C9_11  and  O3_12
REMARK    7  A    between atoms: O3_12  and  C10_13
REMARK    8  A    between atoms: C11_15  and  C12_16
REMARK    9  A    between atoms: C12_16  and  O5_17
REMARK   10  A    between atoms: C13_19  and  O6_20
REMARK   11  A    between atoms: C14_22  and  O7_23
REMARK   12  A    between atoms: C15_25  and  O8_26
ROOT
HETATM    1  O2  UNL     1       9.600 -16.752  71.362  1.00  0.00    -0.338 OA
ENDROOT
BRANCH   1   2
HETATM    2  C8  UNL     1       8.969 -15.733  70.674  1.00  0.00     0.140 C
HETATM    3  C6  UNL     1       9.641 -14.732  70.081  1.00  0.00    -0.055 C
HETATM    4  C7  UNL     1      11.102 -14.773  70.175  1.00  0.00     0.046 C
BRANCH   3   5
HETATM    5  C5  UNL     1       8.875 -13.711  69.384  1.00  0.00     0.051 C
HETATM    6  C3  UNL     1       9.180 -13.521  67.925  1.00  0.00     0.069 C
HETATM    7  C4  UNL     1      10.338 -14.369  67.433  1.00  0.00     0.047 C
HETATM    8  C22 UNL     1       7.960 -14.040  67.268  1.00  0.00     0.028 C
HETATM    9  C17 UNL     1       6.885 -13.508  68.238  1.00  0.00    -0.006 C
HETATM   10  C20 UNL     1       7.475 -13.513  66.010  1.00  0.00    -0.011 C
HETATM   11  C16 UNL     1       7.388 -14.123  69.479  1.00  0.00     0.017 C
HETATM   12  C18 UNL     1       5.688 -14.055  67.595  1.00  0.00     0.005 C
HETATM   13  C19 UNL     1       5.967 -13.812  66.101  1.00  0.00     0.005 C
HETATM   14  C21 UNL     1       7.619 -12.072  65.718  1.00  0.00     0.010 C
BRANCH   6  15
HETATM   15  O1  UNL     1       9.381 -12.178  67.624  1.00  0.00    -0.380 OA
BRANCH  15  16
HETATM   16  C2  UNL     1      10.049 -11.461  68.578  1.00  0.00     0.164 C
HETATM   17  C1  UNL     1       9.148 -10.514  69.338  1.00  0.00     0.033 C
ENDBRANCH  15  16
ENDBRANCH   6  15
ENDBRANCH   3   5
ENDBRANCH   1   2
BRANCH   1  18
HETATM   18  C9  UNL     1       9.329 -17.090  72.691  1.00  0.00     0.347 C
BRANCH  18  19
HETATM   19  O3  UNL     1       8.832 -18.390  72.790  1.00  0.00    -0.334 OA
BRANCH  19  20
HETATM   20  C10 UNL     1       7.771 -18.464  73.691  1.00  0.00     0.294 C
HETATM   21  O4  UNL     1       6.737 -19.133  73.074  1.00  0.00    -0.348 OA
HETATM   22  C11 UNL     1       5.621 -19.315  73.855  1.00  0.00     0.179 C
HETATM   23  C13 UNL     1       5.018 -18.009  74.219  1.00  0.00     0.180 C
HETATM   24  C14 UNL     1       5.915 -16.820  74.087  1.00  0.00     0.183 C
HETATM   25  C15 UNL     1       7.371 -17.110  74.215  1.00  0.00     0.204 C
BRANCH  22  26
HETATM   26  C12 UNL     1       5.899 -20.182  75.075  1.00  0.00     0.198 C
BRANCH  26  27
HETATM   27  O5  UNL     1       4.816 -21.069  75.175  1.00  0.00    -0.398 OA
ATOM     28  H5  UNL     1       5.187 -21.909  75.420  1.00  0.00     0.209 HD
ENDBRANCH  26  27
ENDBRANCH  22  26
BRANCH  23  29
HETATM   29  O6  UNL     1       3.875 -17.808  73.430  1.00  0.00    -0.390 OA
ATOM     30  H6  UNL     1       3.287 -18.544  73.555  1.00  0.00     0.210 HD
ENDBRANCH  23  29
BRANCH  24  31
HETATM   31  O7  UNL     1       5.584 -15.934  75.139  1.00  0.00    -0.390 OA
ATOM     32  H7  UNL     1       5.202 -16.457  75.834  1.00  0.00     0.210 HD
ENDBRANCH  24  31
BRANCH  25  33
HETATM   33  O8  UNL     1       7.826 -16.945  75.536  1.00  0.00    -0.388 OA
ATOM     34  H8  UNL     1       7.707 -16.044  75.815  1.00  0.00     0.210 HD
ENDBRANCH  25  33
ENDBRANCH  19  20
ENDBRANCH  18  19
ENDBRANCH   1  18
TORSDOF 12
ENDMDL