MODEL 4
REMARK VINA RESULT: -6.836186524      3.406      4.958
REMARK  10 active torsions:
REMARK  status: ('A' for Active; 'I' for Inactive)
REMARK    1  A    between atoms: S1_2  and  C2_3
REMARK    2  A    between atoms: C2_3  and  N1_4
REMARK    3  A    between atoms: C2_3  and  C10_14
REMARK       I    between atoms: N1_4  and  C3_6
REMARK    4  A    between atoms: C3_6  and  C4_8
REMARK    5  A    between atoms: C10_14  and  S2_16
REMARK    6  A    between atoms: S2_16  and  C11_17
REMARK    7  A    between atoms: C12_18  and  C13_19
REMARK    8  A    between atoms: C13_19  and  C14_20
REMARK    9  A    between atoms: C14_20  and  C15_21
REMARK   10  A    between atoms: C17_26  and  C18_27
ROOT
HETATM    1  C10 UNL     1       8.193 -17.782  74.167  1.00  0.00     0.219 C
HETATM    2  O2  UNL     1       8.423 -18.604  75.068  1.00  0.00    -0.282 OA
ENDROOT
BRANCH   1   3
HETATM    3  C2  UNL     1       8.651 -18.158  72.829  1.00  0.00     0.228 C
BRANCH   3   4
HETATM    4  S1  UNL     1       7.543 -19.500  72.190  1.00  0.00    -0.140 SA
HETATM    5  C1  UNL     1       8.630 -20.895  71.792  1.00  0.00     0.092 C
ENDBRANCH   3   4
BRANCH   3   6
HETATM    6  N1  UNL     1       8.431 -17.066  71.870  1.00  0.00    -0.336 N
HETATM    7  C3  UNL     1       9.547 -16.368  71.400  1.00  0.00     0.252 C
HETATM    8  O1  UNL     1      10.738 -16.647  71.776  1.00  0.00    -0.268 OA
ATOM      9  H1  UNL     1       7.491 -16.824  71.557  1.00  0.00     0.164 HD
BRANCH   7  10
HETATM   10  C4  UNL     1       9.441 -15.265  70.447  1.00  0.00     0.032 A
HETATM   11  C5  UNL     1      10.557 -14.590  69.991  1.00  0.00     0.017 A
HETATM   12  C6  UNL     1      10.497 -13.557  69.089  1.00  0.00     0.001 A
HETATM   13  C7  UNL     1       9.288 -13.143  68.590  1.00  0.00     0.000 A
HETATM   14  C8  UNL     1       8.156 -13.807  69.035  1.00  0.00     0.001 A
HETATM   15  C9  UNL     1       8.215 -14.844  69.941  1.00  0.00     0.017 A
ENDBRANCH   7  10
ENDBRANCH   3   6
ENDBRANCH   1   3
BRANCH   1  16
HETATM   16  S2  UNL     1       7.372 -16.321  74.582  1.00  0.00    -0.081 SA
BRANCH  16  17
HETATM   17  C11 UNL     1       5.621 -16.188  74.349  1.00  0.00     0.107 C
HETATM   18  C12 UNL     1       4.839 -17.454  74.575  1.00  0.00     0.111 C
HETATM   19  N2  UNL     1       3.765 -17.125  75.474  1.00  0.00    -0.141 NA
HETATM   20  N3  UNL     1       3.635 -15.747  75.464  1.00  0.00    -0.131 NA
HETATM   21  C17 UNL     1       4.918 -15.170  75.200  1.00  0.00     0.211 C
BRANCH  18  22
HETATM   22  C13 UNL     1       4.318 -18.074  73.296  1.00  0.00     0.026 C
BRANCH  22  23
HETATM   23  C14 UNL     1       3.590 -19.372  73.499  1.00  0.00     0.036 C
BRANCH  23  24
HETATM   24  C15 UNL     1       4.571 -20.408  74.029  1.00  0.00     0.145 A
HETATM   25  C16 UNL     1       4.136 -21.037  75.335  1.00  0.00     0.200 A
HETATM   26  O3  UNL     1       4.172 -21.745  74.010  1.00  0.00    -0.381 OA
ENDBRANCH  23  24
ENDBRANCH  22  23
ENDBRANCH  18  22
BRANCH  21  27
HETATM   27  C18 UNL     1       4.701 -13.894  74.426  1.00  0.00     0.195 C
HETATM   28  O4  UNL     1       4.227 -12.867  74.949  1.00  0.00    -0.647 OA
HETATM   29  O5  UNL     1       5.056 -13.912  73.101  1.00  0.00    -0.647 OA
ENDBRANCH  21  27
ENDBRANCH  16  17
ENDBRANCH   1  16
TORSDOF 10
ENDMDL