MODEL 5
REMARK VINA RESULT: -6.026589332      2.115      5.315
REMARK  11 active torsions:
REMARK  status: ('A' for Active; 'I' for Inactive)
REMARK    1  A    between atoms: N1_2  and  C2_5
REMARK    2  A    between atoms: C2_5  and  C3_6
REMARK    3  A    between atoms: C2_5  and  C19_32
REMARK       I    between atoms: C3_6  and  N2_8
REMARK    4  A    between atoms: N2_8  and  C4_10
REMARK    5  A    between atoms: C5_11  and  O2_12
REMARK    6  A    between atoms: O2_12  and  C6_13
REMARK    7  A    between atoms: C6_13  and  O4_15
REMARK    8  A    between atoms: O4_15  and  C7_16
REMARK    9  A    between atoms: C7_16  and  C8_17
REMARK   10  A    between atoms: C16_26  and  O6_27
REMARK   11  A    between atoms: C17_29  and  O7_30
ROOT
HETATM    1  C4  UNL     1       8.986 -14.352  67.754  1.00  0.00     0.171 C
HETATM    2  C5  UNL     1       7.644 -14.626  68.345  1.00  0.00     0.297 C
HETATM    3  O5  UNL     1       7.775 -15.408  69.500  1.00  0.00    -0.351 OA
HETATM    4  C14 UNL     1       8.695 -14.946  70.401  1.00  0.00     0.152 C
HETATM    5  C15 UNL     1       9.844 -15.938  70.590  1.00  0.00     0.042 C
HETATM    6  C16 UNL     1       9.291 -13.602  70.087  1.00  0.00     0.178 C
HETATM    7  C17 UNL     1       9.883 -13.613  68.721  1.00  0.00     0.179 C
ENDROOT
BRANCH   1   8
HETATM    8  N2  UNL     1       8.946 -13.623  66.496  1.00  0.00    -0.347 N
HETATM    9  C3  UNL     1       9.034 -14.267  65.239  1.00  0.00     0.249 C
HETATM   10  O1  UNL     1       9.153 -15.531  65.279  1.00  0.00    -0.271 OA
ATOM     11  H2  UNL     1       8.852 -12.608  66.521  1.00  0.00     0.163 HD
BRANCH   9  12
HETATM   12  C2  UNL     1       8.991 -13.501  64.000  1.00  0.00     0.279 C
BRANCH  12  13
HETATM   13  N1  UNL     1       9.387 -12.092  64.277  1.00  0.00    -0.066 N
HETATM   14  C1  UNL     1       8.549 -11.159  63.558  1.00  0.00     0.267 C
ATOM     15  H12 UNL     1      10.375 -11.935  64.079  1.00  0.00     0.277 HD
ATOM     16  H11 UNL     1       9.394 -11.894  65.278  1.00  0.00     0.277 HD
ENDBRANCH  12  13
BRANCH  12  17
HETATM   17  C19 UNL     1       9.851 -13.946  62.880  1.00  0.00     0.017 C
HETATM   18  C20 UNL     1      11.314 -14.001  63.101  1.00  0.00     0.012 C
HETATM   19  C21 UNL     1       9.416 -15.365  62.477  1.00  0.00     0.012 C
ENDBRANCH  12  17
ENDBRANCH   9  12
ENDBRANCH   1   8
BRANCH   2  20
HETATM   20  O2  UNL     1       6.855 -13.510  68.601  1.00  0.00    -0.264 OA
BRANCH  20  21
HETATM   21  C6  UNL     1       6.612 -12.581  67.605  1.00  0.00     0.409 C
HETATM   22  O3  UNL     1       6.016 -12.896  66.540  1.00  0.00    -0.229 OA
BRANCH  21  23
HETATM   23  O4  UNL     1       7.007 -11.261  67.724  1.00  0.00    -0.293 OA
BRANCH  23  24
HETATM   24  C7  UNL     1       6.582 -10.449  68.828  1.00  0.00     0.219 C
BRANCH  24  25
HETATM   25  C8  UNL     1       7.771  -9.915  69.538  1.00  0.00    -0.034 A
HETATM   26  C9  UNL     1       7.582  -8.815  70.381  1.00  0.00     0.009 A
HETATM   27  C10 UNL     1       8.645  -8.280  71.064  1.00  0.00     0.001 A
HETATM   28  C11 UNL     1       9.907  -8.837  70.913  1.00  0.00     0.000 A
HETATM   29  C12 UNL     1      10.123  -9.917  70.094  1.00  0.00     0.001 A
HETATM   30  C13 UNL     1       9.036 -10.435  69.418  1.00  0.00     0.009 A
ENDBRANCH  24  25
ENDBRANCH  23  24
ENDBRANCH  21  23
ENDBRANCH  20  21
ENDBRANCH   2  20
BRANCH   7  31
HETATM   31  O7  UNL     1      11.154 -14.194  68.780  1.00  0.00    -0.386 OA
HETATM   32  C18 UNL     1      12.075 -13.376  69.400  1.00  0.00     0.202 C
ENDBRANCH   7  31
BRANCH   6  33
HETATM   33  O6  UNL     1      10.282 -13.308  71.034  1.00  0.00    -0.390 OA
ATOM     34  H6  UNL     1      10.898 -12.692  70.656  1.00  0.00     0.210 HD
ENDBRANCH   6  33
TORSDOF 11
ENDMDL