MODEL 5
REMARK VINA RESULT: -4.770565533      2.133      3.577
REMARK  11 active torsions:
REMARK  status: ('A' for Active; 'I' for Inactive)
REMARK    1  A    between atoms: C3_4  and  O2_5
REMARK    2  A    between atoms: O2_5  and  C4_6
REMARK    3  A    between atoms: C7_9  and  C9_11
REMARK    4  A    between atoms: C10_12  and  C11_13
REMARK    5  A    between atoms: C12_14  and  C13_15
REMARK    6  A    between atoms: C14_16  and  C15_17
REMARK    7  A    between atoms: C15_17  and  C17_19
REMARK    8  A    between atoms: C18_23  and  O6_24
REMARK    9  A    between atoms: C18_23  and  C19_26
REMARK   10  A    between atoms: C19_26  and  O7_27
REMARK   11  A    between atoms: C21_30  and  O8_31
ROOT
HETATM    1  C4  UNL     1       8.349 -13.948  67.395  1.00  0.00     0.202 C
HETATM    2  C5  UNL     1       9.600 -13.554  68.096  1.00  0.00     0.055 C
HETATM    3  C6  UNL     1      10.725 -14.495  67.845  1.00  0.00     0.016 C
HETATM    4  C7  UNL     1       9.183 -13.450  69.534  1.00  0.00     0.085 C
HETATM    5  C8  UNL     1       9.884 -12.276  70.231  1.00  0.00     0.051 C
HETATM    6  O5  UNL     1       7.811 -13.255  69.553  1.00  0.00    -0.336 OA
HETATM    7  C18 UNL     1       7.286 -13.930  68.458  1.00  0.00     0.212 C
ENDROOT
BRANCH   4   8
HETATM    8  C9  UNL     1       9.482 -14.651  70.329  1.00  0.00     0.011 C
HETATM    9  C10 UNL     1       9.292 -14.619  71.634  1.00  0.00    -0.001 C
BRANCH   9  10
HETATM   10  C11 UNL     1       9.585 -15.797  72.413  1.00  0.00    -0.000 C
HETATM   11  C12 UNL     1       8.701 -16.419  73.106  1.00  0.00    -0.000 C
BRANCH  11  12
HETATM   12  C13 UNL     1       7.318 -16.026  73.191  1.00  0.00    -0.003 C
HETATM   13  C14 UNL     1       6.570 -16.272  74.269  1.00  0.00    -0.012 C
BRANCH  13  14
HETATM   14  C15 UNL     1       5.161 -15.833  74.269  1.00  0.00     0.105 C
HETATM   15  C16 UNL     1       4.977 -14.914  75.462  1.00  0.00     0.025 C
BRANCH  14  16
HETATM   16  C17 UNL     1       4.307 -17.041  74.435  1.00  0.00     0.180 C
HETATM   17  O3  UNL     1       4.394 -17.979  73.614  1.00  0.00    -0.647 OA
HETATM   18  O4  UNL     1       3.417 -17.156  75.481  1.00  0.00    -0.647 OA
ENDBRANCH  14  16
ENDBRANCH  13  14
ENDBRANCH  11  12
ENDBRANCH   9  10
ENDBRANCH   4   8
BRANCH   1  19
HETATM   19  O2  UNL     1       8.066 -13.073  66.323  1.00  0.00    -0.319 OA
BRANCH  19  20
HETATM   20  C3  UNL     1       8.752 -13.270  65.140  1.00  0.00     0.184 C
HETATM   21  O1  UNL     1       9.456 -14.412  64.829  1.00  0.00    -0.299 OA
HETATM   22  C2  UNL     1       9.838 -14.775  63.525  1.00  0.00     0.267 C
HETATM   23  C1  UNL     1       9.272 -16.116  63.104  1.00  0.00     0.071 C
HETATM   24  O9  UNL     1       9.483 -13.848  62.567  1.00  0.00    -0.328 OA
HETATM   25  C21 UNL     1       9.484 -12.550  62.986  1.00  0.00     0.289 C
HETATM   26  C20 UNL     1       8.738 -12.301  64.238  1.00  0.00     0.096 C
BRANCH  25  27
HETATM   27  O8  UNL     1      10.813 -12.119  63.132  1.00  0.00    -0.368 OA
ATOM     28  H8  UNL     1      11.314 -12.775  63.603  1.00  0.00     0.213 HD
ENDBRANCH  25  27
ENDBRANCH  19  20
ENDBRANCH   1  19
BRANCH   7  29
HETATM   29  O6  UNL     1       6.957 -15.215  68.888  1.00  0.00    -0.362 OA
ATOM     30  H6  UNL     1       7.636 -15.590  69.436  1.00  0.00     0.213 HD
ENDBRANCH   7  29
BRANCH   7  31
HETATM   31  C19 UNL     1       6.036 -13.219  68.029  1.00  0.00     0.235 C
BRANCH  31  32
HETATM   32  O7  UNL     1       6.230 -11.840  67.903  1.00  0.00    -0.395 OA
ATOM     33  H7  UNL     1       6.936 -11.631  67.303  1.00  0.00     0.209 HD
ENDBRANCH  31  32
ENDBRANCH   7  31
TORSDOF 11
ENDMDL