MODEL 4
REMARK VINA RESULT: -6.880585762      1.903      8.331
REMARK  9 active torsions:
REMARK  status: ('A' for Active; 'I' for Inactive)
REMARK       I    between atoms: N1_2  and  C2_4
REMARK    1  A    between atoms: C2_4  and  C3_6
REMARK    2  A    between atoms: C3_6  and  C4_7
REMARK    3  A    between atoms: C3_6  and  N2_13
REMARK    4  A    between atoms: C4_7  and  C5_8
REMARK    5  A    between atoms: C10_15  and  C11_16
REMARK    6  A    between atoms: C11_16  and  O3_17
REMARK    7  A    between atoms: C11_16  and  C12_19
REMARK    8  A    between atoms: C12_19  and  N3_20
REMARK    9  A    between atoms: N3_20  and  C13_23
ROOT
HETATM    1  C11 UNL     1      10.159 -15.944  70.994  1.00  0.00     0.196 C
ENDROOT
BRANCH   1   2
HETATM    2  C10 UNL     1       9.168 -15.915  72.089  1.00  0.00     0.074 A
HETATM    3  C9  UNL     1       8.501 -17.024  72.574  1.00  0.00     0.142 A
HETATM    4  N2  UNL     1       7.696 -16.590  73.557  1.00  0.00    -0.273 N
HETATM    5  N6  UNL     1       7.865 -15.292  73.661  1.00  0.00    -0.240 N
HETATM    6  N5  UNL     1       8.744 -14.857  72.792  1.00  0.00    -0.286 N
ATOM      7  H6  UNL     1       7.376 -14.700  74.331  1.00  0.00     0.208 HD
ATOM      8  H5  UNL     1       9.049 -13.891  72.673  1.00  0.00     0.188 HD
BRANCH   4   9
HETATM    9  C3  UNL     1       6.780 -17.427  74.376  1.00  0.00     0.203 C
BRANCH   9  10
HETATM   10  C2  UNL     1       6.954 -18.838  74.045  1.00  0.00     0.242 C
HETATM   11  N1  UNL     1       6.907 -19.357  72.726  1.00  0.00    -0.364 N
HETATM   12  C1  UNL     1       7.090 -20.758  72.442  1.00  0.00     0.149 C
ATOM     13  H1  UNL     1       6.738 -18.715  71.951  1.00  0.00     0.161 HD
HETATM   14  O1  UNL     1       7.165 -19.670  74.988  1.00  0.00    -0.271 OA
ENDBRANCH   9  10
BRANCH   9  15
HETATM   15  C4  UNL     1       5.393 -16.892  74.308  1.00  0.00     0.069 C
BRANCH  15  16
HETATM   16  C5  UNL     1       4.315 -17.876  74.507  1.00  0.00     0.123 C
HETATM   17  C6  UNL     1       3.447 -18.221  73.360  1.00  0.00     0.034 C
HETATM   18  C7  UNL     1       2.279 -18.923  74.092  1.00  0.00     0.029 C
HETATM   19  C8  UNL     1       2.291 -18.229  75.413  1.00  0.00     0.168 C
HETATM   20  O2  UNL     1       3.385 -17.404  75.453  1.00  0.00    -0.386 OA
ENDBRANCH  15  16
ENDBRANCH   9  15
ENDBRANCH   4   9
ENDBRANCH   1   2
BRANCH   1  21
HETATM   21  O3  UNL     1       9.954 -16.999  70.109  1.00  0.00    -0.388 OA
ATOM     22  H3  UNL     1      10.077 -16.748  69.201  1.00  0.00     0.210 HD
ENDBRANCH   1  21
BRANCH   1  23
HETATM   23  C12 UNL     1      10.182 -14.621  70.242  1.00  0.00     0.270 C
BRANCH  23  24
HETATM   24  N3  UNL     1       9.479 -14.785  68.974  1.00  0.00    -0.066 N
ATOM     25  H32 UNL     1      10.103 -15.125  68.243  1.00  0.00     0.277 HD
ATOM     26  H31 UNL     1       8.830 -15.570  69.007  1.00  0.00     0.277 HD
BRANCH  24  27
HETATM   27  C13 UNL     1       8.820 -13.576  68.581  1.00  0.00     0.220 C
HETATM   28  C14 UNL     1       7.342 -13.728  68.783  1.00  0.00     0.019 C
HETATM   29  C15 UNL     1       6.753 -14.793  67.931  1.00  0.00     0.013 C
HETATM   30  C22 UNL     1       6.718 -12.373  68.520  1.00  0.00     0.011 C
HETATM   31  C16 UNL     1       6.674 -14.463  66.467  1.00  0.00     0.012 C
HETATM   32  C17 UNL     1       7.917 -14.697  65.691  1.00  0.00     0.237 C
HETATM   33  C21 UNL     1       6.089 -13.062  66.248  1.00  0.00     0.011 C
HETATM   34  N4  UNL     1       9.141 -14.441  66.393  1.00  0.00    -0.069 N
HETATM   35  C18 UNL     1       9.149 -13.240  67.163  1.00  0.00     0.217 C
ATOM     36  H42 UNL     1       9.385 -15.239  66.979  1.00  0.00     0.277 HD
ATOM     37  H41 UNL     1       9.929 -14.451  65.745  1.00  0.00     0.277 HD
HETATM   38  C19 UNL     1       8.310 -12.138  66.583  1.00  0.00     0.039 C
HETATM   39  C20 UNL     1       6.905 -12.081  67.053  1.00  0.00    -0.012 C
ENDBRANCH  24  27
ENDBRANCH  23  24
ENDBRANCH   1  23
TORSDOF 9
ENDMDL