MODEL 5
REMARK VINA RESULT: -7.596822277      1.906      8.265
REMARK  12 active torsions:
REMARK  status: ('A' for Active; 'I' for Inactive)
REMARK    1  A    between atoms: C3_3  and  C5_5
REMARK    2  A    between atoms: C5_5  and  O2_7
REMARK    3  A    between atoms: O2_7  and  C6_8
REMARK    4  A    between atoms: C6_8  and  O3_10
REMARK    5  A    between atoms: C6_8  and  C8_12
REMARK    6  A    between atoms: C11_15  and  C12_16
REMARK    7  A    between atoms: C12_16  and  C14_18
REMARK    8  A    between atoms: C14_18  and  O4_19
REMARK    9  A    between atoms: C14_18  and  C15_21
REMARK   10  A    between atoms: C15_21  and  C16_22
REMARK   11  A    between atoms: C15_21  and  C17_24
REMARK   12  A    between atoms: C19_26  and  O6_27
ROOT
HETATM    1  C8  UNL     1       8.858 -17.134  73.176  1.00  0.00     0.248 C
HETATM    2  C9  UNL     1       8.294 -15.970  73.898  1.00  0.00     0.041 C
HETATM    3  C10 UNL     1       8.534 -14.807  72.952  1.00  0.00     0.036 C
HETATM    4  C11 UNL     1       8.526 -15.452  71.616  1.00  0.00     0.196 C
HETATM    5  N1  UNL     1       8.691 -16.849  71.794  1.00  0.00    -0.061 N
ATOM      6  H11 UNL     1       7.927 -17.385  71.379  1.00  0.00     0.278 HD
ATOM      7  H12 UNL     1       9.454 -17.223  71.229  1.00  0.00     0.278 HD
ENDROOT
BRANCH   4   8
HETATM    8  C12 UNL     1       9.620 -14.833  70.709  1.00  0.00     0.069 C
HETATM    9  C13 UNL     1      10.515 -16.011  70.333  1.00  0.00     0.019 C
BRANCH   8  10
HETATM   10  C14 UNL     1       8.898 -14.205  69.582  1.00  0.00     0.061 C
BRANCH  10  11
HETATM   11  O4  UNL     1       7.782 -15.026  69.270  1.00  0.00    -0.364 OA
ATOM     12  H4  UNL     1       7.022 -14.463  69.185  1.00  0.00     0.217 HD
ENDBRANCH  10  11
BRANCH  10  13
HETATM   13  C15 UNL     1       9.594 -13.654  68.422  1.00  0.00     0.038 C
BRANCH  13  14
HETATM   14  C16 UNL     1       9.576 -14.561  67.230  1.00  0.00     0.270 C
HETATM   15  O5  UNL     1       8.550 -14.855  66.642  1.00  0.00    -0.302 OA
ENDBRANCH  13  14
BRANCH  13  16
HETATM   16  C17 UNL     1       9.474 -12.208  68.106  1.00  0.00     0.172 C
HETATM   17  C18 UNL     1       8.204 -11.948  67.320  1.00  0.00     0.070 C
HETATM   18  C19 UNL     1       7.118 -11.230  67.987  1.00  0.00     0.130 C
HETATM   19  C20 UNL     1       7.321 -10.714  69.362  1.00  0.00     0.142 C
HETATM   20  C21 UNL     1       8.768 -10.334  69.517  1.00  0.00     0.261 C
HETATM   21  O7  UNL     1       9.120  -9.214  69.958  1.00  0.00    -0.265 OA
HETATM   22  O8  UNL     1       9.652 -11.307  69.141  1.00  0.00    -0.311 OA
BRANCH  18  23
HETATM   23  O6  UNL     1       5.934 -12.013  68.016  1.00  0.00    -0.395 OA
ATOM     24  H6  UNL     1       5.170 -11.482  67.822  1.00  0.00     0.210 HD
ENDBRANCH  18  23
ENDBRANCH  13  16
ENDBRANCH  10  13
ENDBRANCH   8  10
ENDBRANCH   4   8
BRANCH   1  25
HETATM   25  C6  UNL     1       8.307 -18.463  73.602  1.00  0.00     0.196 C
HETATM   26  C7  UNL     1       8.315 -19.502  72.537  1.00  0.00     0.081 C
BRANCH  25  27
HETATM   27  O2  UNL     1       6.983 -18.266  74.050  1.00  0.00    -0.278 OA
BRANCH  27  28
HETATM   28  C5  UNL     1       6.174 -19.353  74.473  1.00  0.00     0.291 C
HETATM   29  O1  UNL     1       6.830 -20.280  75.003  1.00  0.00    -0.260 OA
BRANCH  28  30
HETATM   30  C3  UNL     1       4.745 -19.320  74.278  1.00  0.00     0.009 C
HETATM   31  C2  UNL     1       4.076 -18.219  74.202  1.00  0.00    -0.018 C
HETATM   32  C1  UNL     1       4.705 -16.895  74.305  1.00  0.00     0.036 C
HETATM   33  C4  UNL     1       4.024 -20.625  74.163  1.00  0.00     0.054 C
ENDBRANCH  28  30
ENDBRANCH  27  28
ENDBRANCH  25  27
BRANCH  25  34
HETATM   34  O3  UNL     1       9.126 -18.929  74.654  1.00  0.00    -0.363 OA
ATOM     35  H3  UNL     1      10.014 -19.077  74.348  1.00  0.00     0.213 HD
ENDBRANCH  25  34
ENDBRANCH   1  25
TORSDOF 12
ENDMDL