MODEL 5
REMARK VINA RESULT: -6.656890910      2.131      5.502
REMARK  10 active torsions:
REMARK  status: ('A' for Active; 'I' for Inactive)
REMARK    1  A    between atoms: O1_2  and  C2_3
REMARK    2  A    between atoms: C3_5  and  O3_6
REMARK    3  A    between atoms: O3_6  and  C4_7
REMARK    4  A    between atoms: C9_12  and  C10_13
REMARK    5  A    between atoms: C10_13  and  C11_18
REMARK    6  A    between atoms: N1_14  and  O4_16
REMARK       I    between atoms: C11_18  and  N2_20
REMARK    7  A    between atoms: N2_20  and  C12_22
REMARK    8  A    between atoms: C12_22  and  C13_23
REMARK    9  A    between atoms: C18_29  and  N3_30
REMARK   10  A    between atoms: N3_30  and  C19_32
ROOT
HETATM    1  C4  UNL     1       8.166 -14.060  66.158  1.00  0.00     0.084 A
HETATM    2  C5  UNL     1       9.086 -14.472  65.208  1.00  0.00     0.038 A
HETATM    3  C6  UNL     1       9.459 -13.644  64.171  1.00  0.00     0.003 A
HETATM    4  C7  UNL     1       8.915 -12.402  64.079  1.00  0.00     0.001 A
HETATM    5  C8  UNL     1       7.979 -11.998  65.056  1.00  0.00     0.017 A
HETATM    6  C9  UNL     1       7.580 -12.767  66.088  1.00  0.00     0.032 A
ENDROOT
BRANCH   1   7
HETATM    7  O3  UNL     1       7.769 -14.851  67.201  1.00  0.00    -0.319 OA
BRANCH   7   8
HETATM    8  C3  UNL     1       8.566 -15.270  68.234  1.00  0.00     0.271 C
HETATM    9  O2  UNL     1       7.970 -15.033  69.507  1.00  0.00    -0.329 OA
HETATM   10  C2  UNL     1       9.045 -15.479  70.323  1.00  0.00     0.285 C
HETATM   11  C18 UNL     1      10.122 -14.542  69.878  1.00  0.00     0.142 C
HETATM   12  C17 UNL     1       9.842 -14.448  68.381  1.00  0.00     0.091 C
BRANCH  10  13
HETATM   13  O1  UNL     1       8.715 -15.415  71.654  1.00  0.00    -0.364 OA
HETATM   14  C1  UNL     1       9.115 -16.597  72.273  1.00  0.00     0.204 C
ENDBRANCH  10  13
BRANCH  11  15
HETATM   15  N3  UNL     1      11.458 -14.962  70.150  1.00  0.00    -0.371 N
ATOM     16  H3  UNL     1      11.633 -15.928  70.428  1.00  0.00     0.161 HD
BRANCH  15  17
HETATM   17  C19 UNL     1      12.548 -14.060  70.040  1.00  0.00     0.066 C
HETATM   18  C20 UNL     1      13.946 -14.574  70.207  1.00  0.00     0.088 C
HETATM   19  N4  UNL     1      12.376 -12.792  69.800  1.00  0.00    -0.389 N
ATOM     20  H42 UNL     1      11.424 -12.443  69.687  1.00  0.00     0.157 HD
ATOM     21  H41 UNL     1      13.159 -12.143  69.722  1.00  0.00     0.157 HD
ENDBRANCH  15  17
ENDBRANCH  11  15
ENDBRANCH   7   8
ENDBRANCH   1   7
BRANCH   6  22
HETATM   22  C10 UNL     1       6.620 -12.434  67.142  1.00  0.00     0.135 C
HETATM   23  N1  UNL     1       5.386 -12.651  66.920  1.00  0.00    -0.263 N
ATOM     24  H1  UNL     1       5.263 -13.045  65.988  1.00  0.00     0.194 HD
BRANCH  23  25
HETATM   25  O4  UNL     1       4.254 -12.531  67.495  1.00  0.00    -0.289 OA
ATOM     26  H4  UNL     1       3.599 -13.062  67.931  1.00  0.00     0.244 HD
ENDBRANCH  23  25
BRANCH  22  27
HETATM   27  C11 UNL     1       7.087 -11.865  68.409  1.00  0.00     0.274 C
HETATM   28  O5  UNL     1       6.275 -11.741  69.331  1.00  0.00    -0.266 OA
HETATM   29  N2  UNL     1       8.415 -11.441  68.656  1.00  0.00    -0.333 N
ATOM     30  H2  UNL     1       9.039 -11.581  67.861  1.00  0.00     0.168 HD
BRANCH  29  31
HETATM   31  C12 UNL     1       9.048 -10.870  69.765  1.00  0.00     0.096 C
BRANCH  31  32
HETATM   32  C13 UNL     1       8.985  -9.407  70.028  1.00  0.00     0.159 C
HETATM   33  C14 UNL     1       9.902  -8.774  70.972  1.00  0.00     0.039 C
HETATM   34  C15 UNL     1       8.950  -8.136  71.998  1.00  0.00     0.029 C
HETATM   35  C16 UNL     1       7.771  -7.855  71.062  1.00  0.00     0.168 C
HETATM   36  O6  UNL     1       7.678  -8.973  70.270  1.00  0.00    -0.381 OA
ENDBRANCH  31  32
ENDBRANCH  29  31
ENDBRANCH  22  27
ENDBRANCH   6  22
TORSDOF 10
ENDMDL