MODEL 3
REMARK VINA RESULT: -5.775888770      1.379      1.753
REMARK  9 active torsions:
REMARK  status: ('A' for Active; 'I' for Inactive)
REMARK    1  A    between atoms: C2_3  and  N2_4
REMARK       I    between atoms: N2_4  and  C3_6
REMARK    2  A    between atoms: C3_6  and  C4_8
REMARK    3  A    between atoms: C5_9  and  C6_10
REMARK    4  A    between atoms: C9_15  and  C10_16
REMARK    5  A    between atoms: C10_16  and  O3_17
REMARK    6  A    between atoms: C11_19  and  O4_20
REMARK    7  A    between atoms: C12_22  and  N3_23
REMARK    8  A    between atoms: N3_23  and  C13_25
REMARK    9  A    between atoms: C13_25  and  C14_26
ROOT
HETATM    1  N1  UNL     1       6.397 -20.387  74.569  1.00  0.00    -0.196 NA
HETATM    2  C1  UNL     1       7.232 -19.596  74.565  1.00  0.00     0.078 C
HETATM    3  C2  UNL     1       8.281 -18.577  74.575  1.00  0.00     0.247 C
ENDROOT
BRANCH   3   4
HETATM    4  N2  UNL     1       8.225 -17.853  73.327  1.00  0.00    -0.345 N
HETATM    5  C3  UNL     1       8.345 -16.439  73.309  1.00  0.00     0.241 C
HETATM    6  O1  UNL     1       8.502 -15.835  74.397  1.00  0.00    -0.269 OA
ATOM      7  H2  UNL     1       8.097 -18.361  72.451  1.00  0.00     0.163 HD
BRANCH   5   8
HETATM    8  C4  UNL     1       8.296 -15.656  72.090  1.00  0.00     0.072 C
HETATM    9  C5  UNL     1       9.135 -15.868  71.094  1.00  0.00     0.011 C
BRANCH   9  10
HETATM   10  C6  UNL     1       9.061 -15.051  69.857  1.00  0.00     0.154 C
HETATM   11  C7  UNL     1      10.430 -14.478  69.575  1.00  0.00     0.112 C
HETATM   12  S1  UNL     1      10.370 -13.942  67.817  1.00  0.00    -0.132 SA
HETATM   13  C8  UNL     1       8.652 -13.325  67.635  1.00  0.00     0.214 C
HETATM   14  O2  UNL     1       7.849 -14.290  67.053  1.00  0.00    -0.363 OA
HETATM   15  C20 UNL     1       8.214 -13.039  69.077  1.00  0.00     0.186 C
HETATM   16  C9  UNL     1       6.503 -14.080  67.239  1.00  0.00     0.177 C
HETATM   17  C11 UNL     1       6.124 -12.751  67.786  1.00  0.00     0.174 C
HETATM   18  C12 UNL     1       6.915 -12.271  68.955  1.00  0.00     0.140 C
HETATM   19  O5  UNL     1       8.043 -14.153  69.834  1.00  0.00    -0.370 OA
BRANCH  16  20
HETATM   20  C10 UNL     1       5.832 -14.207  65.865  1.00  0.00     0.198 C
BRANCH  20  21
HETATM   21  O3  UNL     1       5.150 -13.064  65.514  1.00  0.00    -0.398 OA
ATOM     22  H3  UNL     1       5.681 -12.481  64.983  1.00  0.00     0.209 HD
ENDBRANCH  20  21
ENDBRANCH  16  20
BRANCH  17  23
HETATM   23  O4  UNL     1       4.763 -12.831  68.167  1.00  0.00    -0.391 OA
ATOM     24  H4  UNL     1       4.268 -12.301  67.552  1.00  0.00     0.210 HD
ENDBRANCH  17  23
BRANCH  18  25
HETATM   25  N3  UNL     1       7.259 -10.907  68.757  1.00  0.00    -0.408 N
ATOM     26  H3  UNL     1       6.590 -10.238  68.376  1.00  0.00     0.154 HD
BRANCH  25  27
HETATM   27  C13 UNL     1       8.569 -10.520  69.114  1.00  0.00     0.153 C
BRANCH  27  28
HETATM   28  C14 UNL     1       8.633  -9.496  70.171  1.00  0.00    -0.041 A
HETATM   29  C15 UNL     1       7.729  -8.457  70.234  1.00  0.00     0.009 A
HETATM   30  C16 UNL     1       7.783  -7.491  71.237  1.00  0.00     0.001 A
HETATM   31  C17 UNL     1       8.756  -7.541  72.215  1.00  0.00     0.000 A
HETATM   32  C18 UNL     1       9.661  -8.580  72.155  1.00  0.00     0.001 A
HETATM   33  C19 UNL     1       9.603  -9.540  71.154  1.00  0.00     0.009 A
ENDBRANCH  27  28
ENDBRANCH  25  27
ENDBRANCH  18  25
ENDBRANCH   9  10
ENDBRANCH   5   8
ENDBRANCH   3   4
TORSDOF 9
ENDMDL