MODEL 5
REMARK VINA RESULT: -6.927990125      3.945      5.360
REMARK  11 active torsions:
REMARK  status: ('A' for Active; 'I' for Inactive)
REMARK    1  A    between atoms: N1_2  and  N2_4
REMARK    2  A    between atoms: N2_4  and  C1_6
REMARK    3  A    between atoms: C2_10  and  C3_11
REMARK    4  A    between atoms: C3_11  and  N5_12
REMARK    5  A    between atoms: N5_12  and  N6_13
REMARK    6  A    between atoms: N7_19  and  C8_20
REMARK    7  A    between atoms: C8_20  and  C9_21
REMARK    8  A    between atoms: C9_21  and  C10_22
REMARK    9  A    between atoms: C10_22  and  C11_23
REMARK   10  A    between atoms: C11_23  and  C12_24
REMARK   11  A    between atoms: C13_25  and  C14_26
ROOT
HETATM    1  C1  UNL     1      12.502 -14.757  70.284  1.00  0.00     0.712 C
HETATM    2  N3  UNL     1      12.879 -13.633  69.716  1.00  0.00    -0.133 N
ATOM      3  H3  UNL     1      13.845 -13.334  69.580  1.00  0.00     0.201 HD
HETATM    4  N4  UNL     1      11.756 -12.917  69.331  1.00  0.00    -0.098 NA
HETATM    5  C2  UNL     1      10.716 -13.364  70.266  1.00  0.00     0.233 C
HETATM    6  N7  UNL     1      11.086 -14.802  70.282  1.00  0.00    -0.194 N
ENDROOT
BRANCH   6   7
HETATM    7  C8  UNL     1      10.223 -15.918  70.336  1.00  0.00     0.143 C
BRANCH   7   8
HETATM    8  C9  UNL     1       9.913 -16.494  71.677  1.00  0.00     0.021 C
BRANCH   8   9
HETATM    9  C10 UNL     1       8.801 -15.806  72.418  1.00  0.00     0.014 C
BRANCH   9  10
HETATM   10  C11 UNL     1       8.740 -16.352  73.838  1.00  0.00     0.094 C
BRANCH  10  11
HETATM   11  C12 UNL     1       7.522 -17.155  73.925  1.00  0.00    -0.101 C
HETATM   12  C13 UNL     1       6.512 -17.818  74.007  1.00  0.00    -0.067 C
BRANCH  12  13
HETATM   13  C14 UNL     1       5.313 -18.605  74.092  1.00  0.00     0.017 A
HETATM   14  C15 UNL     1       4.078 -18.054  73.815  1.00  0.00     0.020 A
HETATM   15  C16 UNL     1       2.920 -18.814  73.898  1.00  0.00     0.001 A
HETATM   16  C17 UNL     1       2.949 -20.144  74.257  1.00  0.00     0.000 A
HETATM   17  C18 UNL     1       4.183 -20.697  74.535  1.00  0.00     0.001 A
HETATM   18  C19 UNL     1       5.335 -19.941  74.452  1.00  0.00     0.020 A
ENDBRANCH  12  13
ENDBRANCH  10  11
ENDBRANCH   9  10
ENDBRANCH   8   9
ENDBRANCH   7   8
ENDBRANCH   6   7
BRANCH   1  19
HETATM   19  N2  UNL     1      13.412 -15.733  70.803  1.00  0.00    -0.071 N
ATOM     20  H2  UNL     1      13.245 -16.725  70.630  1.00  0.00     0.212 HD
BRANCH  19  21
HETATM   21  N1  UNL     1      14.528 -15.335  71.543  1.00  0.00    -0.024 N
HETATM   22  O1  UNL     1      15.312 -14.538  70.981  1.00  0.00    -0.516 OA
HETATM   23  O2  UNL     1      14.769 -15.782  72.821  1.00  0.00    -0.516 OA
ENDBRANCH  19  21
ENDBRANCH   1  19
BRANCH   5  24
HETATM   24  C3  UNL     1       9.332 -13.178  69.745  1.00  0.00     0.179 C
BRANCH  24  25
HETATM   25  N5  UNL     1       9.295 -13.291  68.304  1.00  0.00    -0.140 NA
BRANCH  25  26
HETATM   26  N6  UNL     1       8.609 -12.280  67.683  1.00  0.00    -0.330 N
HETATM   27  C4  UNL     1       7.413 -11.827  68.301  1.00  0.00     0.148 C
HETATM   28  C5  UNL     1       6.362 -12.898  68.514  1.00  0.00     0.095 C
HETATM   29  S1  UNL     1       6.419 -13.973  67.053  1.00  0.00    -0.166 SA
HETATM   30  C6  UNL     1       7.287 -13.042  65.758  1.00  0.00     0.095 C
HETATM   31  C7  UNL     1       8.540 -12.397  66.255  1.00  0.00     0.148 C
ENDBRANCH  25  26
ENDBRANCH  24  25
ENDBRANCH   5  24
TORSDOF 11
ENDMDL