MODEL 2
REMARK VINA RESULT: -7.841970234      0.881      1.046
REMARK  11 active torsions:
REMARK  status: ('A' for Active; 'I' for Inactive)
REMARK    1  A    between atoms: C2_2  and  C3_3
REMARK    2  A    between atoms: C2_2  and  C11_20
REMARK    3  A    between atoms: C3_3  and  C4_4
REMARK       I    between atoms: C4_4  and  N1_6
REMARK    4  A    between atoms: N1_6  and  C5_8
REMARK    5  A    between atoms: C8_11  and  N2_12
REMARK    6  A    between atoms: C10_16  and  N3_17
REMARK    7  A    between atoms: C11_20  and  O6_21
REMARK    8  A    between atoms: C11_20  and  N4_23
REMARK    9  A    between atoms: N4_23  and  C12_24
REMARK   10  A    between atoms: C14_26  and  C15_27
REMARK   11  A    between atoms: C17_31  and  O9_32
ROOT
HETATM    1  C3  UNL     1       9.550 -16.685  72.820  1.00  0.00     0.146 C
ENDROOT
BRANCH   1   2
HETATM    2  C2  UNL     1       8.518 -17.710  73.095  1.00  0.00     0.006 C
HETATM    3  C1  UNL     1       8.658 -18.878  72.530  1.00  0.00     0.025 C
BRANCH   2   4
HETATM    4  C11 UNL     1       7.373 -17.462  74.003  1.00  0.00     0.214 C
BRANCH   4   5
HETATM    5  O6  UNL     1       7.658 -16.630  74.964  1.00  0.00    -0.335 OA
ATOM      6  H6  UNL     1       7.845 -15.752  74.652  1.00  0.00     0.220 HD
ENDBRANCH   4   5
BRANCH   4   7
HETATM    7  N4  UNL     1       6.140 -18.010  73.886  1.00  0.00    -0.416 NA
BRANCH   7   8
HETATM    8  C12 UNL     1       4.892 -18.565  73.769  1.00  0.00     0.195 C
HETATM    9  C13 UNL     1       3.910 -17.898  74.798  1.00  0.00     0.057 C
HETATM   10  C14 UNL     1       2.713 -18.830  74.664  1.00  0.00     0.092 C
HETATM   11  C16 UNL     1       3.190 -20.120  74.076  1.00  0.00     0.050 C
HETATM   12  C17 UNL     1       4.721 -20.003  74.100  1.00  0.00     0.155 C
BRANCH  10  13
HETATM   13  C15 UNL     1       1.732 -18.231  73.690  1.00  0.00     0.177 C
HETATM   14  O7  UNL     1       2.160 -17.732  72.638  1.00  0.00    -0.648 OA
HETATM   15  O8  UNL     1       0.384 -18.272  74.040  1.00  0.00    -0.648 OA
ENDBRANCH  10  13
BRANCH  12  16
HETATM   16  O9  UNL     1       5.145 -20.302  75.416  1.00  0.00    -0.392 OA
ATOM     17  H9  UNL     1       4.433 -20.622  75.957  1.00  0.00     0.210 HD
ENDBRANCH  12  16
ENDBRANCH   7   8
ENDBRANCH   4   7
ENDBRANCH   2   4
ENDBRANCH   1   2
BRANCH   1  18
HETATM   18  C4  UNL     1       9.435 -16.192  71.413  1.00  0.00     0.226 C
HETATM   19  O1  UNL     1       9.954 -16.860  70.521  1.00  0.00    -0.273 OA
HETATM   20  N1  UNL     1       8.737 -14.983  71.151  1.00  0.00    -0.325 N
ATOM     21  H1  UNL     1       8.352 -14.471  71.944  1.00  0.00     0.169 HD
BRANCH  20  22
HETATM   22  C5  UNL     1       8.544 -14.447  69.867  1.00  0.00     0.068 A
HETATM   23  C6  UNL     1       7.396 -14.623  69.109  1.00  0.00     0.034 A
HETATM   24  C7  UNL     1       7.190 -14.034  67.873  1.00  0.00     0.038 A
HETATM   25  C8  UNL     1       8.166 -13.209  67.327  1.00  0.00     0.105 A
HETATM   26  C9  UNL     1       9.301 -13.017  68.054  1.00  0.00     0.074 A
HETATM   27  C10 UNL     1       9.530 -13.613  69.318  1.00  0.00     0.132 A
BRANCH  25  28
HETATM   28  N2  UNL     1       7.959 -12.600  66.054  1.00  0.00    -0.116 N
HETATM   29  O2  UNL     1       8.914 -12.250  65.347  1.00  0.00    -0.532 OA
HETATM   30  O3  UNL     1       6.685 -12.416  65.614  1.00  0.00    -0.532 OA
ENDBRANCH  25  28
BRANCH  27  31
HETATM   31  N3  UNL     1      10.776 -13.316  69.887  1.00  0.00    -0.113 N
HETATM   32  O4  UNL     1      10.956 -12.149  70.385  1.00  0.00    -0.532 OA
HETATM   33  O5  UNL     1      11.831 -14.133  69.962  1.00  0.00    -0.532 OA
ENDBRANCH  27  31
ENDBRANCH  20  22
ENDBRANCH   1  18
TORSDOF 11
ENDMDL