MODEL 3
REMARK VINA RESULT: -7.332870502      2.468      3.236
REMARK  3 active torsions:
REMARK  status: ('A' for Active; 'I' for Inactive)
REMARK    1  A    between atoms: C2_2  and  C5_5
REMARK    2  A    between atoms: C9_9  and  N1_10
REMARK       I    between atoms: N1_10  and  C10_12
REMARK    3  A    between atoms: C10_12  and  C11_14
ROOT
HETATM    1  C5  UNL     1     -37.288   4.819  21.524  1.00  0.00     0.018 A
HETATM    2  C6  UNL     1     -38.030   5.746  20.765  1.00  0.00     0.039 A
HETATM    3  C7  UNL     1     -37.417   6.966  20.789  1.00  0.00    -0.004 A
HETATM    4  C8  UNL     1     -37.712   8.237  20.290  1.00  0.00     0.043 A
HETATM    5  C9  UNL     1     -36.925   9.332  20.529  1.00  0.00     0.037 A
HETATM    6  C17 UNL     1     -35.785   9.122  21.300  1.00  0.00     0.055 A
HETATM    7  C18 UNL     1     -35.469   7.877  21.808  1.00  0.00     0.063 A
HETATM    8 CL2  UNL     1     -34.017   7.682  22.779  1.00  0.00    -0.082 Cl
HETATM    9  C19 UNL     1     -36.277   6.791  21.566  1.00  0.00     0.065 A
HETATM   10  N2  UNL     1     -36.250   5.493  21.980  1.00  0.00    -0.357 N
ATOM     11  H2  UNL     1     -35.518   5.093  22.568  1.00  0.00     0.166 HD
ENDROOT
BRANCH   5  12
HETATM   12  N1  UNL     1     -37.340  10.669  20.219  1.00  0.00    -0.323 N
HETATM   13  C10 UNL     1     -37.456  11.173  18.916  1.00  0.00     0.256 C
HETATM   14  O1  UNL     1     -37.296  10.507  17.900  1.00  0.00    -0.267 OA
ATOM     15  H1  UNL     1     -37.565  11.293  20.994  1.00  0.00     0.169 HD
BRANCH  13  16
HETATM   16  C11 UNL     1     -37.764  12.623  18.794  1.00  0.00     0.035 A
HETATM   17  C12 UNL     1     -37.661  13.501  19.819  1.00  0.00     0.041 A
HETATM   18  C13 UNL     1     -37.760  14.885  19.647  1.00  0.00     0.036 A
HETATM   19 CL1  UNL     1     -37.574  16.021  20.984  1.00  0.00    -0.084 Cl
HETATM   20  C14 UNL     1     -37.977  15.359  18.387  1.00  0.00     0.043 A
HETATM   21  C15 UNL     1     -38.094  14.487  17.308  1.00  0.00     0.013 A
HETATM   22 BR1  UNL     1     -38.415  15.149  15.555  1.00  0.00    -0.051 Br
HETATM   23  C16 UNL     1     -37.987  13.096  17.519  1.00  0.00     0.036 A
ENDBRANCH  13  16
ENDBRANCH   5  12
BRANCH   1  24
HETATM   24  C2  UNL     1     -37.707   3.424  21.798  1.00  0.00    -0.009 C
HETATM   25  C1  UNL     1     -36.451   2.559  21.653  1.00  0.00     0.021 C
HETATM   26  C3  UNL     1     -38.100   3.328  23.267  1.00  0.00     0.021 C
HETATM   27  C4  UNL     1     -38.769   2.893  20.906  1.00  0.00     0.021 C
ENDBRANCH   1  24
TORSDOF 3
ENDMDL