MODEL 2
REMARK VINA RESULT: -10.085244356      1.822      2.215
REMARK  3 active torsions:
REMARK  status: ('A' for Active; 'I' for Inactive)
REMARK    1  A    between atoms: C6_6  and  C7_7
REMARK    2  A    between atoms: C9_10  and  N1_11
REMARK       I    between atoms: N1_11  and  C10_13
REMARK       I    between atoms: C10_13  and  N2_15
REMARK    3  A    between atoms: N2_15  and  C11_17
ROOT
HETATM    1  C7  UNL     1     -34.864   2.688  21.446  1.00  0.00     0.052 A
HETATM    2  C8  UNL     1     -35.449   1.458  21.666  1.00  0.00     0.083 A
HETATM    3  S1  UNL     1     -36.638   1.826  22.841  1.00  0.00    -0.063 SA
HETATM    4  C9  UNL     1     -36.331   3.490  22.982  1.00  0.00     0.152 A
HETATM    5  N3  UNL     1     -35.337   3.691  22.131  1.00  0.00    -0.335 N
ATOM      6  H3  UNL     1     -34.944   4.625  22.011  1.00  0.00     0.168 HD
ENDROOT
BRANCH   4   7
HETATM    7  N1  UNL     1     -36.918   4.390  23.744  1.00  0.00    -0.288 N
HETATM    8  C10 UNL     1     -37.325   5.617  23.085  1.00  0.00     0.326 C
HETATM    9  O1  UNL     1     -38.519   5.904  23.229  1.00  0.00    -0.247 OA
HETATM   10  N2  UNL     1     -36.431   6.389  22.357  1.00  0.00    -0.307 N
ATOM     11  H2  UNL     1     -35.472   6.042  22.313  1.00  0.00     0.170 HD
ATOM     12  H1  UNL     1     -37.076   4.235  24.740  1.00  0.00     0.172 HD
BRANCH  10  13
HETATM   13  C11 UNL     1     -36.683   7.577  21.681  1.00  0.00     0.059 A
HETATM   14  C12 UNL     1     -37.521   7.730  20.598  1.00  0.00     0.055 A
HETATM   15  C13 UNL     1     -37.718   8.958  19.975  1.00  0.00     0.036 A
HETATM   16 CL1  UNL     1     -38.801   9.064  18.604  1.00  0.00    -0.084 Cl
HETATM   17  C14 UNL     1     -37.071  10.087  20.431  1.00  0.00     0.026 A
HETATM   18  C15 UNL     1     -36.228   9.971  21.508  1.00  0.00     0.028 A
HETATM   19  C16 UNL     1     -36.042   8.749  22.113  1.00  0.00     0.060 A
HETATM   20 CL2  UNL     1     -34.961   8.640  23.483  1.00  0.00    -0.082 Cl
ENDBRANCH  10  13
ENDBRANCH   4   7
BRANCH   1  21
HETATM   21  C6  UNL     1     -33.828   2.804  20.374  1.00  0.00     0.005 A
HETATM   22  C4  UNL     1     -34.148   2.900  19.046  1.00  0.00    -0.048 A
HETATM   23  C3  UNL     1     -33.177   3.122  18.055  1.00  0.00     0.016 A
HETATM   24  C5  UNL     1     -35.555   2.687  18.595  1.00  0.00     0.049 C
HETATM   25  C2  UNL     1     -31.855   3.252  18.377  1.00  0.00    -0.039 A
HETATM   26  C1  UNL     1     -30.791   3.488  17.367  1.00  0.00     0.050 C
HETATM   27  C19 UNL     1     -31.519   3.155  19.700  1.00  0.00     0.046 A
HETATM   28  C17 UNL     1     -32.493   2.934  20.694  1.00  0.00    -0.027 A
HETATM   29 CL3  UNL     1     -29.821   3.316  20.140  1.00  0.00    -0.083 Cl
HETATM   30  C18 UNL     1     -32.000   2.899  22.073  1.00  0.00     0.051 C
ENDBRANCH   1  21
TORSDOF 3
ENDMDL