MODEL 4
REMARK VINA RESULT: -7.770887820      1.213      1.620
REMARK  3 active torsions:
REMARK  status: ('A' for Active; 'I' for Inactive)
REMARK    1  A    between atoms: C6_7  and  C7_8
REMARK    2  A    between atoms: C8_11  and  N2_12
REMARK    3  A    between atoms: C9_16  and  C10_17
ROOT
HETATM    1  C7  UNL     1     -34.461   1.793  20.323  1.00  0.00     0.062 A
HETATM    2  N1  UNL     1     -34.571   0.584  19.811  1.00  0.00    -0.335 N
ATOM      3  H1  UNL     1     -33.761   0.115  19.406  1.00  0.00     0.168 HD
HETATM    4  C8  UNL     1     -35.758  -0.013  19.830  1.00  0.00     0.143 A
HETATM    5  S1  UNL     1     -36.760   1.136  20.583  1.00  0.00    -0.051 SA
HETATM    6  C9  UNL     1     -35.597   2.357  20.848  1.00  0.00     0.046 A
ENDROOT
BRANCH   6   7
HETATM    7  C10 UNL     1     -35.751   3.681  21.473  1.00  0.00    -0.009 A
HETATM    8  C11 UNL     1     -35.192   3.963  22.685  1.00  0.00     0.015 A
HETATM    9  C12 UNL     1     -35.326   5.193  23.292  1.00  0.00     0.026 A
HETATM   10  C13 UNL     1     -36.055   6.163  22.638  1.00  0.00     0.056 A
HETATM   11 CL1  UNL     1     -36.271   7.756  23.349  1.00  0.00    -0.083 Cl
HETATM   12  C14 UNL     1     -36.625   5.874  21.404  1.00  0.00     0.062 A
HETATM   13 CL2  UNL     1     -37.549   7.094  20.568  1.00  0.00    -0.082 Cl
HETATM   14  C15 UNL     1     -36.476   4.633  20.815  1.00  0.00    -0.027 A
HETATM   15  C16 UNL     1     -37.089   4.323  19.485  1.00  0.00     0.051 C
ENDBRANCH   6   7
BRANCH   1  16
HETATM   16  C6  UNL     1     -33.156   2.529  20.340  1.00  0.00    -0.006 A
HETATM   17  C5  UNL     1     -32.483   2.703  19.161  1.00  0.00     0.032 A
HETATM   18  C4  UNL     1     -31.262   3.390  19.138  1.00  0.00     0.012 A
HETATM   19  C3  UNL     1     -30.748   3.891  20.324  1.00  0.00     0.026 A
HETATM   20 BR1  UNL     1     -30.294   3.655  17.526  1.00  0.00    -0.051 Br
HETATM   21  C2  UNL     1     -31.417   3.723  21.519  1.00  0.00    -0.060 A
HETATM   22  C1  UNL     1     -30.844   4.269  22.785  1.00  0.00     0.048 C
HETATM   23  C17 UNL     1     -32.616   3.039  21.494  1.00  0.00     0.020 A
ENDBRANCH   1  16
BRANCH   4  24
HETATM   24  N2  UNL     1     -36.064  -1.210  19.369  1.00  0.00    -0.380 N
ATOM     25  H22 UNL     1     -36.885  -1.784  19.562  1.00  0.00     0.158 HD
ATOM     26  H21 UNL     1     -35.522  -1.785  18.725  1.00  0.00     0.158 HD
ENDBRANCH   4  24
TORSDOF 3
ENDMDL