MODEL 3
REMARK VINA RESULT: -5.861457307      2.643      3.283
REMARK  2 active torsions:
REMARK  status: ('A' for Active; 'I' for Inactive)
REMARK       I    between atoms: C2_2  and  N1_4
REMARK    1  A    between atoms: N1_4  and  C3_6
REMARK    2  A    between atoms: C7_12  and  C8_13
ROOT
HETATM    1  C8  UNL     1     -35.731   6.901  22.146  1.00  0.00     0.004 A
HETATM    2  C9  UNL     1     -35.607   7.231  23.522  1.00  0.00     0.101 A
HETATM    3  N2  UNL     1     -34.679   6.450  24.087  1.00  0.00    -0.364 N
ATOM      4  H2  UNL     1     -34.402   6.489  25.068  1.00  0.00     0.165 HD
HETATM    5  C10 UNL     1     -34.162   5.603  23.173  1.00  0.00     0.045 A
HETATM    6  C11 UNL     1     -33.211   4.599  23.235  1.00  0.00     0.054 A
HETATM    7  C12 UNL     1     -32.879   3.842  22.104  1.00  0.00     0.058 A
HETATM    8  C13 UNL     1     -31.988   2.723  22.162  1.00  0.00     0.100 C
HETATM    9  N3  UNL     1     -31.276   1.777  22.254  1.00  0.00    -0.191 NA
HETATM   10  C14 UNL     1     -33.524   4.149  20.970  1.00  0.00     0.001 A
HETATM   11  C15 UNL     1     -34.501   5.161  20.855  1.00  0.00    -0.032 A
HETATM   12  C16 UNL     1     -34.821   5.889  21.962  1.00  0.00     0.010 A
HETATM   13  C17 UNL     1     -35.058   5.263  19.515  1.00  0.00     0.041 C
HETATM   14  C18 UNL     1     -35.541   3.879  19.040  1.00  0.00     0.009 C
HETATM   15  C19 UNL     1     -34.384   2.913  18.902  1.00  0.00     0.042 C
HETATM   16  C20 UNL     1     -33.212   3.411  19.746  1.00  0.00    -0.012 C
HETATM   17  C21 UNL     1     -32.020   3.285  19.314  1.00  0.00     0.097 C
HETATM   18  C22 UNL     1     -31.771   2.499  18.067  1.00  0.00     0.082 C
HETATM   19  F1  UNL     1     -30.939   3.924  19.804  1.00  0.00    -0.211 F
ENDROOT
BRANCH   1  20
HETATM   20  C7  UNL     1     -36.632   7.534  21.215  1.00  0.00     0.002 A
HETATM   21  C6  UNL     1     -37.775   6.876  20.869  1.00  0.00     0.067 A
HETATM   22  C5  UNL     1     -38.686   7.490  20.036  1.00  0.00     0.058 A
HETATM   23 CL2  UNL     1     -38.109   5.248  21.455  1.00  0.00    -0.082 Cl
HETATM   24  C4  UNL     1     -38.442   8.743  19.569  1.00  0.00     0.055 A
HETATM   25 CL1  UNL     1     -40.178   6.662  19.562  1.00  0.00    -0.082 Cl
HETATM   26  C3  UNL     1     -37.285   9.461  19.894  1.00  0.00     0.037 A
HETATM   27  C23 UNL     1     -36.397   8.789  20.741  1.00  0.00     0.043 A
BRANCH  26  28
HETATM   28  N1  UNL     1     -37.101  10.773  19.410  1.00  0.00    -0.327 N
HETATM   29  C2  UNL     1     -37.972  11.375  18.493  1.00  0.00     0.218 C
HETATM   30  C1  UNL     1     -37.734  12.771  17.977  1.00  0.00     0.117 C
HETATM   31  O1  UNL     1     -38.971  10.785  18.068  1.00  0.00    -0.274 OA
ATOM     32  H1  UNL     1     -36.298  11.307  19.744  1.00  0.00     0.169 HD
ENDBRANCH  26  28
ENDBRANCH   1  20
TORSDOF 2
ENDMDL