MODEL 2
REMARK VINA RESULT: -6.914856973      1.932      2.339
REMARK  2 active torsions:
REMARK  status: ('A' for Active; 'I' for Inactive)
REMARK    1  A    between atoms: C7_10  and  C8_11
REMARK    2  A    between atoms: C10_13  and  C11_14
ROOT
HETATM    1  C8  UNL     1     -36.379   7.487  21.341  1.00  0.00     0.063 A
HETATM    2  C9  UNL     1     -36.504   8.312  20.242  1.00  0.00     0.066 A
HETATM    3  C10 UNL     1     -36.871   9.562  20.647  1.00  0.00     0.094 A
HETATM    4  N3  UNL     1     -36.972   9.503  21.986  1.00  0.00    -0.297 N
ATOM      5  H3  UNL     1     -37.231  10.283  22.591  1.00  0.00     0.187 HD
HETATM    6  N4  UNL     1     -36.684   8.291  22.398  1.00  0.00    -0.299 N
ATOM      7  H4  UNL     1     -36.689   7.993  23.373  1.00  0.00     0.187 HD
ENDROOT
BRANCH   3   8
HETATM    8  C11 UNL     1     -37.122  10.763  19.838  1.00  0.00     0.135 A
HETATM    9  N1  UNL     1     -37.388  10.798  18.521  1.00  0.00    -0.339 N
HETATM   10  C12 UNL     1     -37.567  12.065  18.104  1.00  0.00     0.061 A
ATOM     11  H1  UNL     1     -37.447   9.976  17.920  1.00  0.00     0.167 HD
HETATM   12  C13 UNL     1     -37.853  12.661  16.890  1.00  0.00     0.032 A
HETATM   13  C18 UNL     1     -37.402  12.870  19.224  1.00  0.00     0.066 A
HETATM   14  C14 UNL     1     -37.989  14.015  16.719  1.00  0.00     0.003 A
HETATM   15  C15 UNL     1     -37.824  14.821  17.847  1.00  0.00     0.009 A
HETATM   16  C16 UNL     1     -37.537  14.233  19.061  1.00  0.00    -0.033 A
HETATM   17  C17 UNL     1     -37.369  15.119  20.237  1.00  0.00     0.050 C
HETATM   18  N2  UNL     1     -37.137  12.044  20.247  1.00  0.00    -0.338 N
ATOM     19  H2  UNL     1     -36.969  12.348  21.206  1.00  0.00     0.167 HD
ENDBRANCH   3   8
BRANCH   1  20
HETATM   20  C7  UNL     1     -36.007   6.073  21.395  1.00  0.00     0.023 A
HETATM   21  C2  UNL     1     -36.858   5.070  20.966  1.00  0.00    -0.030 A
HETATM   22  C1  UNL     1     -38.174   5.472  20.442  1.00  0.00     0.050 C
HETATM   23  C3  UNL     1     -36.477   3.734  21.029  1.00  0.00     0.019 A
HETATM   24 BR1  UNL     1     -37.702   2.378  20.417  1.00  0.00    -0.050 Br
HETATM   25  C4  UNL     1     -35.243   3.365  21.521  1.00  0.00     0.045 A
HETATM   26  C5  UNL     1     -34.399   4.370  21.948  1.00  0.00     0.058 A
HETATM   27 CL1  UNL     1     -32.838   3.963  22.573  1.00  0.00    -0.082 Cl
HETATM   28  C6  UNL     1     -34.773   5.700  21.886  1.00  0.00     0.069 A
HETATM   29 CL2  UNL     1     -33.697   6.989  22.431  1.00  0.00    -0.082 Cl
ENDBRANCH   1  20
TORSDOF 2
ENDMDL