MODEL 2
REMARK VINA RESULT: -3.340188121      2.635      2.784
REMARK  1 active torsions:
REMARK  status: ('A' for Active; 'I' for Inactive)
REMARK    1  A    between atoms: O1_2  and  C2_3
ROOT
HETATM    1  C2  UNL     1     -37.140   2.121  19.341  1.00  0.00     0.070 A
HETATM    2  C3  UNL     1     -36.953   0.948  20.036  1.00  0.00     0.063 A
HETATM    3  C4  UNL     1     -36.647   1.000  21.378  1.00  0.00     0.064 A
HETATM    4 CL1  UNL     1     -36.412  -0.501  22.245  1.00  0.00    -0.082 Cl
HETATM    5  C5  UNL     1     -36.542   2.232  21.965  1.00  0.00     0.065 A
HETATM    6  N1  UNL     1     -36.204   2.287  23.252  1.00  0.00    -0.358 N
ATOM      7  H1  UNL     1     -36.068   1.407  23.750  1.00  0.00     0.166 HD
HETATM    8  C6  UNL     1     -36.033   3.427  23.930  1.00  0.00     0.006 A
HETATM    9  C7  UNL     1     -35.652   3.376  25.366  1.00  0.00     0.068 C
HETATM   10  C8  UNL     1     -36.223   4.606  23.248  1.00  0.00     0.039 A
HETATM   11  C9  UNL     1     -36.584   4.646  21.884  1.00  0.00     0.005 A
HETATM   12  C10 UNL     1     -36.715   5.963  21.321  1.00  0.00     0.044 A
HETATM   13  C11 UNL     1     -37.559   6.460  20.376  1.00  0.00     0.044 A
HETATM   14  C12 UNL     1     -37.406   7.828  20.238  1.00  0.00    -0.004 A
HETATM   15  C13 UNL     1     -38.028   8.719  19.427  1.00  0.00     0.033 A
HETATM   16  C14 UNL     1     -37.689  10.070  19.480  1.00  0.00     0.013 A
HETATM   17 BR1  UNL     1     -38.583  11.290  18.327  1.00  0.00    -0.051 Br
HETATM   18  C15 UNL     1     -36.717  10.440  20.373  1.00  0.00     0.045 A
HETATM   19  C16 UNL     1     -36.098   9.517  21.190  1.00  0.00     0.062 A
HETATM   20 CL2  UNL     1     -34.860  10.010  22.323  1.00  0.00    -0.082 Cl
HETATM   21  C17 UNL     1     -36.432   8.172  21.140  1.00  0.00     0.065 A
HETATM   22  N2  UNL     1     -36.037   7.072  21.767  1.00  0.00    -0.353 N
ATOM     23  H2  UNL     1     -35.319   7.051  22.490  1.00  0.00     0.166 HD
HETATM   24  C18 UNL     1     -36.732   3.440  21.275  1.00  0.00     0.007 A
HETATM   25  C19 UNL     1     -37.029   3.370  19.954  1.00  0.00     0.051 A
ENDROOT
BRANCH   1  26
HETATM   26  O1  UNL     1     -37.446   2.092  17.997  1.00  0.00    -0.356 OA
HETATM   27  C1  UNL     1     -37.761   3.290  17.342  1.00  0.00     0.210 C
ENDBRANCH   1  26
TORSDOF 1
ENDMDL