MODEL 2
REMARK VINA RESULT: -9.383778351      0.172      1.703
REMARK  5 active torsions:
REMARK  status: ('A' for Active; 'I' for Inactive)
REMARK    1  A    between atoms: C2_2  and  C3_3
REMARK    2  A    between atoms: C2_2  and  C19_27
REMARK    3  A    between atoms: C4_4  and  C5_5
REMARK    4  A    between atoms: C5_5  and  C6_6
REMARK    5  A    between atoms: C16_19  and  O1_20
ROOT
HETATM    1  C3  UNL     1     -36.816   4.608  21.513  1.00  0.00     0.022 A
HETATM    2  C4  UNL     1     -36.138   3.720  20.698  1.00  0.00    -0.029 A
HETATM    3  C12 UNL     1     -36.077   2.338  20.963  1.00  0.00     0.002 A
HETATM    4  C13 UNL     1     -35.518   1.431  20.102  1.00  0.00     0.038 A
HETATM    5  C14 UNL     1     -35.542   0.062  20.285  1.00  0.00     0.037 A
HETATM    6 CL3  UNL     1     -34.825  -1.019  19.085  1.00  0.00    -0.084 Cl
HETATM    7  C15 UNL     1     -36.168  -0.416  21.407  1.00  0.00     0.062 A
HETATM    8  C16 UNL     1     -36.753   0.441  22.314  1.00  0.00     0.095 A
HETATM    9  C17 UNL     1     -36.708   1.821  22.084  1.00  0.00     0.079 A
HETATM   10  N1  UNL     1     -37.354   2.687  22.867  1.00  0.00    -0.320 N
ATOM     11  H1  UNL     1     -37.823   2.328  23.698  1.00  0.00     0.169 HD
HETATM   12  C18 UNL     1     -37.422   4.016  22.618  1.00  0.00     0.253 A
HETATM   13  O2  UNL     1     -38.071   4.665  23.473  1.00  0.00    -0.268 OA
ENDROOT
BRANCH   2  14
HETATM   14  C5  UNL     1     -35.487   4.136  19.466  1.00  0.00     0.078 C
BRANCH  14  15
HETATM   15  C6  UNL     1     -34.033   3.862  19.417  1.00  0.00    -0.051 A
HETATM   16  C7  UNL     1     -33.367   3.969  20.621  1.00  0.00     0.031 A
HETATM   17  C8  UNL     1     -32.017   3.723  20.727  1.00  0.00     0.036 A
HETATM   18 CL1  UNL     1     -31.207   3.866  22.268  1.00  0.00    -0.084 Cl
HETATM   19  C9  UNL     1     -31.313   3.359  19.595  1.00  0.00     0.047 A
HETATM   20  C10 UNL     1     -31.997   3.259  18.403  1.00  0.00     0.036 A
HETATM   21 CL2  UNL     1     -31.122   2.797  16.978  1.00  0.00    -0.084 Cl
HETATM   22  C11 UNL     1     -33.355   3.508  18.299  1.00  0.00     0.031 A
ENDBRANCH  14  15
ENDBRANCH   2  14
BRANCH   1  23
HETATM   23  C2  UNL     1     -36.882   6.054  21.261  1.00  0.00     0.028 C
HETATM   24  C1  UNL     1     -38.372   6.507  21.247  1.00  0.00     0.016 C
BRANCH  23  25
HETATM   25  C19 UNL     1     -36.145   7.015  22.105  1.00  0.00    -0.044 C
HETATM   26  C20 UNL     1     -34.784   6.697  22.588  1.00  0.00     0.015 C
HETATM   27  C21 UNL     1     -35.872   8.233  21.110  1.00  0.00     0.015 C
HETATM   28  C22 UNL     1     -36.859   7.685  23.240  1.00  0.00     0.015 C
ENDBRANCH  23  25
ENDBRANCH   1  23
BRANCH   8  29
HETATM   29  O1  UNL     1     -37.359  -0.068  23.410  1.00  0.00    -0.358 OA
ATOM     30  H1  UNL     1     -38.297   0.037  23.514  1.00  0.00     0.217 HD
ENDBRANCH   8  29
TORSDOF 5
ENDMDL