MODEL 1
REMARK VINA RESULT: -8.302209066      0.000      0.000
REMARK  3 active torsions:
REMARK  status: ('A' for Active; 'I' for Inactive)
REMARK    1  A    between atoms: C2_2  and  C4_4
REMARK    2  A    between atoms: C7_7  and  O1_8
REMARK    3  A    between atoms: C8_10  and  C9_11
ROOT
HETATM    1  C4  UNL     1     -35.626   1.670  20.021  1.00  0.00     0.114 C
HETATM    2  C5  UNL     1     -34.832   2.487  19.050  1.00  0.00     0.072 C
HETATM    3  C6  UNL     1     -33.632   3.147  19.654  1.00  0.00    -0.009 A
HETATM    4  C7  UNL     1     -32.448   2.832  19.054  1.00  0.00     0.079 A
HETATM    5  C8  UNL     1     -31.248   3.333  19.573  1.00  0.00    -0.019 A
HETATM    6  C12 UNL     1     -31.264   4.150  20.706  1.00  0.00     0.035 A
HETATM    7  C13 UNL     1     -32.462   4.485  21.338  1.00  0.00     0.046 A
HETATM    8 CL1  UNL     1     -32.511   5.349  22.851  1.00  0.00    -0.083 Cl
HETATM    9  C14 UNL     1     -33.584   3.974  20.782  1.00  0.00     0.007 A
HETATM   10  C15 UNL     1     -34.786   4.447  21.467  1.00  0.00     0.004 A
HETATM   11  C16 UNL     1     -34.636   5.728  21.896  1.00  0.00     0.035 A
HETATM   12  C17 UNL     1     -35.681   6.272  22.603  1.00  0.00     0.033 A
HETATM   13 BR1  UNL     1     -35.580   8.052  23.260  1.00  0.00    -0.049 Br
HETATM   14  C18 UNL     1     -36.842   5.522  22.855  1.00  0.00     0.053 A
HETATM   15 CL2  UNL     1     -38.177   6.204  23.754  1.00  0.00    -0.083 Cl
HETATM   16  C19 UNL     1     -36.938   4.229  22.389  1.00  0.00     0.055 A
HETATM   17  C20 UNL     1     -35.919   3.658  21.685  1.00  0.00     0.041 A
HETATM   18  N1  UNL     1     -36.143   2.349  21.180  1.00  0.00    -0.381 N
ATOM     19  H1  UNL     1     -36.785   1.788  21.741  1.00  0.00     0.160 HD
ENDROOT
BRANCH   1  20
HETATM   20  C2  UNL     1     -36.651   0.862  19.332  1.00  0.00    -0.070 C
HETATM   21  C1  UNL     1     -37.886   1.291  19.242  1.00  0.00     0.016 C
HETATM   22  C3  UNL     1     -36.292  -0.445  18.743  1.00  0.00     0.044 C
ENDBRANCH   1  20
BRANCH   4  23
HETATM   23  O1  UNL     1     -32.437   2.007  17.919  1.00  0.00    -0.360 OA
ATOM     24  H1  UNL     1     -32.625   2.375  17.064  1.00  0.00     0.217 HD
ENDBRANCH   4  23
BRANCH   5  25
HETATM   25  C9  UNL     1     -29.963   3.010  18.913  1.00  0.00     0.013 C
HETATM   26  C10 UNL     1     -28.832   3.225  19.913  1.00  0.00     0.015 C
HETATM   27  C11 UNL     1     -29.717   3.992  17.775  1.00  0.00     0.015 C
ENDBRANCH   5  25
TORSDOF 3
ENDMDL