MODEL 4
REMARK VINA RESULT: -6.958239774      1.369      1.789
REMARK  4 active torsions:
REMARK  status: ('A' for Active; 'I' for Inactive)
REMARK    1  A    between atoms: C5_7  and  N2_8
REMARK       I    between atoms: N2_8  and  C6_10
REMARK       I    between atoms: C6_10  and  N3_12
REMARK    2  A    between atoms: N3_12  and  C7_14
REMARK    3  A    between atoms: C11_19  and  C12_20
REMARK    4  A    between atoms: C13_21  and  C14_22
ROOT
HETATM    1  C7  UNL     1     -37.414   8.094  20.692  1.00  0.00     0.037 A
HETATM    2  C8  UNL     1     -38.565   7.370  20.772  1.00  0.00     0.031 A
HETATM    3  C9  UNL     1     -38.578   5.967  20.696  1.00  0.00     0.027 A
HETATM    4  C10 UNL     1     -37.414   5.262  20.535  1.00  0.00     0.052 A
HETATM    5 CL1  UNL     1     -37.450   3.508  20.441  1.00  0.00    -0.083 Cl
HETATM    6  C11 UNL     1     -36.240   5.974  20.452  1.00  0.00     0.042 A
HETATM    7  C21 UNL     1     -36.235   7.345  20.527  1.00  0.00     0.052 A
ENDROOT
BRANCH   1   8
HETATM    8  N3  UNL     1     -37.327   9.496  20.761  1.00  0.00    -0.309 N
HETATM    9  C6  UNL     1     -37.449  10.435  19.713  1.00  0.00     0.325 C
HETATM   10  N2  UNL     1     -37.321  11.812  20.034  1.00  0.00    -0.307 N
HETATM   11  O1  UNL     1     -37.663  10.122  18.524  1.00  0.00    -0.247 OA
ATOM     12  H2  UNL     1     -37.154  12.017  21.019  1.00  0.00     0.170 HD
ATOM     13  H3  UNL     1     -37.152   9.885  21.688  1.00  0.00     0.170 HD
BRANCH  10  14
HETATM   14  C5  UNL     1     -37.392  12.926  19.191  1.00  0.00     0.052 A
HETATM   15  C4  UNL     1     -37.346  14.226  19.747  1.00  0.00     0.117 A
HETATM   16  N1  UNL     1     -37.391  15.295  18.953  1.00  0.00    -0.373 N
HETATM   17  C3  UNL     1     -37.480  15.213  17.626  1.00  0.00     0.094 A
ATOM     18  H1  UNL     1     -37.357  16.220  19.382  1.00  0.00     0.164 HD
HETATM   19  C2  UNL     1     -37.528  13.993  17.013  1.00  0.00    -0.044 A
HETATM   20  C1  UNL     1     -37.626  13.798  15.556  1.00  0.00     0.049 C
HETATM   21  C22 UNL     1     -37.481  12.845  17.833  1.00  0.00     0.039 A
ENDBRANCH  10  14
ENDBRANCH   1   8
BRANCH   6  22
HETATM   22  C12 UNL     1     -34.999   5.270  20.283  1.00  0.00    -0.060 C
HETATM   23  C13 UNL     1     -33.953   4.692  20.125  1.00  0.00    -0.060 C
BRANCH  23  24
HETATM   24  C14 UNL     1     -32.680   4.017  19.929  1.00  0.00     0.040 A
HETATM   25  C15 UNL     1     -32.315   3.495  18.701  1.00  0.00     0.030 A
HETATM   26  C16 UNL     1     -31.109   2.853  18.511  1.00  0.00    -0.039 A
HETATM   27  C17 UNL     1     -30.701   2.287  17.195  1.00  0.00     0.050 C
HETATM   28  C18 UNL     1     -30.278   2.757  19.619  1.00  0.00     0.041 A
HETATM   29 CL2  UNL     1     -28.735   1.939  19.389  1.00  0.00    -0.084 Cl
HETATM   30  C19 UNL     1     -30.620   3.269  20.853  1.00  0.00     0.049 A
HETATM   31  C20 UNL     1     -31.838   3.909  21.015  1.00  0.00     0.054 A
HETATM   32 CL3  UNL     1     -32.315   4.573  22.562  1.00  0.00    -0.083 Cl
ENDBRANCH  23  24
ENDBRANCH   6  22
TORSDOF 4
ENDMDL