MODEL 3
REMARK VINA RESULT: -8.215420564      2.191      5.671
REMARK  10 active torsions:
REMARK  status: ('A' for Active; 'I' for Inactive)
REMARK    1  A    between atoms: C2_2  and  C3_3
REMARK       I    between atoms: C3_3  and  N1_5
REMARK    2  A    between atoms: N1_5  and  C4_7
REMARK    3  A    between atoms: C4_7  and  C6_9
REMARK    4  A    between atoms: C6_9  and  C7_10
REMARK    5  A    between atoms: C6_9  and  N4_24
REMARK    6  A    between atoms: C7_10  and  C8_11
REMARK       I    between atoms: C8_11  and  N2_13
REMARK    7  A    between atoms: N2_13  and  C9_15
REMARK    8  A    between atoms: C9_15  and  C10_16
REMARK       I    between atoms: N4_24  and  C15_26
REMARK       I    between atoms: C15_26  and  N5_28
REMARK    9  A    between atoms: N5_28  and  C16_30
REMARK   10  A    between atoms: C16_30  and  C18_32
ROOT
HETATM    1  C6  UNL     1      70.392  35.722   0.546  1.00  0.00     0.117 C
ENDROOT
BRANCH   1   2
HETATM    2  C4  UNL     1      71.224  36.859  -0.069  1.00  0.00     0.103 C
HETATM    3  C5  UNL     1      72.531  36.892   0.690  1.00  0.00     0.034 C
BRANCH   2   4
HETATM    4  N1  UNL     1      71.402  36.678  -1.474  1.00  0.00    -0.355 N
HETATM    5  C3  UNL     1      70.905  37.649  -2.374  1.00  0.00     0.217 C
HETATM    6  O1  UNL     1      70.313  38.663  -1.939  1.00  0.00    -0.274 OA
ATOM      7  H1  UNL     1      71.885  35.851  -1.827  1.00  0.00     0.162 HD
BRANCH   5   8
HETATM    8  C2  UNL     1      71.080  37.475  -3.816  1.00  0.00     0.098 C
HETATM    9  C1  UNL     1      71.306  38.755  -4.553  1.00  0.00     0.014 C
ENDBRANCH   5   8
ENDBRANCH   2   4
ENDBRANCH   1   2
BRANCH   1  10
HETATM   10  C7  UNL     1      68.969  36.126   0.430  1.00  0.00     0.130 C
BRANCH  10  11
HETATM   11  C8  UNL     1      68.255  36.357   1.689  1.00  0.00     0.219 C
HETATM   12  O2  UNL     1      67.390  37.244   1.758  1.00  0.00    -0.274 OA
HETATM   13  N2  UNL     1      68.561  35.570   2.804  1.00  0.00    -0.361 N
ATOM     14  H2  UNL     1      69.273  34.844   2.724  1.00  0.00     0.162 HD
BRANCH  13  15
HETATM   15  C9  UNL     1      67.891  35.765   4.060  1.00  0.00     0.127 C
BRANCH  15  16
HETATM   16  C10 UNL     1      66.814  34.760   4.244  1.00  0.00     0.006 C
HETATM   17  C11 UNL     1      65.453  35.472   4.258  1.00  0.00     0.034 C
HETATM   18  C12 UNL     1      64.410  34.414   4.028  1.00  0.00     0.232 C
HETATM   19  N3  UNL     1      64.787  33.184   4.670  1.00  0.00    -0.075 N
HETATM   20  C13 UNL     1      65.559  33.408   5.883  1.00  0.00     0.232 C
ATOM     21  H32 UNL     1      63.971  32.601   4.856  1.00  0.00     0.277 HD
ATOM     22  H31 UNL     1      65.283  32.570   4.026  1.00  0.00     0.277 HD
HETATM   23  C14 UNL     1      66.893  34.059   5.591  1.00  0.00     0.034 C
ENDBRANCH  15  16
ENDBRANCH  13  15
ENDBRANCH  10  11
ENDBRANCH   1  10
BRANCH   1  24
HETATM   24  N4  UNL     1      70.719  34.462  -0.024  1.00  0.00    -0.336 N
HETATM   25  C15 UNL     1      70.841  33.305   0.777  1.00  0.00     0.316 C
HETATM   26  O3  UNL     1      70.662  33.379   2.018  1.00  0.00    -0.247 OA
HETATM   27  N5  UNL     1      71.168  32.024   0.234  1.00  0.00    -0.339 N
ATOM     28  H5  UNL     1      71.320  31.939  -0.771  1.00  0.00     0.164 HD
ATOM     29  H4  UNL     1      70.867  34.392  -1.031  1.00  0.00     0.164 HD
BRANCH  27  30
HETATM   30  C16 UNL     1      71.291  30.851   1.060  1.00  0.00     0.081 C
HETATM   31  C17 UNL     1      70.791  29.620   0.381  1.00  0.00     0.032 C
BRANCH  30  32
HETATM   32  C18 UNL     1      72.691  30.709   1.588  1.00  0.00     0.020 C
HETATM   33  C19 UNL     1      73.359  29.443   1.097  1.00  0.00     0.007 C
ENDBRANCH  30  32
ENDBRANCH  27  30
ENDBRANCH   1  24
TORSDOF 10
ENDMDL