MODEL 4
REMARK VINA RESULT: -8.435838701      2.480      3.527
REMARK  9 active torsions:
REMARK  status: ('A' for Active; 'I' for Inactive)
REMARK    1  A    between atoms: N1_2  and  C2_5
REMARK    2  A    between atoms: C7_10  and  C8_11
REMARK    3  A    between atoms: C8_11  and  C9_13
REMARK    4  A    between atoms: C9_13  and  N2_14
REMARK    5  A    between atoms: C9_13  and  C15_28
REMARK       I    between atoms: N2_14  and  C10_16
REMARK    6  A    between atoms: C10_16  and  C11_18
REMARK    7  A    between atoms: C11_18  and  C12_19
REMARK    8  A    between atoms: C12_19  and  C13_20
REMARK    9  A    between atoms: C13_20  and  N3_21
REMARK       I    between atoms: N3_21  and  C14_23
ROOT
HETATM    1  C9  UNL     1      71.294  36.202  -0.412  1.00  0.00     0.067 C
ENDROOT
BRANCH   1   2
HETATM    2  C8  UNL     1      70.088  36.143   0.384  1.00  0.00     0.199 C
HETATM    3  O1  UNL     1      69.067  36.663  -0.158  1.00  0.00    -0.286 OA
BRANCH   2   4
HETATM    4  C7  UNL     1      69.777  35.600   1.719  1.00  0.00     0.002 C
HETATM    5  C2  UNL     1      68.514  35.053   2.133  1.00  0.00     0.218 C
HETATM    6  C3  UNL     1      67.808  35.851   3.229  1.00  0.00     0.037 C
HETATM    7  C4  UNL     1      68.023  37.321   3.159  1.00  0.00     0.003 C
HETATM    8  C5  UNL     1      69.489  37.690   3.141  1.00  0.00     0.004 C
HETATM    9  C6  UNL     1      70.370  36.545   2.794  1.00  0.00     0.040 C
BRANCH   5  10
HETATM   10  N1  UNL     1      67.536  34.686   1.134  1.00  0.00    -0.071 N
HETATM   11  C1  UNL     1      66.380  34.165   1.907  1.00  0.00     0.267 C
ATOM     12  H12 UNL     1      67.888  34.040   0.428  1.00  0.00     0.277 HD
ATOM     13  H11 UNL     1      67.298  35.442   0.491  1.00  0.00     0.277 HD
ENDBRANCH   5  10
ENDBRANCH   2   4
ENDBRANCH   1   2
BRANCH   1  14
HETATM   14  N2  UNL     1      72.151  35.021  -0.302  1.00  0.00    -0.327 N
HETATM   15  C10 UNL     1      73.258  34.843   0.509  1.00  0.00     0.222 C
HETATM   16  O2  UNL     1      73.592  35.726   1.347  1.00  0.00    -0.273 OA
ATOM     17  H2  UNL     1      71.901  34.231  -0.898  1.00  0.00     0.168 HD
BRANCH  15  18
HETATM   18  C11 UNL     1      74.091  33.630   0.461  1.00  0.00     0.105 C
BRANCH  18  19
HETATM   19  C12 UNL     1      75.537  33.935   0.501  1.00  0.00     0.029 C
BRANCH  19  20
HETATM   20  C13 UNL     1      76.082  34.001   1.943  1.00  0.00     0.122 C
BRANCH  20  21
HETATM   21  N3  UNL     1      77.469  34.472   1.863  1.00  0.00    -0.365 N
HETATM   22  C14 UNL     1      78.167  35.069   2.933  1.00  0.00     0.181 C
HETATM   23  N4  UNL     1      78.276  34.608   4.098  1.00  0.00    -0.374 N
HETATM   24  N5  UNL     1      78.807  36.352   2.675  1.00  0.00    -0.064 NA
ATOM     25  H42 UNL     1      77.828  33.710   4.279  1.00  0.00     0.158 HD
ATOM     26  H41 UNL     1      78.782  35.040   4.872  1.00  0.00     0.158 HD
ATOM     27  H3  UNL     1      77.960  34.361   0.977  1.00  0.00     0.162 HD
ENDBRANCH  20  21
ENDBRANCH  19  20
ENDBRANCH  18  19
ENDBRANCH  15  18
ENDBRANCH   1  14
BRANCH   1  28
HETATM   28  C15 UNL     1      71.574  36.973  -1.625  1.00  0.00     0.040 C
HETATM   29  C16 UNL     1      70.288  37.290  -2.391  1.00  0.00     0.011 C
HETATM   30  C17 UNL     1      70.611  38.217  -3.516  1.00  0.00     0.001 C
HETATM   31  C18 UNL     1      71.297  39.496  -3.117  1.00  0.00     0.000 C
HETATM   32  C19 UNL     1      72.449  39.222  -2.171  1.00  0.00     0.001 C
HETATM   33  C20 UNL     1      71.943  38.388  -1.056  1.00  0.00     0.011 C
ENDBRANCH   1  28
TORSDOF 9
ENDMDL