MODEL 3
REMARK VINA RESULT: -8.146091663      3.212      7.045
REMARK  10 active torsions:
REMARK  status: ('A' for Active; 'I' for Inactive)
REMARK    1  A    between atoms: C2_2  and  C4_4
REMARK    2  A    between atoms: C4_4  and  N1_5
REMARK    3  A    between atoms: N1_5  and  C5_7
REMARK    4  A    between atoms: C5_7  and  C6_8
REMARK    5  A    between atoms: C5_7  and  C13_22
REMARK    6  A    between atoms: C6_8  and  N2_9
REMARK       I    between atoms: N2_9  and  C7_11
REMARK       I    between atoms: C7_11  and  N3_13
REMARK    7  A    between atoms: N3_13  and  C8_15
REMARK    8  A    between atoms: C8_15  and  C9_16
REMARK    9  A    between atoms: C8_15  and  C10_19
REMARK       I    between atoms: C13_22  and  N4_24
REMARK   10  A    between atoms: N4_24  and  C14_26
ROOT
HETATM    1  C5  UNL     1      71.954  32.718   1.169  1.00  0.00     0.095 C
ENDROOT
BRANCH   1   2
HETATM    2  N1  UNL     1      72.063  31.688   2.089  1.00  0.00    -0.367 N
ATOM      3  H1  UNL     1      72.501  31.903   2.985  1.00  0.00     0.165 HD
BRANCH   2   4
HETATM    4  C4  UNL     1      71.625  30.392   1.891  1.00  0.00     0.065 C
BRANCH   4   5
HETATM    5  C2  UNL     1      72.019  29.510   0.793  1.00  0.00     0.016 C
HETATM    6  C1  UNL     1      72.889  28.335   1.101  1.00  0.00     0.015 C
HETATM    7  C3  UNL     1      70.719  28.923   0.207  1.00  0.00     0.015 C
ENDBRANCH   4   5
ENDBRANCH   2   4
ENDBRANCH   1   2
BRANCH   1   8
HETATM    8  C6  UNL     1      73.257  33.404   0.807  1.00  0.00     0.187 C
BRANCH   8   9
HETATM    9  N2  UNL     1      73.019  34.259  -0.364  1.00  0.00    -0.337 N
HETATM   10  C7  UNL     1      72.928  35.666  -0.245  1.00  0.00     0.317 C
HETATM   11  O1  UNL     1      73.062  36.170   0.906  1.00  0.00    -0.247 OA
HETATM   12  N3  UNL     1      72.694  36.526  -1.349  1.00  0.00    -0.328 N
ATOM     13  H3  UNL     1      72.585  36.113  -2.275  1.00  0.00     0.165 HD
ATOM     14  H2  UNL     1      72.916  33.829  -1.283  1.00  0.00     0.164 HD
BRANCH  12  15
HETATM   15  C8  UNL     1      72.605  37.965  -1.214  1.00  0.00     0.190 C
BRANCH  15  16
HETATM   16  C9  UNL     1      71.465  38.361  -0.345  1.00  0.00     0.197 C
HETATM   17  O2  UNL     1      70.273  38.004  -0.534  1.00  0.00    -0.646 OA
HETATM   18  O3  UNL     1      71.681  39.176   0.760  1.00  0.00    -0.646 OA
ENDBRANCH  15  16
BRANCH  15  19
HETATM   19  C10 UNL     1      72.537  38.555  -2.590  1.00  0.00     0.011 C
HETATM   20  C11 UNL     1      72.068  39.991  -2.593  1.00  0.00     0.012 C
HETATM   21  C12 UNL     1      71.615  37.717  -3.428  1.00  0.00     0.012 C
ENDBRANCH  15  19
ENDBRANCH  12  15
ENDBRANCH   8   9
ENDBRANCH   1   8
BRANCH   1  22
HETATM   22  C13 UNL     1      70.785  33.570   1.254  1.00  0.00     0.266 C
HETATM   23  O4  UNL     1      69.867  33.475   0.401  1.00  0.00    -0.266 OA
HETATM   24  N4  UNL     1      70.595  34.551   2.280  1.00  0.00    -0.351 N
ATOM     25  H4  UNL     1      71.301  34.684   3.005  1.00  0.00     0.163 HD
BRANCH  24  26
HETATM   26  C14 UNL     1      69.405  35.341   2.276  1.00  0.00     0.084 C
HETATM   27  C15 UNL     1      69.813  36.774   2.624  1.00  0.00     0.025 C
HETATM   28  C16 UNL     1      68.538  37.533   2.898  1.00  0.00     0.002 C
HETATM   29  C17 UNL     1      67.336  36.884   2.241  1.00  0.00     0.000 C
HETATM   30  C18 UNL     1      67.045  35.539   2.853  1.00  0.00     0.002 C
HETATM   31  C19 UNL     1      68.345  34.850   3.208  1.00  0.00     0.025 C
ENDBRANCH  24  26
ENDBRANCH   1  22
TORSDOF 10
ENDMDL