MODEL 3
REMARK VINA RESULT: -8.314495881      2.362      2.806
REMARK  10 active torsions:
REMARK  status: ('A' for Active; 'I' for Inactive)
REMARK    1  A    between atoms: C2_2  and  N1_3
REMARK    2  A    between atoms: C2_2  and  C5_10
REMARK    3  A    between atoms: N1_3  and  C3_6
REMARK    4  A    between atoms: C3_6  and  C4_7
REMARK       I    between atoms: C5_10  and  N2_12
REMARK    5  A    between atoms: N2_12  and  C6_14
REMARK    6  A    between atoms: C6_14  and  C7_15
REMARK    7  A    between atoms: C10_18  and  C11_19
REMARK    8  A    between atoms: C11_19  and  C13_21
REMARK       I    between atoms: C13_21  and  N3_23
REMARK    9  A    between atoms: N3_23  and  C14_25
REMARK   10  A    between atoms: C14_25  and  C16_27
ROOT
HETATM    1  C7  UNL     1      66.984  35.525   3.058  1.00  0.00     0.003 C
HETATM    2  C8  UNL     1      67.264  34.655   1.876  1.00  0.00     0.006 C
HETATM    3  C9  UNL     1      68.669  34.671   1.382  1.00  0.00     0.006 C
HETATM    4  C10 UNL     1      69.268  36.061   1.313  1.00  0.00    -0.002 C
HETATM    5  C19 UNL     1      69.255  36.559   2.755  1.00  0.00     0.006 C
HETATM    6  C20 UNL     1      67.829  36.761   3.137  1.00  0.00     0.006 C
ENDROOT
BRANCH   1   7
HETATM    7  C6  UNL     1      67.160  34.748   4.345  1.00  0.00     0.127 C
BRANCH   7   8
HETATM    8  N2  UNL     1      66.212  33.671   4.514  1.00  0.00    -0.359 N
HETATM    9  C5  UNL     1      65.061  33.802   5.317  1.00  0.00     0.248 C
HETATM   10  O3  UNL     1      64.793  34.849   5.938  1.00  0.00    -0.271 OA
ATOM     11  H2  UNL     1      66.381  32.785   4.036  1.00  0.00     0.162 HD
BRANCH   9  12
HETATM   12  C2  UNL     1      64.142  32.637   5.417  1.00  0.00     0.273 C
HETATM   13  C1  UNL     1      64.825  31.626   6.301  1.00  0.00     0.050 C
BRANCH  12  14
HETATM   14  N1  UNL     1      63.838  32.144   4.091  1.00  0.00    -0.053 N
ATOM     15  H12 UNL     1      62.884  32.385   3.824  1.00  0.00     0.278 HD
ATOM     16  H11 UNL     1      64.349  32.669   3.382  1.00  0.00     0.278 HD
BRANCH  14  17
HETATM   17  C3  UNL     1      64.071  30.725   3.949  1.00  0.00     0.345 C
BRANCH  17  18
HETATM   18  C4  UNL     1      65.025  30.490   2.849  1.00  0.00     0.199 C
HETATM   19  O1  UNL     1      65.137  29.356   2.346  1.00  0.00    -0.647 OA
HETATM   20  O2  UNL     1      65.798  31.528   2.377  1.00  0.00    -0.647 OA
ENDBRANCH  17  18
ENDBRANCH  14  17
ENDBRANCH  12  14
ENDBRANCH   9  12
ENDBRANCH   7   8
ENDBRANCH   1   7
BRANCH   4  21
HETATM   21  C11 UNL     1      70.678  35.994   0.860  1.00  0.00     0.078 C
HETATM   22  C12 UNL     1      71.728  36.066   1.910  1.00  0.00     0.020 C
BRANCH  21  23
HETATM   23  C13 UNL     1      70.894  37.082  -0.194  1.00  0.00     0.222 C
HETATM   24  O4  UNL     1      70.391  38.206   0.038  1.00  0.00    -0.273 OA
HETATM   25  N3  UNL     1      71.612  36.788  -1.328  1.00  0.00    -0.356 N
ATOM     26  H3  UNL     1      71.967  35.832  -1.349  1.00  0.00     0.162 HD
BRANCH  25  27
HETATM   27  C14 UNL     1      71.957  37.542  -2.468  1.00  0.00     0.083 C
HETATM   28  C15 UNL     1      72.949  38.601  -2.110  1.00  0.00     0.032 C
BRANCH  27  29
HETATM   29  C16 UNL     1      70.875  37.989  -3.403  1.00  0.00    -0.000 C
HETATM   30  C17 UNL     1      70.738  39.538  -3.225  1.00  0.00     0.011 C
HETATM   31  C18 UNL     1      71.328  37.893  -4.880  1.00  0.00     0.011 C
ENDBRANCH  27  29
ENDBRANCH  25  27
ENDBRANCH  21  23
ENDBRANCH   4  21
TORSDOF 10
ENDMDL