MODEL 3
REMARK VINA RESULT: -8.194689685      1.462      2.148
REMARK  13 active torsions:
REMARK  status: ('A' for Active; 'I' for Inactive)
REMARK    1  A    between atoms: C2_2  and  C4_4
REMARK    2  A    between atoms: C4_4  and  C5_5
REMARK    3  A    between atoms: C5_5  and  C6_6
REMARK    4  A    between atoms: C6_6  and  N1_7
REMARK    5  A    between atoms: C6_6  and  C15_22
REMARK       I    between atoms: N1_7  and  C7_9
REMARK    6  A    between atoms: C7_9  and  C8_11
REMARK    7  A    between atoms: C8_11  and  N2_12
REMARK    8  A    between atoms: C8_11  and  C9_16
REMARK       I    between atoms: C15_22  and  N3_24
REMARK    9  A    between atoms: N3_24  and  C16_26
REMARK   10  A    between atoms: C16_26  and  C17_27
REMARK   11  A    between atoms: C16_26  and  C18_32
REMARK   12  A    between atoms: C17_27  and  O3_28
REMARK   13  A    between atoms: C17_27  and  O4_30
ROOT
HETATM    1  C6  UNL     1      69.934  35.324   2.155  1.00  0.00     0.177 C
ENDROOT
BRANCH   1   2
HETATM    2  C5  UNL     1      69.583  34.097   1.334  1.00  0.00     0.039 C
BRANCH   2   3
HETATM    3  C4  UNL     1      70.590  33.801   0.281  1.00  0.00     0.035 C
BRANCH   3   4
HETATM    4  C2  UNL     1      71.648  32.917   0.788  1.00  0.00    -0.093 C
HETATM    5  C1  UNL     1      71.360  31.687   1.188  1.00  0.00     0.014 C
HETATM    6  C3  UNL     1      73.072  33.414   0.850  1.00  0.00     0.042 C
ENDBRANCH   3   4
ENDBRANCH   2   3
ENDBRANCH   1   2
BRANCH   1   7
HETATM    7  N1  UNL     1      70.187  36.475   1.344  1.00  0.00    -0.346 N
HETATM    8  C7  UNL     1      71.480  37.070   1.202  1.00  0.00     0.249 C
HETATM    9  O1  UNL     1      72.440  36.557   1.819  1.00  0.00    -0.271 OA
ATOM     10  H1  UNL     1      69.404  36.893   0.841  1.00  0.00     0.163 HD
BRANCH   8  11
HETATM   11  C8  UNL     1      71.723  38.256   0.364  1.00  0.00     0.278 C
BRANCH  11  12
HETATM   12  N2  UNL     1      70.869  39.318   0.801  1.00  0.00    -0.066 N
ATOM     13  H23 UNL     1      69.884  39.124   0.621  1.00  0.00     0.275 HD
ATOM     14  H22 UNL     1      70.819  39.384   1.818  1.00  0.00     0.275 HD
ATOM     15  H21 UNL     1      71.178  40.190   0.371  1.00  0.00     0.275 HD
ENDBRANCH  11  12
BRANCH  11  16
HETATM   16  C9  UNL     1      71.631  37.989  -1.107  1.00  0.00     0.025 C
HETATM   17  C10 UNL     1      70.218  37.811  -1.565  1.00  0.00     0.007 C
HETATM   18  C11 UNL     1      70.282  37.035  -2.882  1.00  0.00     0.000 C
HETATM   19  C12 UNL     1      71.266  37.692  -3.803  1.00  0.00     0.000 C
HETATM   20  C13 UNL     1      71.615  39.100  -3.347  1.00  0.00     0.000 C
HETATM   21  C14 UNL     1      72.259  39.061  -1.958  1.00  0.00     0.007 C
ENDBRANCH  11  16
ENDBRANCH   8  11
ENDBRANCH   1   7
BRANCH   1  22
HETATM   22  C15 UNL     1      68.828  35.518   3.113  1.00  0.00     0.240 C
HETATM   23  O2  UNL     1      68.887  36.485   3.899  1.00  0.00    -0.271 OA
HETATM   24  N3  UNL     1      67.718  34.653   3.167  1.00  0.00    -0.350 N
ATOM     25  H3  UNL     1      67.666  33.861   2.526  1.00  0.00     0.163 HD
BRANCH  24  26
HETATM   26  C16 UNL     1      66.631  34.876   4.135  1.00  0.00     0.143 C
BRANCH  26  27
HETATM   27  C17 UNL     1      65.511  35.653   3.466  1.00  0.00     0.276 C
BRANCH  27  28
HETATM   28  O3  UNL     1      65.813  36.982   3.256  1.00  0.00    -0.369 OA
ATOM     29  H3  UNL     1      65.649  37.272   2.366  1.00  0.00     0.212 HD
ENDBRANCH  27  28
BRANCH  27  30
HETATM   30  O4  UNL     1      65.022  35.014   2.335  1.00  0.00    -0.369 OA
ATOM     31  H4  UNL     1      64.091  34.832   2.394  1.00  0.00     0.212 HD
ENDBRANCH  27  30
ENDBRANCH  26  27
BRANCH  26  32
HETATM   32  C18 UNL     1      66.191  33.586   4.746  1.00  0.00     0.013 A
HETATM   33  C19 UNL     1      65.200  33.535   5.864  1.00  0.00     0.007 A
HETATM   34  C20 UNL     1      66.653  33.333   6.164  1.00  0.00     0.007 A
ENDBRANCH  26  32
ENDBRANCH  24  26
ENDBRANCH   1  22
TORSDOF 13
ENDMDL