MODEL 3
REMARK VINA RESULT: -8.271865197      2.508      6.184
REMARK  10 active torsions:
REMARK  status: ('A' for Active; 'I' for Inactive)
REMARK    1  A    between atoms: N1_2  and  C2_5
REMARK    2  A    between atoms: C2_5  and  C4_7
REMARK       I    between atoms: C4_7  and  N2_9
REMARK    3  A    between atoms: N2_9  and  C5_11
REMARK    4  A    between atoms: C5_11  and  C6_12
REMARK    5  A    between atoms: C5_11  and  C13_19
REMARK    6  A    between atoms: C6_12  and  C7_13
REMARK       I    between atoms: C13_19  and  N3_21
REMARK    7  A    between atoms: N3_21  and  C14_23
REMARK    8  A    between atoms: C14_23  and  C15_24
REMARK    9  A    between atoms: C14_23  and  C20_29
REMARK   10  A    between atoms: C15_24  and  C16_25
ROOT
HETATM    1  C5  UNL     1      71.953  36.056   0.168  1.00  0.00     0.177 C
ENDROOT
BRANCH   1   2
HETATM    2  N2  UNL     1      70.684  36.063   0.860  1.00  0.00    -0.346 N
HETATM    3  C4  UNL     1      69.814  34.957   0.920  1.00  0.00     0.248 C
HETATM    4  O1  UNL     1      70.133  33.896   0.352  1.00  0.00    -0.271 OA
ATOM      5  H2  UNL     1      70.402  36.922   1.334  1.00  0.00     0.163 HD
BRANCH   3   6
HETATM    6  C2  UNL     1      68.531  35.031   1.641  1.00  0.00     0.272 C
HETATM    7  C3  UNL     1      67.897  36.379   1.438  1.00  0.00     0.050 C
BRANCH   6   8
HETATM    8  N1  UNL     1      68.687  34.820   3.067  1.00  0.00    -0.067 N
HETATM    9  C1  UNL     1      68.351  36.034   3.782  1.00  0.00     0.267 C
ATOM     10  H12 UNL     1      69.619  34.480   3.305  1.00  0.00     0.277 HD
ATOM     11  H11 UNL     1      68.148  34.020   3.398  1.00  0.00     0.277 HD
ENDBRANCH   6   8
ENDBRANCH   3   6
ENDBRANCH   1   2
BRANCH   1  12
HETATM   12  C6  UNL     1      72.437  37.420  -0.213  1.00  0.00     0.039 C
BRANCH  12  13
HETATM   13  C7  UNL     1      72.339  37.666  -1.694  1.00  0.00    -0.012 C
HETATM   14  C8  UNL     1      70.937  37.399  -2.198  1.00  0.00     0.005 C
HETATM   15  C9  UNL     1      71.021  37.393  -3.720  1.00  0.00     0.000 C
HETATM   16  C10 UNL     1      71.270  38.821  -4.143  1.00  0.00     0.000 C
HETATM   17  C11 UNL     1      71.737  39.688  -3.020  1.00  0.00     0.000 C
HETATM   18  C12 UNL     1      72.745  39.041  -2.112  1.00  0.00     0.005 C
ENDBRANCH  12  13
ENDBRANCH   1  12
BRANCH   1  19
HETATM   19  C13 UNL     1      73.003  35.287   0.880  1.00  0.00     0.241 C
HETATM   20  O2  UNL     1      73.523  35.702   1.940  1.00  0.00    -0.271 OA
HETATM   21  N3  UNL     1      73.427  34.055   0.350  1.00  0.00    -0.345 N
ATOM     22  H3  UNL     1      73.020  33.693  -0.513  1.00  0.00     0.163 HD
BRANCH  21  23
HETATM   23  C14 UNL     1      74.478  33.290   1.068  1.00  0.00     0.186 C
BRANCH  23  24
HETATM   24  C15 UNL     1      74.302  31.880   0.591  1.00  0.00     0.041 C
BRANCH  24  25
HETATM   25  C16 UNL     1      73.658  30.919   1.521  1.00  0.00    -0.012 C
HETATM   26  C17 UNL     1      72.141  31.196   1.519  1.00  0.00     0.005 C
HETATM   27  C18 UNL     1      71.826  29.761   1.202  1.00  0.00     0.001 C
HETATM   28  C19 UNL     1      73.291  29.549   0.942  1.00  0.00     0.005 C
ENDBRANCH  24  25
ENDBRANCH  23  24
BRANCH  23  29
HETATM   29  C20 UNL     1      75.776  33.905   0.751  1.00  0.00     0.196 C
HETATM   30  O3  UNL     1      76.187  33.979  -0.453  1.00  0.00    -0.646 OA
HETATM   31  O4  UNL     1      76.617  34.437   1.701  1.00  0.00    -0.646 OA
ENDBRANCH  23  29
ENDBRANCH  21  23
ENDBRANCH   1  19
TORSDOF 10
ENDMDL