MODEL 2
REMARK VINA RESULT: -8.526207864      1.229      3.026
REMARK  12 active torsions:
REMARK  status: ('A' for Active; 'I' for Inactive)
REMARK    1  A    between atoms: C1_4  and  O1_5
REMARK    2  A    between atoms: C1_4  and  C2_7
REMARK    3  A    between atoms: C2_7  and  C3_8
REMARK    4  A    between atoms: C3_8  and  N2_9
REMARK    5  A    between atoms: C3_8  and  C14_26
REMARK    6  A    between atoms: N2_9  and  C4_11
REMARK    7  A    between atoms: C4_11  and  C5_12
REMARK    8  A    between atoms: C4_11  and  C6_14
REMARK    9  A    between atoms: C6_14  and  N3_15
REMARK   10  A    between atoms: C6_14  and  C7_19
REMARK   11  A    between atoms: C7_19  and  C8_20
REMARK       I    between atoms: C14_26  and  N4_28
REMARK   12  A    between atoms: N4_28  and  C15_30
ROOT
HETATM    1  C3  UNL     1      69.501  35.395   2.320  1.00  0.00     0.177 C
ENDROOT
BRANCH   1   2
HETATM    2  C2  UNL     1      69.707  36.635   3.101  1.00  0.00     0.117 C
BRANCH   2   3
HETATM    3  C1  UNL     1      69.276  37.861   2.351  1.00  0.00     0.111 C
HETATM    4  N1  UNL     1      70.147  38.730   2.029  1.00  0.00    -0.384 N
ATOM      5  H12 UNL     1      69.855  39.563   1.519  1.00  0.00     0.157 HD
ATOM      6  H11 UNL     1      71.132  38.609   2.268  1.00  0.00     0.157 HD
BRANCH   3   7
HETATM    7  O1  UNL     1      67.955  38.024   2.030  1.00  0.00    -0.350 OA
ATOM      8  H1  UNL     1      67.361  37.283   1.996  1.00  0.00     0.219 HD
ENDBRANCH   3   7
ENDBRANCH   2   3
ENDBRANCH   1   2
BRANCH   1   9
HETATM    9  N2  UNL     1      69.399  35.458   0.911  1.00  0.00    -0.397 N
ATOM     10  H2  UNL     1      68.570  35.861   0.475  1.00  0.00     0.154 HD
BRANCH   9  11
HETATM   11  C4  UNL     1      70.432  34.971   0.126  1.00  0.00     0.169 C
BRANCH  11  12
HETATM   12  C5  UNL     1      71.038  33.694   0.454  1.00  0.00     0.258 C
HETATM   13  O2  UNL     1      70.502  32.596   0.460  1.00  0.00    -0.305 OA
ENDBRANCH  11  12
BRANCH  11  14
HETATM   14  C6  UNL     1      71.498  36.053  -0.173  1.00  0.00     0.212 C
BRANCH  14  15
HETATM   15  N3  UNL     1      72.675  35.445  -0.725  1.00  0.00    -0.073 N
ATOM     16  H33 UNL     1      73.121  34.809  -0.064  1.00  0.00     0.274 HD
ATOM     17  H32 UNL     1      72.448  34.769  -1.454  1.00  0.00     0.274 HD
ATOM     18  H31 UNL     1      73.317  36.165  -1.058  1.00  0.00     0.274 HD
ENDBRANCH  14  15
BRANCH  14  19
HETATM   19  C7  UNL     1      70.845  37.086  -1.022  1.00  0.00     0.040 C
BRANCH  19  20
HETATM   20  C8  UNL     1      71.565  37.423  -2.299  1.00  0.00    -0.013 C
HETATM   21  C9  UNL     1      70.761  37.219  -3.538  1.00  0.00     0.005 C
HETATM   22  C10 UNL     1      71.262  38.013  -4.728  1.00  0.00     0.000 C
HETATM   23  C11 UNL     1      71.329  39.483  -4.496  1.00  0.00     0.000 C
HETATM   24  C12 UNL     1      71.223  39.808  -3.011  1.00  0.00     0.000 C
HETATM   25  C13 UNL     1      72.065  38.831  -2.208  1.00  0.00     0.005 C
ENDBRANCH  19  20
ENDBRANCH  14  19
ENDBRANCH  11  14
ENDBRANCH   9  11
ENDBRANCH   1   9
BRANCH   1  26
HETATM   26  C14 UNL     1      68.274  34.646   2.853  1.00  0.00     0.240 C
HETATM   27  O3  UNL     1      67.783  33.814   2.053  1.00  0.00    -0.271 OA
HETATM   28  N4  UNL     1      67.765  34.883   4.127  1.00  0.00    -0.355 N
ATOM     29  H4  UNL     1      68.219  35.570   4.729  1.00  0.00     0.162 HD
BRANCH  28  30
HETATM   30  C15 UNL     1      66.601  34.167   4.611  1.00  0.00     0.084 C
HETATM   31  C16 UNL     1      66.871  33.492   5.938  1.00  0.00     0.025 C
HETATM   32  C17 UNL     1      65.739  32.567   6.246  1.00  0.00     0.002 C
HETATM   33  C18 UNL     1      64.387  33.169   6.136  1.00  0.00     0.000 C
HETATM   34  C19 UNL     1      64.224  34.211   5.095  1.00  0.00     0.002 C
HETATM   35  C20 UNL     1      65.406  35.066   4.810  1.00  0.00     0.025 C
ENDBRANCH  28  30
ENDBRANCH   1  26
TORSDOF 12
ENDMDL