MODEL 3
REMARK VINA RESULT: -8.554292212      2.449      5.076
REMARK  11 active torsions:
REMARK  status: ('A' for Active; 'I' for Inactive)
REMARK    1  A    between atoms: C2_2  and  C3_3
REMARK    2  A    between atoms: C2_2  and  C9_9
REMARK    3  A    between atoms: C3_3  and  C4_4
REMARK       I    between atoms: C9_9  and  N1_11
REMARK    4  A    between atoms: N1_11  and  C10_13
REMARK    5  A    between atoms: C10_13  and  C11_14
REMARK    6  A    between atoms: C10_13  and  C18_26
REMARK       I    between atoms: C11_14  and  N2_16
REMARK    7  A    between atoms: N2_16  and  C12_18
REMARK    8  A    between atoms: C12_18  and  C13_19
REMARK    9  A    between atoms: C12_18  and  C17_23
REMARK   10  A    between atoms: C13_19  and  C14_20
REMARK   11  A    between atoms: N4_28  and  O5_30
ROOT
HETATM    1  C10 UNL     1      71.803  35.307   0.608  1.00  0.00     0.243 C
ENDROOT
BRANCH   1   2
HETATM    2  N1  UNL     1      71.294  35.662  -0.677  1.00  0.00    -0.338 N
HETATM    3  C9  UNL     1      71.511  36.881  -1.337  1.00  0.00     0.247 C
HETATM    4  O1  UNL     1      72.205  37.755  -0.781  1.00  0.00    -0.268 OA
ATOM      5  H1  UNL     1      70.721  34.968  -1.157  1.00  0.00     0.164 HD
BRANCH   3   6
HETATM    6  C2  UNL     1      70.955  37.179  -2.663  1.00  0.00     0.001 C
HETATM    7  C1  UNL     1      69.730  36.794  -2.936  1.00  0.00     0.024 C
BRANCH   6   8
HETATM    8  C3  UNL     1      71.754  37.898  -3.673  1.00  0.00     0.048 C
BRANCH   8   9
HETATM    9  C4  UNL     1      71.032  38.340  -4.896  1.00  0.00    -0.010 C
HETATM   10  C5  UNL     1      71.611  37.519  -6.066  1.00  0.00     0.005 C
HETATM   11  C6  UNL     1      71.430  38.476  -7.222  1.00  0.00     0.000 C
HETATM   12  C7  UNL     1      72.056  39.739  -6.618  1.00  0.00     0.000 C
HETATM   13  C8  UNL     1      71.405  39.776  -5.277  1.00  0.00     0.005 C
ENDBRANCH   8   9
ENDBRANCH   6   8
ENDBRANCH   3   6
ENDBRANCH   1   2
BRANCH   1  14
HETATM   14  C11 UNL     1      71.074  35.888   1.733  1.00  0.00     0.248 C
HETATM   15  O2  UNL     1      71.696  36.470   2.648  1.00  0.00    -0.271 OA
HETATM   16  N2  UNL     1      69.673  35.802   1.803  1.00  0.00    -0.344 N
ATOM     17  H2  UNL     1      69.162  35.330   1.056  1.00  0.00     0.163 HD
BRANCH  16  18
HETATM   18  C12 UNL     1      68.910  36.393   2.962  1.00  0.00     0.185 C
BRANCH  18  19
HETATM   19  C13 UNL     1      68.116  35.259   3.458  1.00  0.00     0.040 C
BRANCH  19  20
HETATM   20  C14 UNL     1      67.182  35.357   4.574  1.00  0.00    -0.020 C
HETATM   21  C15 UNL     1      67.209  34.381   5.678  1.00  0.00     0.009 C
HETATM   22  C16 UNL     1      65.724  35.486   4.126  1.00  0.00     0.009 C
ENDBRANCH  19  20
ENDBRANCH  18  19
BRANCH  18  23
HETATM   23  C17 UNL     1      68.184  37.507   2.367  1.00  0.00     0.196 C
HETATM   24  O3  UNL     1      67.250  37.301   1.523  1.00  0.00    -0.646 OA
HETATM   25  O4  UNL     1      68.461  38.818   2.664  1.00  0.00    -0.646 OA
ENDBRANCH  18  23
ENDBRANCH  16  18
ENDBRANCH   1  14
BRANCH   1  26
HETATM   26  C18 UNL     1      71.888  33.823   0.753  1.00  0.00     0.145 C
HETATM   27  N3  UNL     1      70.964  33.094   1.542  1.00  0.00    -0.083 NA
HETATM   28  N4  UNL     1      72.837  33.149   0.143  1.00  0.00    -0.257 N
ATOM     29  H4  UNL     1      72.893  32.136   0.243  1.00  0.00     0.195 HD
BRANCH  28  30
HETATM   30  O5  UNL     1      73.761  33.826  -0.636  1.00  0.00    -0.289 OA
ATOM     31  H5  UNL     1      74.479  34.285  -0.216  1.00  0.00     0.244 HD
ENDBRANCH  28  30
ENDBRANCH   1  26
TORSDOF 11
ENDMDL