MODEL 5
REMARK VINA RESULT: -9.296052963      3.201      8.526
REMARK  10 active torsions:
REMARK  status: ('A' for Active; 'I' for Inactive)
REMARK       I    between atoms: C1_2  and  N2_4
REMARK    1  A    between atoms: N2_4  and  C2_6
REMARK    2  A    between atoms: C2_6  and  C3_7
REMARK    3  A    between atoms: C3_7  and  C4_8
REMARK    4  A    between atoms: C3_7  and  N5_25
REMARK    5  A    between atoms: C4_8  and  N3_9
REMARK       I    between atoms: N3_9  and  C5_11
REMARK    6  A    between atoms: C5_11  and  C6_13
REMARK    7  A    between atoms: C6_13  and  N4_14
REMARK    8  A    between atoms: C6_13  and  C7_18
REMARK    9  A    between atoms: C7_18  and  C8_19
REMARK   10  A    between atoms: N5_25  and  C14_27
ROOT
HETATM    1  C4  UNL     1      70.290  36.948   0.908  1.00  0.00     0.149 C
ENDROOT
BRANCH   1   2
HETATM    2  C3  UNL     1      71.318  35.916   0.283  1.00  0.00     0.116 C
BRANCH   2   3
HETATM    3  C2  UNL     1      71.074  34.685   1.072  1.00  0.00     0.150 C
BRANCH   3   4
HETATM    4  N2  UNL     1      70.913  33.448   0.367  1.00  0.00    -0.343 N
HETATM    5  C1  UNL     1      71.200  32.203   0.981  1.00  0.00     0.328 C
HETATM    6  N1  UNL     1      71.052  30.957   0.318  1.00  0.00    -0.040 NA
HETATM    7  O1  UNL     1      71.605  32.186   2.166  1.00  0.00    -0.251 OA
ATOM      8  H2  UNL     1      70.585  33.464  -0.598  1.00  0.00     0.163 HD
ENDBRANCH   3   4
ENDBRANCH   2   3
BRANCH   2   9
HETATM    9  N5  UNL     1      71.041  35.982  -1.071  1.00  0.00    -0.389 N
ATOM     10  H5  UNL     1      70.718  35.111  -1.491  1.00  0.00     0.159 HD
BRANCH   9  11
HETATM   11  C14 UNL     1      71.136  37.051  -1.939  1.00  0.00    -0.018 C
HETATM   12  C15 UNL     1      72.529  37.656  -2.055  1.00  0.00     0.052 C
HETATM   13  C16 UNL     1      72.446  39.183  -2.076  1.00  0.00     0.006 C
HETATM   14  C17 UNL     1      71.316  39.672  -2.934  1.00  0.00     0.000 C
HETATM   15  C18 UNL     1      71.369  39.098  -4.310  1.00  0.00     0.000 C
HETATM   16  C19 UNL     1      71.092  37.636  -4.397  1.00  0.00     0.006 C
HETATM   17  C20 UNL     1      70.343  37.086  -3.198  1.00  0.00     0.052 C
ENDBRANCH   9  11
ENDBRANCH   2   9
ENDBRANCH   1   2
BRANCH   1  18
HETATM   18  N3  UNL     1      69.623  36.364   2.033  1.00  0.00    -0.357 N
HETATM   19  C5  UNL     1      68.240  36.575   2.210  1.00  0.00     0.248 C
HETATM   20  O2  UNL     1      67.624  37.273   1.375  1.00  0.00    -0.271 OA
ATOM     21  H3  UNL     1      70.144  35.798   2.703  1.00  0.00     0.162 HD
BRANCH  19  22
HETATM   22  C6  UNL     1      67.475  36.008   3.343  1.00  0.00     0.275 C
BRANCH  22  23
HETATM   23  N4  UNL     1      68.333  35.717   4.465  1.00  0.00    -0.066 N
ATOM     24  H43 UNL     1      68.191  34.766   4.807  1.00  0.00     0.275 HD
ATOM     25  H42 UNL     1      69.310  35.638   4.179  1.00  0.00     0.275 HD
ATOM     26  H41 UNL     1      68.217  36.404   5.211  1.00  0.00     0.275 HD
ENDBRANCH  22  23
BRANCH  22  27
HETATM   27  C7  UNL     1      66.559  34.904   2.946  1.00  0.00     0.047 C
BRANCH  27  28
HETATM   28  C8  UNL     1      65.212  34.884   3.568  1.00  0.00    -0.012 C
HETATM   29  C9  UNL     1      65.125  34.146   4.881  1.00  0.00     0.005 C
HETATM   30  C10 UNL     1      63.708  34.282   5.426  1.00  0.00     0.000 C
HETATM   31  C11 UNL     1      63.397  35.720   5.694  1.00  0.00     0.000 C
HETATM   32  C12 UNL     1      63.455  36.443   4.361  1.00  0.00     0.000 C
HETATM   33  C13 UNL     1      64.874  36.353   3.882  1.00  0.00     0.005 C
ENDBRANCH  27  28
ENDBRANCH  22  27
ENDBRANCH  19  22
ENDBRANCH   1  18
TORSDOF 10
ENDMDL