MODEL 3
REMARK VINA RESULT: -5.621826648      2.654      4.073
REMARK  7 active torsions:
REMARK  status: ('A' for Active; 'I' for Inactive)
REMARK    1  A    between atoms: C2_2  and  C3_3
REMARK    2  A    between atoms: C2_2  and  C6_13
REMARK    3  A    between atoms: C4_4  and  C5_5
REMARK    4  A    between atoms: C5_5  and  O1_6
REMARK    5  A    between atoms: O1_6  and  S1_7
REMARK    6  A    between atoms: S1_7  and  N1_8
REMARK    7  A    between atoms: C7_14  and  O4_15
ROOT
HETATM    1  C6  UNL     1       7.446  26.326  23.106  1.00  0.00     0.053 C
HETATM    2  C7  UNL     1       7.653  25.928  24.529  1.00  0.00     0.128 C
HETATM    3  C8  UNL     1       9.094  25.470  24.645  1.00  0.00     0.067 C
HETATM    4  C9  UNL     1       9.826  26.017  23.454  1.00  0.00     0.157 C
HETATM    5  O5  UNL     1      10.749  26.998  23.773  1.00  0.00    -0.348 OA
HETATM    6  C10 UNL     1      10.357  28.167  23.162  1.00  0.00     0.158 C
HETATM    7  C11 UNL     1      10.578  29.318  24.123  1.00  0.00     0.078 C
HETATM    8  C12 UNL     1      11.196  28.436  21.929  1.00  0.00     0.078 C
HETATM    9  O6  UNL     1       9.018  28.035  22.823  1.00  0.00    -0.348 OA
HETATM   10  C13 UNL     1       8.807  26.675  22.579  1.00  0.00     0.161 C
ENDROOT
BRANCH   1  11
HETATM   11  C2  UNL     1       6.790  25.202  22.331  1.00  0.00     0.013 C
HETATM   12  C1  UNL     1       6.163  24.183  23.267  1.00  0.00     0.015 C
BRANCH  11  13
HETATM   13  C3  UNL     1       5.728  25.661  21.437  1.00  0.00    -0.024 C
HETATM   14  C4  UNL     1       5.492  25.143  20.272  1.00  0.00    -0.003 C
BRANCH  14  15
HETATM   15  C5  UNL     1       6.212  24.032  19.634  1.00  0.00     0.219 C
BRANCH  15  16
HETATM   16  O1  UNL     1       6.228  24.246  18.251  1.00  0.00    -0.256 OA
BRANCH  16  17
HETATM   17  S1  UNL     1       7.747  23.822  17.648  1.00  0.00     0.355 S
HETATM   18  O2  UNL     1       8.029  24.595  16.390  1.00  0.00    -0.176 OA
HETATM   19  O3  UNL     1       7.788  22.345  17.291  1.00  0.00    -0.176 OA
BRANCH  17  20
HETATM   20  N1  UNL     1       8.983  24.207  18.803  1.00  0.00    -0.306 N
ATOM     21  H12 UNL     1       9.972  24.299  18.571  1.00  0.00     0.171 HD
ATOM     22  H11 UNL     1       8.577  24.325  19.731  1.00  0.00     0.171 HD
ENDBRANCH  17  20
ENDBRANCH  16  17
ENDBRANCH  15  16
ENDBRANCH  14  15
ENDBRANCH  11  13
ENDBRANCH   1  11
BRANCH   2  23
HETATM   23  O4  UNL     1       7.441  27.081  25.314  1.00  0.00    -0.395 OA
ATOM     24  H4  UNL     1       6.502  27.222  25.353  1.00  0.00     0.210 HD
ENDBRANCH   2  23
TORSDOF 7
ENDMDL