MODEL 1
REMARK VINA RESULT: -6.716594982      0.000      0.000
REMARK  8 active torsions:
REMARK  status: ('A' for Active; 'I' for Inactive)
REMARK    1  A    between atoms: N1_2  and  S1_4
REMARK    2  A    between atoms: S1_4  and  O3_7
REMARK    3  A    between atoms: O3_7  and  C2_8
REMARK    4  A    between atoms: C2_8  and  C3_9
REMARK    5  A    between atoms: C4_11  and  O5_12
REMARK    6  A    between atoms: O5_12  and  C5_13
REMARK    7  A    between atoms: C12_20  and  O6_21
REMARK    8  A    between atoms: C13_23  and  O7_24
ROOT
HETATM    1  C3  UNL     1       6.742  25.515  23.341  1.00  0.00     0.181 C
HETATM    2  O4  UNL     1       6.917  24.268  22.886  1.00  0.00    -0.348 OA
HETATM    3  C4  UNL     1       5.619  23.704  22.734  1.00  0.00     0.292 C
HETATM    4  C12 UNL     1       4.983  24.201  24.023  1.00  0.00     0.204 C
HETATM    5  C13 UNL     1       5.306  25.696  23.806  1.00  0.00     0.182 C
ENDROOT
BRANCH   1   6
HETATM    6  C2  UNL     1       7.608  25.953  24.500  1.00  0.00     0.226 C
BRANCH   6   7
HETATM    7  O3  UNL     1       8.242  27.154  24.184  1.00  0.00    -0.257 OA
BRANCH   7   8
HETATM    8  S1  UNL     1       9.795  26.884  23.622  1.00  0.00     0.357 S
HETATM    9  O1  UNL     1       9.593  26.884  22.082  1.00  0.00    -0.176 OA
HETATM   10  O2  UNL     1      10.432  25.636  23.986  1.00  0.00    -0.176 OA
BRANCH   8  11
HETATM   11  N1  UNL     1      10.818  28.255  23.915  1.00  0.00    -0.301 N
HETATM   12  C1  UNL     1      10.848  29.132  22.766  1.00  0.00     0.161 C
ATOM     13  H1  UNL     1      11.331  28.420  24.782  1.00  0.00     0.173 HD
ENDBRANCH   8  11
ENDBRANCH   7   8
ENDBRANCH   6   7
ENDBRANCH   1   6
BRANCH   5  14
HETATM   14  O7  UNL     1       5.183  26.448  24.939  1.00  0.00    -0.390 OA
ATOM     15  H7  UNL     1       4.306  26.783  25.085  1.00  0.00     0.210 HD
ENDBRANCH   5  14
BRANCH   3  16
HETATM   16  O5  UNL     1       4.986  24.371  21.718  1.00  0.00    -0.353 OA
BRANCH  16  17
HETATM   17  C5  UNL     1       5.162  23.846  20.464  1.00  0.00     0.129 C
HETATM   18  C6  UNL     1       6.440  23.045  20.427  1.00  0.00     0.037 C
HETATM   19  C7  UNL     1       7.457  23.836  19.638  1.00  0.00    -0.012 C
HETATM   20  C8  UNL     1       7.117  23.712  18.177  1.00  0.00     0.005 C
HETATM   21  C11 UNL     1       6.944  25.258  19.905  1.00  0.00     0.012 C
HETATM   22  C9  UNL     1       5.724  24.342  18.143  1.00  0.00     0.007 C
HETATM   23  C10 UNL     1       5.525  24.983  19.476  1.00  0.00     0.015 C
ENDBRANCH  16  17
ENDBRANCH   3  16
BRANCH   4  24
HETATM   24  O6  UNL     1       3.633  23.968  24.066  1.00  0.00    -0.388 OA
ATOM     25  H6  UNL     1       3.148  24.536  23.478  1.00  0.00     0.210 HD
ENDBRANCH   4  24
TORSDOF 8
ENDMDL