MODEL 1
REMARK VINA RESULT: -2.648377788      0.000      0.000
REMARK  8 active torsions:
REMARK  status: ('A' for Active; 'I' for Inactive)
REMARK    1  A    between atoms: O1_2  and  C2_3
REMARK    2  A    between atoms: C3_5  and  C4_6
REMARK    3  A    between atoms: C5_8  and  C6_9
REMARK    4  A    between atoms: C6_9  and  O4_10
REMARK    5  A    between atoms: C7_12  and  O5_13
REMARK    6  A    between atoms: C9_15  and  O6_16
REMARK    7  A    between atoms: C10_18  and  N1_19
REMARK       I    between atoms: N1_19  and  C11_21
REMARK    8  A    between atoms: C13_24  and  O8_25
ROOT
HETATM    1  C2  UNL     1       6.201  25.793  24.382  1.00  0.00     0.290 C
HETATM    2  O2  UNL     1       5.534  25.916  23.198  1.00  0.00    -0.348 OA
HETATM    3  C3  UNL     1       6.160  25.506  22.074  1.00  0.00     0.187 C
HETATM    4  C9  UNL     1       7.644  25.490  22.090  1.00  0.00     0.175 C
HETATM    5  C10 UNL     1       8.148  26.558  23.001  1.00  0.00     0.149 C
HETATM    6  C13 UNL     1       7.614  26.286  24.385  1.00  0.00     0.201 C
ENDROOT
BRANCH   3   7
HETATM    7  C4  UNL     1       5.698  24.119  21.606  1.00  0.00     0.185 C
HETATM    8  O3  UNL     1       4.441  23.816  22.143  1.00  0.00    -0.370 OA
HETATM    9  C5  UNL     1       4.148  23.134  20.988  1.00  0.00     0.177 C
HETATM   10  C7  UNL     1       5.095  24.087  20.251  1.00  0.00     0.183 C
BRANCH   9  11
HETATM   11  C6  UNL     1       2.722  23.241  20.503  1.00  0.00     0.198 C
BRANCH  11  12
HETATM   12  O4  UNL     1       1.842  22.668  21.422  1.00  0.00    -0.398 OA
ATOM     13  H4  UNL     1       1.492  21.850  21.088  1.00  0.00     0.209 HD
ENDBRANCH  11  12
ENDBRANCH   9  11
BRANCH  10  14
HETATM   14  O5  UNL     1       5.783  23.426  19.257  1.00  0.00    -0.385 OA
HETATM   15  C8  UNL     1       6.332  24.254  18.308  1.00  0.00     0.202 C
ENDBRANCH  10  14
ENDBRANCH   3   7
BRANCH   4  16
HETATM   16  O6  UNL     1       8.135  25.787  20.797  1.00  0.00    -0.391 OA
ATOM     17  H6  UNL     1       8.403  24.984  20.365  1.00  0.00     0.210 HD
ENDBRANCH   4  16
BRANCH   1  18
HETATM   18  O1  UNL     1       5.497  26.537  25.331  1.00  0.00    -0.363 OA
HETATM   19  C1  UNL     1       6.313  27.477  25.959  1.00  0.00     0.204 C
ENDBRANCH   1  18
BRANCH   5  20
HETATM   20  N1  UNL     1       9.594  26.486  23.004  1.00  0.00    -0.352 N
HETATM   21  C11 UNL     1      10.419  27.622  22.906  1.00  0.00     0.214 C
HETATM   22  C12 UNL     1      11.886  27.552  22.909  1.00  0.00     0.117 C
HETATM   23  O7  UNL     1       9.905  28.787  22.805  1.00  0.00    -0.274 OA
ATOM     24  H1  UNL     1      10.036  25.570  23.082  1.00  0.00     0.163 HD
ENDBRANCH   5  20
BRANCH   6  25
HETATM   25  O8  UNL     1       8.416  25.313  24.958  1.00  0.00    -0.384 OA
HETATM   26  C14 UNL     1       8.947  25.686  26.175  1.00  0.00     0.202 C
ENDBRANCH   6  25
TORSDOF 8
ENDMDL