MODEL 1
REMARK VINA RESULT: -2.736081812      0.000      0.000
REMARK  9 active torsions:
REMARK  status: ('A' for Active; 'I' for Inactive)
REMARK    1  A    between atoms: C3_4  and  N2_5
REMARK    2  A    between atoms: N2_5  and  N3_7
REMARK    3  A    between atoms: C4_12  and  O1_13
REMARK    4  A    between atoms: C5_15  and  O2_16
REMARK    5  A    between atoms: C6_18  and  O3_19
REMARK    6  A    between atoms: O3_19  and  C7_20
REMARK    7  A    between atoms: C10_23  and  O4_24
REMARK    8  A    between atoms: C10_23  and  C11_26
REMARK    9  A    between atoms: C11_26  and  N5_27
ROOT
HETATM    1  C1  UNL     1      10.070  29.781  23.332  1.00  0.00     0.221 C
HETATM    2  N1  UNL     1       9.392  28.835  23.345  1.00  0.00    -0.461 NA
HETATM    3  C2  UNL     1       8.561  27.703  23.372  1.00  0.00     0.219 C
HETATM    4  C3  UNL     1       9.105  26.607  24.258  1.00  0.00     0.170 C
HETATM    5  C4  UNL     1      10.211  26.040  23.407  1.00  0.00     0.176 C
HETATM    6  C5  UNL     1       9.616  26.022  22.018  1.00  0.00     0.181 C
HETATM    7  C6  UNL     1       8.517  27.055  22.008  1.00  0.00     0.191 C
ENDROOT
BRANCH   4   8
HETATM    8  N2  UNL     1       8.054  25.674  24.516  1.00  0.00    -0.312 N
ATOM      9  H2  UNL     1       8.292  24.685  24.598  1.00  0.00     0.182 HD
BRANCH   8  10
HETATM   10  N3  UNL     1       6.862  26.010  24.646  1.00  0.00    -0.253 N
HETATM   11  N4  UNL     1       5.650  26.015  24.453  1.00  0.00    -0.331 N
ATOM     12  H42 UNL     1       5.620  25.283  23.742  1.00  0.00     0.178 HD
ATOM     13  H41 UNL     1       4.674  26.290  24.558  1.00  0.00     0.178 HD
ATOM     14  H3  UNL     1       6.944  26.736  25.359  1.00  0.00     0.207 HD
ENDBRANCH   8  10
ENDBRANCH   4   8
BRANCH   7  15
HETATM   15  O3  UNL     1       7.319  26.403  21.767  1.00  0.00    -0.375 OA
BRANCH  15  16
HETATM   16  C7  UNL     1       7.451  25.265  20.996  1.00  0.00     0.125 C
HETATM   17  C8  UNL     1       6.910  25.387  19.617  1.00  0.00     0.035 C
HETATM   18  C9  UNL     1       6.022  24.175  19.373  1.00  0.00     0.042 C
HETATM   19  C10 UNL     1       5.721  23.609  20.741  1.00  0.00     0.086 C
HETATM   20  C14 UNL     1       6.871  24.039  21.627  1.00  0.00     0.071 C
BRANCH  19  21
HETATM   21  O4  UNL     1       5.595  22.226  20.720  1.00  0.00    -0.388 OA
ATOM     22  H4  UNL     1       4.864  21.925  21.247  1.00  0.00     0.210 HD
ENDBRANCH  19  21
BRANCH  19  23
HETATM   23  C11 UNL     1       4.457  24.212  21.306  1.00  0.00     0.308 C
BRANCH  23  24
HETATM   24  N5  UNL     1       3.661  23.278  22.071  1.00  0.00     0.082 N
HETATM   25  C12 UNL     1       2.409  23.093  21.325  1.00  0.00     0.309 C
HETATM   26  C13 UNL     1       3.283  23.825  23.367  1.00  0.00     0.309 C
ENDBRANCH  23  24
ENDBRANCH  19  23
ENDBRANCH  15  16
ENDBRANCH   7  15
BRANCH   5  27
HETATM   27  O1  UNL     1      11.337  26.833  23.470  1.00  0.00    -0.391 OA
ATOM     28  H1  UNL     1      12.107  26.352  23.190  1.00  0.00     0.210 HD
ENDBRANCH   5  27
BRANCH   6  29
HETATM   29  O2  UNL     1      10.602  26.249  21.075  1.00  0.00    -0.390 OA
ATOM     30  H2  UNL     1      10.212  26.377  20.219  1.00  0.00     0.210 HD
ENDBRANCH   6  29
TORSDOF 9
ENDMDL