MODEL 3
REMARK VINA RESULT: -4.797888674      2.537      4.009
REMARK  11 active torsions:
REMARK  status: ('A' for Active; 'I' for Inactive)
REMARK    1  A    between atoms: S1_2  and  O3_5
REMARK    2  A    between atoms: O3_5  and  C2_6
REMARK    3  A    between atoms: C2_6  and  C3_7
REMARK    4  A    between atoms: C5_10  and  C6_11
REMARK    5  A    between atoms: C6_11  and  C7_12
REMARK    6  A    between atoms: C8_13  and  C9_14
REMARK    7  A    between atoms: C10_15  and  C11_16
REMARK    8  A    between atoms: C11_16  and  C12_17
REMARK    9  A    between atoms: C12_17  and  O5_18
REMARK   10  A    between atoms: C13_20  and  O6_21
REMARK   11  A    between atoms: C14_23  and  O7_24
ROOT
HETATM    1  C3  UNL     1       5.979  24.245  21.057  1.00  0.00     0.066 C
HETATM    2  C4  UNL     1       7.136  25.222  21.108  1.00  0.00     0.177 C
HETATM    3  O4  UNL     1       7.093  25.992  22.280  1.00  0.00    -0.382 OA
HETATM    4  C5  UNL     1       7.137  25.176  23.412  1.00  0.00     0.156 C
HETATM    5  C13 UNL     1       5.882  24.352  23.495  1.00  0.00     0.176 C
HETATM    6  C14 UNL     1       5.068  24.533  22.226  1.00  0.00     0.157 C
ENDROOT
BRANCH   4   7
HETATM    7  C6  UNL     1       7.213  26.129  24.609  1.00  0.00     0.062 C
BRANCH   7   8
HETATM    8  C7  UNL     1       8.605  26.592  24.838  1.00  0.00    -0.015 C
HETATM    9  C8  UNL     1       9.337  26.994  23.819  1.00  0.00     0.060 C
BRANCH   9  10
HETATM   10  C9  UNL     1      10.677  27.431  24.093  1.00  0.00    -0.079 C
HETATM   11  C10 UNL     1      11.803  27.794  24.342  1.00  0.00    -0.100 C
BRANCH  11  12
HETATM   12  C11 UNL     1      13.162  28.228  24.669  1.00  0.00     0.120 C
BRANCH  12  13
HETATM   13  C12 UNL     1      13.121  29.334  25.733  1.00  0.00     0.176 C
BRANCH  13  14
HETATM   14  O5  UNL     1      12.093  30.198  25.451  1.00  0.00    -0.400 OA
ATOM     15  H5  UNL     1      12.219  30.564  24.583  1.00  0.00     0.209 HD
ENDBRANCH  13  14
ENDBRANCH  12  13
ENDBRANCH  11  12
ENDBRANCH   9  10
ENDBRANCH   7   8
ENDBRANCH   4   7
BRANCH   5  16
HETATM   16  O6  UNL     1       6.215  23.025  23.707  1.00  0.00    -0.390 OA
ATOM     17  H6  UNL     1       6.504  22.638  22.890  1.00  0.00     0.210 HD
ENDBRANCH   5  16
BRANCH   6  18
HETATM   18  O7  UNL     1       3.992  23.661  22.278  1.00  0.00    -0.392 OA
ATOM     19  H7  UNL     1       3.196  24.091  22.568  1.00  0.00     0.210 HD
ENDBRANCH   6  18
BRANCH   1  20
HETATM   20  C2  UNL     1       5.234  24.339  19.740  1.00  0.00     0.199 C
BRANCH  20  21
HETATM   21  O3  UNL     1       6.083  24.915  18.809  1.00  0.00    -0.275 OA
BRANCH  21  22
HETATM   22  S1  UNL     1       7.138  23.778  18.161  1.00  0.00     0.261 S
HETATM   23  C1  UNL     1       8.549  24.582  17.415  1.00  0.00     0.194 C
HETATM   24  O1  UNL     1       6.418  23.027  17.076  1.00  0.00    -0.199 OA
HETATM   25  O2  UNL     1       7.614  22.804  19.177  1.00  0.00    -0.199 OA
ENDBRANCH  21  22
ENDBRANCH  20  21
ENDBRANCH   1  20
TORSDOF 11
ENDMDL