MODEL 1
REMARK VINA RESULT: -5.798391917      0.000      0.000
REMARK  8 active torsions:
REMARK  status: ('A' for Active; 'I' for Inactive)
REMARK    1  A    between atoms: C2_2  and  C3_3
REMARK    2  A    between atoms: C3_3  and  N1_4
REMARK    3  A    between atoms: C7_10  and  C8_11
REMARK    4  A    between atoms: C8_11  and  O2_12
REMARK    5  A    between atoms: C9_14  and  O3_15
REMARK    6  A    between atoms: C10_17  and  O4_18
REMARK    7  A    between atoms: C12_21  and  O5_22
REMARK    8  A    between atoms: O5_22  and  C13_23
ROOT
HETATM    1  N1  UNL     1      10.700  27.825  23.835  1.00  0.00    -0.387 N
HETATM    2  C4  UNL     1      10.200  28.374  22.627  1.00  0.00     0.142 C
HETATM    3  C5  UNL     1      10.099  27.215  21.623  1.00  0.00     0.145 C
HETATM    4  N2  UNL     1       9.168  26.322  22.063  1.00  0.00    -0.356 N
HETATM    5  C6  UNL     1       7.923  26.068  21.718  1.00  0.00     0.158 C
HETATM    6  O1  UNL     1       7.209  25.312  22.657  1.00  0.00    -0.326 OA
HETATM    7  C7  UNL     1       5.926  25.552  22.911  1.00  0.00     0.186 C
HETATM    8  C9  UNL     1       4.848  24.593  22.370  1.00  0.00     0.189 C
HETATM    9  C10 UNL     1       4.991  24.434  20.822  1.00  0.00     0.218 C
HETATM   10  C11 UNL     1       6.226  24.989  20.428  1.00  0.00    -0.109 C
HETATM   11  C12 UNL     1       7.535  25.548  20.299  1.00  0.00     0.264 C
HETATM   12  C15 UNL     1       9.597  25.676  23.273  1.00  0.00     0.169 C
HETATM   13  C16 UNL     1      10.206  26.596  24.282  1.00  0.00     0.078 C
ENDROOT
BRANCH  11  14
HETATM   14  O5  UNL     1       8.507  24.682  19.791  1.00  0.00    -0.367 OA
BRANCH  14  15
HETATM   15  C13 UNL     1       8.043  23.773  18.884  1.00  0.00     0.165 C
HETATM   16  C14 UNL     1       8.279  24.186  17.440  1.00  0.00     0.033 C
ENDBRANCH  14  15
ENDBRANCH  11  14
BRANCH   7  17
HETATM   17  C8  UNL     1       5.741  25.420  24.440  1.00  0.00     0.199 C
BRANCH  17  18
HETATM   18  O2  UNL     1       4.400  25.336  24.771  1.00  0.00    -0.398 OA
ATOM     19  H2  UNL     1       4.257  25.589  25.675  1.00  0.00     0.209 HD
ENDBRANCH  17  18
ENDBRANCH   7  17
BRANCH   8  20
HETATM   20  O3  UNL     1       5.043  23.385  23.011  1.00  0.00    -0.389 OA
ATOM     21  H3  UNL     1       5.413  22.795  22.365  1.00  0.00     0.210 HD
ENDBRANCH   8  20
BRANCH   9  22
HETATM   22  O4  UNL     1       4.787  23.041  20.614  1.00  0.00    -0.381 OA
ATOM     23  H4  UNL     1       5.411  22.828  19.931  1.00  0.00     0.211 HD
ENDBRANCH   9  22
BRANCH   1  24
HETATM   24  C3  UNL     1      11.959  28.276  24.284  1.00  0.00     0.148 C
BRANCH  24  25
HETATM   25  C2  UNL     1      11.979  29.596  24.919  1.00  0.00    -0.018 C
HETATM   26  C1  UNL     1      12.786  29.826  25.949  1.00  0.00     0.008 C
ENDBRANCH  24  25
ENDBRANCH   1  24
TORSDOF 8
ENDMDL