MODEL 1
REMARK VINA RESULT: -6.724982437      0.000      0.000
REMARK  10 active torsions:
REMARK  status: ('A' for Active; 'I' for Inactive)
REMARK    1  A    between atoms: O1_2  and  C2_3
REMARK    2  A    between atoms: C5_6  and  O2_7
REMARK    3  A    between atoms: C6_9  and  N1_10
REMARK    4  A    between atoms: N1_10  and  C8_12
REMARK    5  A    between atoms: C8_12  and  O3_13
REMARK    6  A    between atoms: O3_13  and  C9_14
REMARK    7  A    between atoms: C9_14  and  C10_15
REMARK    8  A    between atoms: C10_15  and  O4_16
REMARK    9  A    between atoms: C15_23  and  C16_24
REMARK   10  A    between atoms: C16_24  and  O5_25
ROOT
HETATM    1  C2  UNL     1       6.322  24.783  19.392  1.00  0.00     0.158 C
HETATM    2  C3  UNL     1       7.771  25.070  19.720  1.00  0.00     0.073 C
HETATM    3  C4  UNL     1       7.884  25.080  21.228  1.00  0.00     0.256 C
HETATM    4  C5  UNL     1       8.627  26.328  21.605  1.00  0.00     0.185 C
HETATM    5  C6  UNL     1       9.146  26.354  23.009  1.00  0.00     0.255 C
HETATM    6  C11 UNL     1       8.186  26.803  24.037  1.00  0.00     0.038 C
HETATM    7  C12 UNL     1       6.736  26.620  23.698  1.00  0.00     0.004 C
HETATM    8  C13 UNL     1       6.286  25.230  24.095  1.00  0.00     0.030 C
HETATM    9  C14 UNL     1       6.462  24.237  22.937  1.00  0.00     0.273 C
HETATM   10  N2  UNL     1       6.551  25.003  21.746  1.00  0.00     0.105 N
HETATM   11  C15 UNL     1       5.628  24.755  20.710  1.00  0.00     0.275 C
ENDROOT
BRANCH   5  12
HETATM   12  N1  UNL     1      10.369  27.128  23.001  1.00  0.00     0.114 N
HETATM   13  C7  UNL     1      10.126  28.527  22.705  1.00  0.00     0.313 C
BRANCH  12  14
HETATM   14  C8  UNL     1      11.090  27.096  24.258  1.00  0.00     0.440 C
BRANCH  14  15
HETATM   15  O3  UNL     1      12.393  27.448  24.143  1.00  0.00    -0.360 OA
BRANCH  15  16
HETATM   16  C9  UNL     1      12.928  28.302  25.033  1.00  0.00     0.196 C
BRANCH  16  17
HETATM   17  C10 UNL     1      12.339  29.661  25.180  1.00  0.00     0.190 C
BRANCH  17  18
HETATM   18  O4  UNL     1      12.412  30.248  26.409  1.00  0.00    -0.399 OA
ATOM     19  H4  UNL     1      11.622  30.652  26.749  1.00  0.00     0.209 HD
ENDBRANCH  17  18
ENDBRANCH  16  17
ENDBRANCH  15  16
ENDBRANCH  14  15
ENDBRANCH  12  14
ENDBRANCH   5  12
BRANCH   4  20
HETATM   20  O2  UNL     1       9.748  26.378  20.744  1.00  0.00    -0.391 OA
ATOM     21  H2  UNL     1       9.826  27.287  20.479  1.00  0.00     0.210 HD
ENDBRANCH   4  20
BRANCH   1  22
HETATM   22  O1  UNL     1       6.299  23.605  18.687  1.00  0.00    -0.388 OA
HETATM   23  C1  UNL     1       7.266  23.617  17.697  1.00  0.00     0.202 C
ENDBRANCH   1  22
BRANCH  11  24
HETATM   24  C16 UNL     1       4.780  23.539  20.883  1.00  0.00     0.202 C
BRANCH  24  25
HETATM   25  O5  UNL     1       5.543  22.389  20.696  1.00  0.00    -0.399 OA
ATOM     26  H5  UNL     1       5.301  21.727  21.334  1.00  0.00     0.209 HD
ENDBRANCH  24  25
ENDBRANCH  11  24
TORSDOF 10
ENDMDL