MODEL 4
REMARK VINA RESULT: -5.894302536      1.699      2.130
REMARK  8 active torsions:
REMARK  status: ('A' for Active; 'I' for Inactive)
REMARK    1  A    between atoms: C1_2  and  C2_4
REMARK    2  A    between atoms: C2_4  and  C3_5
REMARK    3  A    between atoms: C3_5  and  N2_6
REMARK       I    between atoms: N2_6  and  C4_8
REMARK    4  A    between atoms: C4_8  and  C5_10
REMARK    5  A    between atoms: C5_10  and  C6_11
REMARK    6  A    between atoms: C6_11  and  C7_12
REMARK    7  A    between atoms: C10_15  and  O3_16
REMARK    8  A    between atoms: O3_16  and  C11_17
ROOT
HETATM    1  C7  UNL     1       7.186  25.764  20.964  1.00  0.00    -0.009 C
HETATM    2  C8  UNL     1       7.483  24.507  20.234  1.00  0.00     0.007 C
HETATM    3  C9  UNL     1       6.409  23.498  20.180  1.00  0.00     0.038 C
HETATM    4  C10 UNL     1       5.096  24.020  20.729  1.00  0.00     0.195 C
HETATM    5  C12 UNL     1       5.418  24.440  22.172  1.00  0.00     0.191 C
HETATM    6  C13 UNL     1       6.219  25.691  22.072  1.00  0.00     0.076 C
HETATM    7  O5  UNL     1       4.232  24.703  22.831  1.00  0.00    -0.351 OA
HETATM    8  C14 UNL     1       4.602  24.623  24.190  1.00  0.00     0.198 C
HETATM    9  C15 UNL     1       5.569  23.479  24.180  1.00  0.00     0.198 C
HETATM   10  O6  UNL     1       6.057  23.426  22.866  1.00  0.00    -0.351 OA
ENDROOT
BRANCH   1  11
HETATM   11  C6  UNL     1       8.489  26.386  21.471  1.00  0.00     0.014 C
BRANCH  11  12
HETATM   12  C5  UNL     1       8.435  26.327  22.967  1.00  0.00     0.103 C
BRANCH  12  13
HETATM   13  C4  UNL     1       9.753  26.576  23.615  1.00  0.00     0.217 C
HETATM   14  N2  UNL     1      10.343  27.835  23.442  1.00  0.00    -0.361 N
ATOM     15  H2  UNL     1       9.865  28.541  22.882  1.00  0.00     0.162 HD
HETATM   16  O2  UNL     1      10.224  25.618  24.268  1.00  0.00    -0.274 OA
BRANCH  14  17
HETATM   17  C3  UNL     1      11.608  28.145  24.040  1.00  0.00     0.131 C
BRANCH  17  18
HETATM   18  C2  UNL     1      11.723  29.587  24.388  1.00  0.00     0.119 C
BRANCH  18  19
HETATM   19  C1  UNL     1      12.514  29.700  25.661  1.00  0.00     0.232 C
HETATM   20  N1  UNL     1      13.730  28.989  25.778  1.00  0.00    -0.062 NA
HETATM   21  O1  UNL     1      12.109  30.409  26.603  1.00  0.00    -0.277 OA
ENDBRANCH  18  19
ENDBRANCH  17  18
ENDBRANCH  14  17
ENDBRANCH  12  13
ENDBRANCH  11  12
ENDBRANCH   1  11
BRANCH   4  22
HETATM   22  O3  UNL     1       4.147  22.988  20.705  1.00  0.00    -0.295 OA
BRANCH  22  23
HETATM   23  C11 UNL     1       2.787  23.292  20.756  1.00  0.00     0.373 C
HETATM   24  N3  UNL     1       2.019  22.669  21.776  1.00  0.00    -0.032 NA
HETATM   25  O4  UNL     1       2.237  24.078  19.949  1.00  0.00    -0.242 OA
ENDBRANCH  22  23
ENDBRANCH   4  22
TORSDOF 8
ENDMDL