MODEL 2
REMARK VINA RESULT: -5.721582538      1.622      2.692
REMARK  9 active torsions:
REMARK  status: ('A' for Active; 'I' for Inactive)
REMARK    1  A    between atoms: O1_2  and  C2_3
REMARK    2  A    between atoms: N1_5  and  C4_6
REMARK    3  A    between atoms: C4_6  and  C5_7
REMARK    4  A    between atoms: N2_12  and  C10_13
REMARK    5  A    between atoms: C10_13  and  C11_14
REMARK    6  A    between atoms: C11_14  and  C12_15
REMARK    7  A    between atoms: C14_18  and  O3_19
REMARK    8  A    between atoms: C15_21  and  O4_22
REMARK    9  A    between atoms: C16_24  and  O5_25
ROOT
HETATM    1  C10 UNL     1       8.314  26.038  24.433  1.00  0.00     0.122 C
ENDROOT
BRANCH   1   2
HETATM    2  N2  UNL     1       7.428  25.777  23.366  1.00  0.00    -0.384 N
HETATM    3  C2  UNL     1       6.523  24.703  23.551  1.00  0.00     0.246 C
HETATM    4  C3  UNL     1       6.278  23.938  22.243  1.00  0.00     0.325 C
HETATM    5  N1  UNL     1       5.888  24.855  21.191  1.00  0.00     0.094 N
HETATM    6  C8  UNL     1       6.777  25.953  21.039  1.00  0.00     0.292 C
HETATM    7  C9  UNL     1       7.874  26.039  22.049  1.00  0.00     0.149 C
BRANCH   3   8
HETATM    8  O1  UNL     1       5.331  25.014  24.148  1.00  0.00    -0.370 OA
HETATM    9  C1  UNL     1       4.307  24.130  23.922  1.00  0.00     0.204 C
ENDBRANCH   3   8
BRANCH   5  10
HETATM   10  C4  UNL     1       5.662  24.099  19.989  1.00  0.00     0.276 C
BRANCH  10  11
HETATM   11  C5  UNL     1       6.545  24.522  18.847  1.00  0.00     0.006 C
HETATM   12  C6  UNL     1       6.026  23.926  17.546  1.00  0.00     0.011 C
HETATM   13  C7  UNL     1       7.921  23.887  19.068  1.00  0.00     0.011 C
ENDBRANCH  10  11
ENDBRANCH   5  10
ENDBRANCH   1   2
BRANCH   1  14
HETATM   14  C11 UNL     1       9.214  27.206  24.257  1.00  0.00     0.054 C
BRANCH  14  15
HETATM   15  C12 UNL     1      10.537  26.889  23.641  1.00  0.00     0.154 C
HETATM   16  O2  UNL     1      11.546  27.194  24.554  1.00  0.00    -0.381 OA
HETATM   17  C13 UNL     1      11.611  28.532  24.859  1.00  0.00     0.202 C
HETATM   18  C14 UNL     1      11.696  29.456  23.689  1.00  0.00     0.173 C
HETATM   19  C15 UNL     1      10.705  29.103  22.575  1.00  0.00     0.180 C
HETATM   20  C16 UNL     1      10.847  27.608  22.371  1.00  0.00     0.178 C
BRANCH  18  21
HETATM   21  O3  UNL     1      11.467  30.754  24.104  1.00  0.00    -0.391 OA
ATOM     22  H3  UNL     1      11.555  31.346  23.366  1.00  0.00     0.210 HD
ENDBRANCH  18  21
BRANCH  19  23
HETATM   23  O4  UNL     1      11.114  29.728  21.406  1.00  0.00    -0.390 OA
ATOM     24  H4  UNL     1      11.632  29.113  20.900  1.00  0.00     0.210 HD
ENDBRANCH  19  23
BRANCH  20  25
HETATM   25  O5  UNL     1      10.218  27.133  21.248  1.00  0.00    -0.390 OA
ATOM     26  H5  UNL     1      10.786  26.901  20.523  1.00  0.00     0.210 HD
ENDBRANCH  20  25
ENDBRANCH  14  15
ENDBRANCH   1  14
TORSDOF 9
ENDMDL