MODEL 4
REMARK VINA RESULT: -5.726878042      2.382      3.544
REMARK  9 active torsions:
REMARK  status: ('A' for Active; 'I' for Inactive)
REMARK    1  A    between atoms: C2_2  and  N1_3
REMARK    2  A    between atoms: C3_4  and  N2_5
REMARK    3  A    between atoms: N2_5  and  C4_7
REMARK    4  A    between atoms: C4_7  and  C5_8
REMARK    5  A    between atoms: C5_8  and  C6_9
REMARK    6  A    between atoms: C6_9  and  N3_10
REMARK    7  A    between atoms: N3_10  and  N4_12
REMARK    8  A    between atoms: N4_12  and  C7_14
REMARK    9  A    between atoms: C8_17  and  N6_18
ROOT
HETATM    1  N3  UNL     1      37.274  11.508  19.653  1.00  0.00    -0.322 N
ATOM      2  H3  UNL     1      37.373  11.805  20.624  1.00  0.00     0.180 HD
ENDROOT
BRANCH   1   3
HETATM    3  C6  UNL     1      38.445  11.059  18.957  1.00  0.00     0.141 C
BRANCH   3   4
HETATM    4  C5  UNL     1      38.842  12.155  17.984  1.00  0.00     0.041 C
BRANCH   4   5
HETATM    5  C4  UNL     1      39.996  12.908  18.596  1.00  0.00     0.123 C
BRANCH   5   6
HETATM    6  N2  UNL     1      40.664  13.760  17.652  1.00  0.00    -0.375 N
ATOM      7  H2  UNL     1      40.109  14.347  17.028  1.00  0.00     0.161 HD
BRANCH   6   8
HETATM    8  C3  UNL     1      41.949  13.796  17.578  1.00  0.00     0.124 A
HETATM    9  N1  UNL     1      42.624  14.932  17.320  1.00  0.00    -0.284 N
HETATM   10  C11 UNL     1      43.958  14.866  17.264  1.00  0.00     0.342 A
HETATM   11  N10 UNL     1      44.656  13.737  17.451  1.00  0.00    -0.252 N
HETATM   12  O2  UNL     1      44.574  15.916  17.025  1.00  0.00    -0.245 OA
HETATM   13  N9  UNL     1      44.026  12.605  17.708  1.00  0.00    -0.304 N
ATOM     14  H10 UNL     1      45.673  13.752  17.395  1.00  0.00     0.191 HD
HETATM   15  C10 UNL     1      42.670  12.616  17.775  1.00  0.00     0.155 A
ATOM     16  H9  UNL     1      44.547  11.740  17.854  1.00  0.00     0.186 HD
BRANCH   9  17
HETATM   17  C2  UNL     1      41.850  16.125  17.123  1.00  0.00     0.131 C
HETATM   18  C1  UNL     1      41.608  16.496  15.707  1.00  0.00     0.027 C
ENDBRANCH   9  17
ENDBRANCH   6   8
ENDBRANCH   5   6
ENDBRANCH   4   5
ENDBRANCH   3   4
ENDBRANCH   1   3
BRANCH   1  19
HETATM   19  N4  UNL     1      36.003  11.561  19.071  1.00  0.00    -0.136 N
ATOM     20  H4  UNL     1      35.931  11.574  18.054  1.00  0.00     0.205 HD
BRANCH  19  21
HETATM   21  C7  UNL     1      34.919  11.594  19.768  1.00  0.00     0.715 A
HETATM   22  N5  UNL     1      33.947  10.717  19.459  1.00  0.00    -0.021 N
HETATM   23  C8  UNL     1      32.771  10.694  20.153  1.00  0.00     0.694 A
ATOM     24  H5  UNL     1      34.090  10.059  18.693  1.00  0.00     0.203 HD
HETATM   25  N7  UNL     1      32.580  11.560  21.162  1.00  0.00    -0.141 N
HETATM   26  C9  UNL     1      33.537  12.446  21.489  1.00  0.00     0.352 A
ATOM     27  H7  UNL     1      31.703  11.545  21.684  1.00  0.00     0.189 HD
HETATM   28  O1  UNL     1      33.339  13.250  22.438  1.00  0.00    -0.246 OA
HETATM   29  N8  UNL     1      34.702  12.448  20.780  1.00  0.00    -0.139 N
ATOM     30  H8  UNL     1      35.430  13.118  21.026  1.00  0.00     0.189 HD
BRANCH  23  31
HETATM   31  N6  UNL     1      31.859   9.858  19.850  1.00  0.00    -0.234 N
ATOM     32  H62 UNL     1      31.357   9.362  20.586  1.00  0.00     0.174 HD
ATOM     33  H61 UNL     1      31.626   9.678  18.873  1.00  0.00     0.174 HD
ENDBRANCH  23  31
ENDBRANCH  19  21
ENDBRANCH   1  19
TORSDOF 9
ENDMDL