MODEL 1
REMARK VINA RESULT: -4.675324880      0.000      0.000
REMARK  11 active torsions:
REMARK  status: ('A' for Active; 'I' for Inactive)
REMARK    1  A    between atoms: N1_2  and  C2_4
REMARK    2  A    between atoms: N3_8  and  C4_10
REMARK    3  A    between atoms: C4_10  and  C5_11
REMARK    4  A    between atoms: C5_11  and  O1_12
REMARK    5  A    between atoms: O1_12  and  C6_13
REMARK    6  A    between atoms: C6_13  and  C7_14
REMARK    7  A    between atoms: C7_14  and  O2_15
REMARK    8  A    between atoms: C9_18  and  N4_19
REMARK    9  A    between atoms: N7_28  and  C12_29
REMARK   10  A    between atoms: C12_29  and  C13_30
REMARK   11  A    between atoms: C13_30  and  O3_31
ROOT
HETATM    1  C2  UNL     1      42.164  15.190  17.246  1.00  0.00     0.683 A
HETATM    2  N2  UNL     1      41.185  14.286  17.405  1.00  0.00    -0.176 N
ATOM      3  H2  UNL     1      40.225  14.554  17.191  1.00  0.00     0.186 HD
HETATM    4  C3  UNL     1      41.437  13.023  17.844  1.00  0.00     0.134 A
HETATM    5  N3  UNL     1      40.493  12.158  17.995  1.00  0.00    -0.373 N
ATOM      6  H3  UNL     1      40.735  11.225  18.327  1.00  0.00     0.161 HD
HETATM    7  C8  UNL     1      42.727  12.673  18.127  1.00  0.00     0.097 A
HETATM    8  C9  UNL     1      43.002  11.409  18.569  1.00  0.00     0.117 A
HETATM    9  N5  UNL     1      44.272  11.073  18.846  1.00  0.00    -0.338 N
ATOM     10  H5  UNL     1      44.495  10.134  19.177  1.00  0.00     0.168 HD
HETATM   11  C10 UNL     1      45.249  11.986  18.682  1.00  0.00     0.183 A
HETATM   12  N6  UNL     1      44.989  13.232  18.249  1.00  0.00    -0.337 N
ATOM     13  H6  UNL     1      45.758  13.893  18.141  1.00  0.00     0.168 HD
HETATM   14  C11 UNL     1      43.733  13.630  17.954  1.00  0.00     0.142 A
HETATM   15  N7  UNL     1      43.442  14.870  17.517  1.00  0.00    -0.165 N
ENDROOT
BRANCH   5  16
HETATM   16  C4  UNL     1      39.106  12.453  17.716  1.00  0.00     0.147 C
BRANCH  16  17
HETATM   17  C5  UNL     1      38.237  11.507  18.520  1.00  0.00     0.187 C
BRANCH  17  18
HETATM   18  O1  UNL     1      38.826  10.257  18.657  1.00  0.00    -0.387 OA
BRANCH  18  19
HETATM   19  C6  UNL     1      38.670   9.844  19.968  1.00  0.00     0.193 C
BRANCH  19  20
HETATM   20  C7  UNL     1      39.206   8.451  20.202  1.00  0.00     0.190 C
BRANCH  20  21
HETATM   21  O2  UNL     1      40.285   8.246  19.346  1.00  0.00    -0.399 OA
ATOM     22  H2  UNL     1      40.586   7.351  19.453  1.00  0.00     0.209 HD
ENDBRANCH  20  21
ENDBRANCH  19  20
ENDBRANCH  18  19
ENDBRANCH  17  18
ENDBRANCH  16  17
ENDBRANCH   5  16
BRANCH   1  23
HETATM   23  N1  UNL     1      41.864  16.364  16.829  1.00  0.00    -0.230 N
HETATM   24  C1  UNL     1      41.483  16.708  15.502  1.00  0.00     0.165 C
ATOM     25  H1  UNL     1      41.902  17.121  17.511  1.00  0.00     0.177 HD
ENDBRANCH   1  23
BRANCH   8  26
HETATM   26  N4  UNL     1      42.018  10.579  18.705  1.00  0.00    -0.385 N
ATOM     27  H42 UNL     1      41.080  10.880  18.967  1.00  0.00     0.157 HD
ATOM     28  H41 UNL     1      42.196   9.587  18.541  1.00  0.00     0.157 HD
ENDBRANCH   8  26
BRANCH  15  29
HETATM   29  C12 UNL     1      44.519  15.798  17.363  1.00  0.00     0.175 C
BRANCH  29  30
HETATM   30  C13 UNL     1      45.085  15.861  15.972  1.00  0.00     0.185 C
BRANCH  30  31
HETATM   31  O3  UNL     1      45.884  14.796  15.640  1.00  0.00    -0.399 OA
ATOM     32  H3  UNL     1      46.738  15.039  15.305  1.00  0.00     0.209 HD
ENDBRANCH  30  31
ENDBRANCH  29  30
ENDBRANCH  15  29
TORSDOF 11
ENDMDL