MODEL 5
REMARK VINA RESULT: -4.974597819      4.446      6.765
REMARK  8 active torsions:
REMARK  status: ('A' for Active; 'I' for Inactive)
REMARK    1  A    between atoms: C2_3  and  N2_4
REMARK    2  A    between atoms: N2_4  and  S1_6
REMARK    3  A    between atoms: S1_6  and  N3_9
REMARK    4  A    between atoms: N3_9  and  C3_11
REMARK    5  A    between atoms: C6_19  and  N6_20
REMARK    6  A    between atoms: N8_26  and  C8_27
REMARK    7  A    between atoms: C8_27  and  C9_28
REMARK    8  A    between atoms: C9_28  and  O4_29
ROOT
HETATM    1  N1  UNL     1      42.222   9.655  17.901  1.00  0.00    -0.196 NA
HETATM    2  C1  UNL     1      42.596  10.756  17.908  1.00  0.00     0.079 C
HETATM    3  C2  UNL     1      43.043  12.149  17.906  1.00  0.00     0.257 C
ENDROOT
BRANCH   3   4
HETATM    4  N2  UNL     1      44.421  12.271  17.538  1.00  0.00    -0.289 N
ATOM      5  H2  UNL     1      44.963  11.510  17.130  1.00  0.00     0.174 HD
BRANCH   4   6
HETATM    6  S1  UNL     1      45.068  13.820  17.850  1.00  0.00     0.333 S
HETATM    7  O1  UNL     1      46.297  13.681  18.739  1.00  0.00    -0.182 OA
HETATM    8  O2  UNL     1      44.024  14.610  18.624  1.00  0.00    -0.182 OA
BRANCH   6   9
HETATM    9  N3  UNL     1      45.497  14.663  16.414  1.00  0.00    -0.099 N
ATOM     10  H3  UNL     1      46.129  14.236  15.738  1.00  0.00     0.199 HD
BRANCH   9  11
HETATM   11  C3  UNL     1      44.969  15.953  16.175  1.00  0.00     0.697 A
HETATM   12  N4  UNL     1      43.667  16.257  16.029  1.00  0.00    -0.181 N
HETATM   13  C4  UNL     1      43.530  17.561  15.816  1.00  0.00     0.162 A
ATOM     14  H4  UNL     1      42.900  15.587  16.075  1.00  0.00     0.184 HD
HETATM   15  C5  UNL     1      42.468  18.416  15.604  1.00  0.00     0.290 A
HETATM   16  C7  UNL     1      44.829  18.083  15.833  1.00  0.00     0.172 A
HETATM   17  O3  UNL     1      41.310  17.906  15.596  1.00  0.00    -0.265 OA
HETATM   18  N5  UNL     1      42.679  19.708  15.419  1.00  0.00    -0.154 N
HETATM   19  C6  UNL     1      43.929  20.197  15.438  1.00  0.00     0.680 A
ATOM     20  H5  UNL     1      41.889  20.334  15.262  1.00  0.00     0.187 HD
HETATM   21  N7  UNL     1      45.007  19.398  15.643  1.00  0.00    -0.174 N
ATOM     22  H7  UNL     1      45.947  19.795  15.653  1.00  0.00     0.186 HD
HETATM   23  N8  UNL     1      45.690  17.085  16.054  1.00  0.00    -0.162 N
BRANCH  19  24
HETATM   24  N6  UNL     1      44.103  21.450  15.258  1.00  0.00    -0.234 N
ATOM     25  H62 UNL     1      43.290  22.063  15.192  1.00  0.00     0.174 HD
ATOM     26  H61 UNL     1      45.055  21.808  15.183  1.00  0.00     0.174 HD
ENDBRANCH  19  24
BRANCH  23  27
HETATM   27  C8  UNL     1      47.122  17.171  16.149  1.00  0.00     0.175 C
BRANCH  27  28
HETATM   28  C9  UNL     1      47.809  17.052  14.812  1.00  0.00     0.185 C
BRANCH  28  29
HETATM   29  O4  UNL     1      47.792  18.344  14.244  1.00  0.00    -0.399 OA
ATOM     30  H4  UNL     1      48.687  18.530  13.982  1.00  0.00     0.209 HD
ENDBRANCH  28  29
ENDBRANCH  27  28
ENDBRANCH  23  27
ENDBRANCH   9  11
ENDBRANCH   6   9
ENDBRANCH   4   6
ENDBRANCH   3   4
TORSDOF 8
ENDMDL