MODEL 3
REMARK VINA RESULT: -5.025404821      1.837      2.325
REMARK  9 active torsions:
REMARK  status: ('A' for Active; 'I' for Inactive)
REMARK    1  A    between atoms: C3_4  and  N2_5
REMARK    2  A    between atoms: N2_5  and  C4_6
REMARK    3  A    between atoms: N2_5  and  C6_10
REMARK    4  A    between atoms: C4_6  and  C5_7
REMARK    5  A    between atoms: C5_7  and  O1_8
REMARK    6  A    between atoms: C6_10  and  C7_11
REMARK    7  A    between atoms: C7_11  and  N3_12
REMARK    8  A    between atoms: N3_12  and  C8_14
REMARK    9  A    between atoms: C11_26  and  N8_27
ROOT
HETATM    1  N1  UNL     1      45.952  15.488  15.749  1.00  0.00    -0.191 NA
HETATM    2  C1  UNL     1      45.655  16.605  15.705  1.00  0.00     0.109 C
HETATM    3  C2  UNL     1      45.280  17.973  15.651  1.00  0.00     0.157 A
HETATM    4  C3  UNL     1      44.143  18.403  16.234  1.00  0.00     0.145 A
HETATM    5  N7  UNL     1      43.834  19.731  16.175  1.00  0.00    -0.175 N
ATOM      6  H7  UNL     1      42.978  20.073  16.612  1.00  0.00     0.186 HD
HETATM    7  C11 UNL     1      44.651  20.592  15.544  1.00  0.00     0.680 A
HETATM    8  N9  UNL     1      45.785  20.156  14.962  1.00  0.00    -0.155 N
ATOM      9  H9  UNL     1      46.391  20.825  14.488  1.00  0.00     0.187 HD
HETATM   10  C12 UNL     1      46.134  18.869  14.991  1.00  0.00     0.284 A
HETATM   11  O3  UNL     1      47.167  18.445  14.465  1.00  0.00    -0.266 OA
ENDROOT
BRANCH   4  12
HETATM   12  N2  UNL     1      43.236  17.549  16.897  1.00  0.00    -0.362 N
BRANCH  12  13
HETATM   13  C4  UNL     1      41.974  17.263  16.278  1.00  0.00     0.150 C
BRANCH  13  14
HETATM   14  C5  UNL     1      41.950  16.400  15.090  1.00  0.00     0.183 C
BRANCH  14  15
HETATM   15  O1  UNL     1      42.754  15.301  15.046  1.00  0.00    -0.399 OA
ATOM     16  H1  UNL     1      42.427  14.499  14.655  1.00  0.00     0.209 HD
ENDBRANCH  14  15
ENDBRANCH  13  14
ENDBRANCH  12  13
BRANCH  12  17
HETATM   17  C6  UNL     1      43.657  17.053  18.168  1.00  0.00     0.144 C
BRANCH  17  18
HETATM   18  C7  UNL     1      43.153  15.681  18.511  1.00  0.00     0.141 C
BRANCH  18  19
HETATM   19  N3  UNL     1      43.894  14.614  17.905  1.00  0.00    -0.373 N
ATOM     20  H3  UNL     1      44.807  14.829  17.505  1.00  0.00     0.161 HD
BRANCH  19  21
HETATM   21  C8  UNL     1      43.479  13.421  17.838  1.00  0.00     0.122 A
HETATM   22  C9  UNL     1      42.095  13.230  17.941  1.00  0.00     0.155 A
HETATM   23  N4  UNL     1      41.636  11.986  17.871  1.00  0.00    -0.304 N
HETATM   24  N5  UNL     1      42.433  10.933  17.709  1.00  0.00    -0.252 N
ATOM     25  H4  UNL     1      40.631  11.830  17.945  1.00  0.00     0.186 HD
HETATM   26  C10 UNL     1      43.762  11.114  17.610  1.00  0.00     0.340 A
ATOM     27  H5  UNL     1      42.039   9.993  17.662  1.00  0.00     0.191 HD
HETATM   28  O2  UNL     1      44.566  10.144  17.454  1.00  0.00    -0.245 OA
HETATM   29  N6  UNL     1      44.280  12.362  17.675  1.00  0.00    -0.292 N
ATOM     30  H6  UNL     1      45.288  12.496  17.600  1.00  0.00     0.172 HD
ENDBRANCH  19  21
ENDBRANCH  18  19
ENDBRANCH  17  18
ENDBRANCH  12  17
ENDBRANCH   4  12
BRANCH   7  31
HETATM   31  N8  UNL     1      44.333  21.861  15.507  1.00  0.00    -0.234 N
ATOM     32  H82 UNL     1      43.377  22.160  15.698  1.00  0.00     0.174 HD
ATOM     33  H81 UNL     1      45.054  22.546  15.281  1.00  0.00     0.174 HD
ENDBRANCH   7  31
TORSDOF 9
ENDMDL