MODEL 5
REMARK VINA RESULT: -4.945235627      7.290     13.598
REMARK  7 active torsions:
REMARK  status: ('A' for Active; 'I' for Inactive)
REMARK       I    between atoms: C2_5  and  N4_7
REMARK    1  A    between atoms: N6_14  and  C6_15
REMARK    2  A    between atoms: C6_15  and  C7_16
REMARK    3  A    between atoms: C7_16  and  N7_17
REMARK    4  A    between atoms: N7_17  and  C8_19
REMARK    5  A    between atoms: C8_19  and  C9_20
REMARK    6  A    between atoms: C9_20  and  N8_21
REMARK    7  A    between atoms: N8_21  and  C10_23
ROOT
HETATM    1  N1  UNL     1      31.350   7.025  20.526  1.00  0.00    -0.172 NA
HETATM    2  C1  UNL     1      31.269   8.174  20.589  1.00  0.00     0.184 C
HETATM    3  N2  UNL     1      31.160   9.553  20.662  1.00  0.00    -0.267 N
ATOM      4  H2  UNL     1      30.372   9.992  20.186  1.00  0.00     0.180 HD
HETATM    5  C2  UNL     1      31.977  10.319  21.286  1.00  0.00     0.215 C
HETATM    6  N3  UNL     1      31.758  11.716  21.288  1.00  0.00    -0.062 NA
HETATM    7  N4  UNL     1      33.073   9.757  21.955  1.00  0.00    -0.162 N
ATOM      8  H4  UNL     1      32.885   9.117  22.726  1.00  0.00     0.187 HD
HETATM    9  C3  UNL     1      34.303   9.999  21.658  1.00  0.00     0.695 C
HETATM   10  N5  UNL     1      34.691  10.877  20.601  1.00  0.00    -0.220 N
ATOM     11  H5  UNL     1      34.020  11.169  19.891  1.00  0.00     0.178 HD
HETATM   12  C4  UNL     1      36.038  11.335  20.565  1.00  0.00     0.184 C
HETATM   13  C5  UNL     1      37.061  10.316  20.980  1.00  0.00     0.109 C
HETATM   14  N6  UNL     1      36.687   9.374  21.913  1.00  0.00    -0.269 N
HETATM   15  N11 UNL     1      35.377   9.399  22.371  1.00  0.00    -0.127 N
ATOM     16  H11 UNL     1      35.174   8.963  23.271  1.00  0.00     0.206 HD
ENDROOT
BRANCH  14  17
HETATM   17  C6  UNL     1      37.376   8.176  22.124  1.00  0.00     0.108 C
BRANCH  17  18
HETATM   18  C7  UNL     1      38.815   8.238  21.702  1.00  0.00     0.161 C
BRANCH  18  19
HETATM   19  N7  UNL     1      39.103   7.352  20.643  1.00  0.00    -0.415 N
ATOM     20  H7  UNL     1      38.465   6.592  20.406  1.00  0.00     0.153 HD
BRANCH  19  21
HETATM   21  C8  UNL     1      40.306   7.550  19.920  1.00  0.00     0.134 C
BRANCH  21  22
HETATM   22  C9  UNL     1      41.138   8.725  20.322  1.00  0.00     0.157 C
BRANCH  22  23
HETATM   23  N8  UNL     1      41.749   9.404  19.197  1.00  0.00    -0.225 N
ATOM     24  H8  UNL     1      42.567   9.009  18.733  1.00  0.00     0.177 HD
BRANCH  23  25
HETATM   25  C10 UNL     1      41.184  10.629  18.753  1.00  0.00     0.669 C
HETATM   26  N9  UNL     1      40.148  11.189  19.258  1.00  0.00    -0.227 N
HETATM   27  C11 UNL     1      39.545  12.417  18.846  1.00  0.00     0.139 C
ATOM     28  H9  UNL     1      39.706  10.705  20.039  1.00  0.00     0.177 HD
HETATM   29  C12 UNL     1      40.353  13.280  17.942  1.00  0.00     0.040 C
HETATM   30  C13 UNL     1      41.712  12.780  17.592  1.00  0.00     0.139 C
HETATM   31  N10 UNL     1      41.814  11.315  17.649  1.00  0.00    -0.227 N
ATOM     32  H10 UNL     1      42.318  10.797  16.928  1.00  0.00     0.177 HD
ENDBRANCH  23  25
ENDBRANCH  22  23
ENDBRANCH  21  22
ENDBRANCH  19  21
ENDBRANCH  18  19
ENDBRANCH  17  18
ENDBRANCH  14  17
TORSDOF 7
ENDMDL