MODEL 4
REMARK VINA RESULT: -4.831640305      7.332     10.575
REMARK  10 active torsions:
REMARK  status: ('A' for Active; 'I' for Inactive)
REMARK       I    between atoms: N1_1  and  C1_4
REMARK       I    between atoms: C1_4  and  N2_5
REMARK       I    between atoms: C1_4  and  N7_28
REMARK    1  A    between atoms: N2_5  and  C2_7
REMARK    2  A    between atoms: N5_16  and  C6_17
REMARK    3  A    between atoms: C6_17  and  C7_18
REMARK    4  A    between atoms: C7_18  and  C8_19
REMARK    5  A    between atoms: C8_19  and  C9_20
REMARK    6  A    between atoms: C9_20  and  C10_21
REMARK    7  A    between atoms: C10_21  and  N6_22
REMARK    8  A    between atoms: N7_28  and  N8_30
REMARK    9  A    between atoms: N8_30  and  N9_31
REMARK   10  A    between atoms: N8_30  and  O3_34
ROOT
HETATM    1  C2  UNL     1      36.423  11.168  20.098  1.00  0.00     0.247 A
HETATM    2  N3  UNL     1      37.045  11.732  19.045  1.00  0.00    -0.286 N
ATOM      3  H3  UNL     1      36.556  12.453  18.515  1.00  0.00     0.172 HD
HETATM    4  C3  UNL     1      38.285  11.380  18.666  1.00  0.00     0.279 A
HETATM    5  O1  UNL     1      38.896  11.868  17.708  1.00  0.00    -0.265 OA
HETATM    6  C4  UNL     1      38.896  10.383  19.440  1.00  0.00     0.154 A
HETATM    7  N4  UNL     1      40.077   9.794  19.376  1.00  0.00    -0.344 N
ATOM      8  H4  UNL     1      40.808   9.984  18.689  1.00  0.00     0.167 HD
HETATM    9  C5  UNL     1      40.145   8.888  20.389  1.00  0.00     0.186 A
HETATM   10  N5  UNL     1      39.025   8.890  21.099  1.00  0.00    -0.318 N
HETATM   11  C11 UNL     1      38.225   9.833  20.508  1.00  0.00     0.187 A
HETATM   12  O2  UNL     1      37.012  10.237  20.808  1.00  0.00    -0.259 OA
ENDROOT
BRANCH   1  13
HETATM   13  N2  UNL     1      35.214  11.578  20.388  1.00  0.00    -0.153 N
HETATM   14  C1  UNL     1      34.064  10.961  19.848  1.00  0.00     0.692 C
HETATM   15  N1  UNL     1      33.635  11.287  18.687  1.00  0.00    -0.233 N
HETATM   16  N7  UNL     1      33.390   9.979  20.603  1.00  0.00    -0.110 N
ATOM     17  H12 UNL     1      34.122  11.998  18.141  1.00  0.00     0.174 HD
ATOM     18  H11 UNL     1      32.804  10.842  18.297  1.00  0.00     0.174 HD
ATOM     19  H7  UNL     1      33.884   9.121  20.848  1.00  0.00     0.203 HD
ATOM     20  H2  UNL     1      35.100  12.368  21.024  1.00  0.00     0.188 HD
BRANCH  16  21
HETATM   21  N8  UNL     1      32.070  10.143  21.028  1.00  0.00     0.004 NA
BRANCH  21  22
HETATM   22  N9  UNL     1      31.698  11.481  21.044  1.00  0.00    -0.322 NA
ATOM     23  H92 UNL     1      31.285  11.715  21.947  1.00  0.00     0.175 HD
ATOM     24  H91 UNL     1      31.042  11.698  20.294  1.00  0.00     0.175 HD
ENDBRANCH  21  22
BRANCH  21  25
HETATM   25  O3  UNL     1      31.227   9.437  20.213  1.00  0.00    -0.276 OA
ATOM     26  H3  UNL     1      31.274   8.511  20.423  1.00  0.00     0.241 HD
ENDBRANCH  21  25
ENDBRANCH  16  21
ENDBRANCH   1  13
BRANCH  10  27
HETATM   27  C6  UNL     1      38.614   8.095  22.267  1.00  0.00     0.159 C
BRANCH  27  28
HETATM   28  C7  UNL     1      37.896   6.856  21.938  1.00  0.00    -0.011 C
BRANCH  28  29
HETATM   29  C8  UNL     1      38.526   5.717  21.285  1.00  0.00    -0.027 C
BRANCH  29  30
HETATM   30  C9  UNL     1      38.469   5.500  19.836  1.00  0.00     0.054 C
BRANCH  30  31
HETATM   31  C10 UNL     1      39.710   5.464  19.017  1.00  0.00     0.233 C
BRANCH  31  32
HETATM   32  N6  UNL     1      39.326   5.125  17.614  1.00  0.00    -0.079 N
ATOM     33  H63 UNL     1      38.333   4.913  17.517  1.00  0.00     0.274 HD
ATOM     34  H62 UNL     1      39.355   5.933  16.992  1.00  0.00     0.274 HD
ATOM     35  H61 UNL     1      39.925   4.362  17.300  1.00  0.00     0.274 HD
ENDBRANCH  31  32
ENDBRANCH  30  31
ENDBRANCH  29  30
ENDBRANCH  28  29
ENDBRANCH  27  28
ENDBRANCH  10  27
TORSDOF 10
ENDMDL