MODEL 4
REMARK VINA RESULT: -5.638048525      3.819      7.512
REMARK  7 active torsions:
REMARK  status: ('A' for Active; 'I' for Inactive)
REMARK    1  A    between atoms: N1_1  and  C1_4
REMARK    2  A    between atoms: N3_9  and  C3_10
REMARK    3  A    between atoms: C3_10  and  C4_11
REMARK       I    between atoms: C4_11  and  N4_13
REMARK    4  A    between atoms: N4_13  and  C5_15
REMARK    5  A    between atoms: C5_15  and  C6_16
REMARK    6  A    between atoms: C6_16  and  N5_17
REMARK    7  A    between atoms: N5_17  and  C7_19
ROOT
HETATM    1  C4  UNL     1      39.016  10.608  19.656  1.00  0.00     0.236 C
HETATM    2  O2  UNL     1      38.483  10.067  18.653  1.00  0.00    -0.272 OA
HETATM    3  N4  UNL     1      38.145  11.042  20.691  1.00  0.00    -0.358 N
ATOM      4  H4  UNL     1      38.550  11.484  21.517  1.00  0.00     0.162 HD
ENDROOT
BRANCH   1   5
HETATM    5  C3  UNL     1      40.462  10.807  19.806  1.00  0.00     0.241 C
BRANCH   5   6
HETATM    6  N3  UNL     1      40.979  11.848  18.943  1.00  0.00    -0.242 N
HETATM    7  C2  UNL     1      41.675  11.554  17.830  1.00  0.00     0.345 A
HETATM    8  N2  UNL     1      42.160  12.536  17.018  1.00  0.00    -0.141 N
HETATM    9  O1  UNL     1      41.896  10.363  17.508  1.00  0.00    -0.246 OA
HETATM   10  C1  UNL     1      41.953  13.814  17.314  1.00  0.00     0.683 A
ATOM     11  H2  UNL     1      42.684  12.287  16.179  1.00  0.00     0.189 HD
HETATM   12  N8  UNL     1      41.262  14.130  18.421  1.00  0.00    -0.141 N
HETATM   13  C11 UNL     1      40.785  13.150  19.219  1.00  0.00     0.345 A
ATOM     14  H8  UNL     1      41.097  15.109  18.658  1.00  0.00     0.189 HD
HETATM   15  O4  UNL     1      40.139  13.472  20.249  1.00  0.00    -0.246 OA
BRANCH  10  16
HETATM   16  N1  UNL     1      42.425  14.750  16.527  1.00  0.00    -0.234 N
ATOM     17  H12 UNL     1      41.818  15.491  16.175  1.00  0.00     0.174 HD
ATOM     18  H11 UNL     1      43.410  14.742  16.262  1.00  0.00     0.174 HD
ENDBRANCH  10  16
ENDBRANCH   5   6
ENDBRANCH   1   5
BRANCH   3  19
HETATM   19  C5  UNL     1      36.708  10.886  20.623  1.00  0.00     0.142 C
BRANCH  19  20
HETATM   20  C6  UNL     1      36.165  10.210  21.860  1.00  0.00     0.139 C
BRANCH  20  21
HETATM   21  N5  UNL     1      34.854   9.666  21.664  1.00  0.00    -0.384 N
ATOM     22  H5  UNL     1      34.720   8.663  21.539  1.00  0.00     0.159 HD
BRANCH  21  23
HETATM   23  C7  UNL     1      33.750  10.547  21.647  1.00  0.00     0.099 A
HETATM   24  C8  UNL     1      33.500  11.440  22.670  1.00  0.00     0.053 A
HETATM   25  C9  UNL     1      32.427  12.290  22.645  1.00  0.00     0.109 A
HETATM   26  N6  UNL     1      31.602  12.243  21.583  1.00  0.00    -0.309 N
HETATM   27  N7  UNL     1      31.807  11.405  20.586  1.00  0.00    -0.265 N
ATOM     28  H6  UNL     1      30.798  12.870  21.549  1.00  0.00     0.186 HD
HETATM   29  C10 UNL     1      32.854  10.561  20.590  1.00  0.00     0.286 A
ATOM     30  H7  UNL     1      31.159  11.398  19.797  1.00  0.00     0.190 HD
HETATM   31  O3  UNL     1      33.052   9.759  19.637  1.00  0.00    -0.264 OA
ENDBRANCH  21  23
ENDBRANCH  20  21
ENDBRANCH  19  20
ENDBRANCH   3  19
TORSDOF 7
ENDMDL