MODEL 2
REMARK VINA RESULT: -4.940982630      3.498      8.351
REMARK  8 active torsions:
REMARK  status: ('A' for Active; 'I' for Inactive)
REMARK    1  A    between atoms: S1_2  and  C2_5
REMARK    2  A    between atoms: C2_5  and  C3_6
REMARK    3  A    between atoms: C3_6  and  N1_7
REMARK    4  A    between atoms: N1_7  and  C4_10
REMARK    5  A    between atoms: C4_10  and  C5_11
REMARK    6  A    between atoms: C5_11  and  N2_12
REMARK    7  A    between atoms: C7_18  and  N5_19
REMARK    8  A    between atoms: C8_24  and  N7_25
ROOT
HETATM    1  N2  UNL     1      36.197  10.726  21.039  1.00  0.00    -0.254 N
HETATM    2  N3  UNL     1      35.627   9.968  21.978  1.00  0.00    -0.279 N
ATOM      3  H3  UNL     1      36.120   9.505  22.742  1.00  0.00     0.189 HD
HETATM    4  C6  UNL     1      34.283   9.911  21.758  1.00  0.00     0.155 A
HETATM    5  N4  UNL     1      33.267   9.302  22.390  1.00  0.00    -0.174 N
ATOM      6  H4  UNL     1      33.450   8.743  23.224  1.00  0.00     0.186 HD
HETATM    7  C7  UNL     1      32.020   9.427  21.934  1.00  0.00     0.679 A
HETATM    8  N6  UNL     1      31.723  10.163  20.825  1.00  0.00    -0.176 N
ATOM      9  H6  UNL     1      30.760  10.240  20.498  1.00  0.00     0.186 HD
HETATM   10  C8  UNL     1      32.725  10.788  20.165  1.00  0.00     0.134 A
HETATM   11  C9  UNL     1      34.004  10.659  20.635  1.00  0.00     0.123 A
HETATM   12  C10 UNL     1      35.215  11.151  20.215  1.00  0.00     0.280 A
HETATM   13  O3  UNL     1      35.396  11.896  19.203  1.00  0.00    -0.265 OA
ENDROOT
BRANCH   1  14
HETATM   14  C5  UNL     1      37.610  11.033  20.938  1.00  0.00     0.180 C
BRANCH  14  15
HETATM   15  C4  UNL     1      38.367   9.735  20.930  1.00  0.00     0.254 C
BRANCH  15  16
HETATM   16  N1  UNL     1      39.277   9.599  19.843  1.00  0.00    -0.073 N
ATOM     17  H12 UNL     1      39.075  10.255  19.089  1.00  0.00     0.277 HD
ATOM     18  H11 UNL     1      39.130   8.731  19.327  1.00  0.00     0.277 HD
BRANCH  16  19
HETATM   19  C3  UNL     1      40.636   9.724  20.323  1.00  0.00     0.247 C
BRANCH  19  20
HETATM   20  C2  UNL     1      41.116  11.100  19.851  1.00  0.00     0.167 C
BRANCH  20  21
HETATM   21  S1  UNL     1      41.112  11.261  18.102  1.00  0.00     0.142 S
HETATM   22  C1  UNL     1      42.005  12.664  17.516  1.00  0.00     0.161 C
HETATM   23  O1  UNL     1      41.759  10.000  17.547  1.00  0.00    -0.228 OA
HETATM   24  O2  UNL     1      39.696  11.235  17.595  1.00  0.00    -0.228 OA
ENDBRANCH  20  21
ENDBRANCH  19  20
ENDBRANCH  16  19
ENDBRANCH  15  16
ENDBRANCH  14  15
ENDBRANCH   1  14
BRANCH  10  25
HETATM   25  N7  UNL     1      32.461  11.499  19.108  1.00  0.00    -0.384 N
ATOM     26  H72 UNL     1      33.187  12.040  18.638  1.00  0.00     0.157 HD
ATOM     27  H71 UNL     1      31.510  11.526  18.737  1.00  0.00     0.157 HD
ENDBRANCH  10  25
BRANCH   7  28
HETATM   28  N5  UNL     1      31.015   8.848  22.535  1.00  0.00    -0.234 N
ATOM     29  H52 UNL     1      31.249   8.181  23.270  1.00  0.00     0.174 HD
ATOM     30  H51 UNL     1      30.050   9.056  22.276  1.00  0.00     0.174 HD
ENDBRANCH   7  28
TORSDOF 8
ENDMDL