MODEL 1
REMARK VINA RESULT: -5.241990006      0.000      0.000
REMARK  8 active torsions:
REMARK  status: ('A' for Active; 'I' for Inactive)
REMARK    1  A    between atoms: N1_1  and  C1_4
REMARK    2  A    between atoms: C2_7  and  C3_8
REMARK    3  A    between atoms: C3_8  and  C4_9
REMARK    4  A    between atoms: C6_13  and  N4_14
REMARK    5  A    between atoms: N6_21  and  C8_22
REMARK    6  A    between atoms: C8_22  and  O2_23
REMARK    7  A    between atoms: O2_23  and  C9_24
REMARK    8  A    between atoms: C9_24  and  C10_25
ROOT
HETATM    1  C1  UNL     1      42.648  15.855  16.670  1.00  0.00     0.681 A
HETATM    2  N2  UNL     1      42.583  14.515  16.573  1.00  0.00    -0.180 N
ATOM      3  H2  UNL     1      42.890  14.074  15.706  1.00  0.00     0.185 HD
HETATM    4  C2  UNL     1      42.136  13.737  17.558  1.00  0.00     0.110 A
HETATM    5  N6  UNL     1      41.731  14.297  18.700  1.00  0.00    -0.265 N
HETATM    6  C11 UNL     1      41.795  15.637  18.802  1.00  0.00     0.344 A
HETATM    7  O4  UNL     1      41.404  16.138  19.893  1.00  0.00    -0.246 OA
HETATM    8  N8  UNL     1      42.240  16.432  17.823  1.00  0.00    -0.141 N
ATOM      9  H8  UNL     1      42.271  17.445  17.943  1.00  0.00     0.189 HD
ENDROOT
BRANCH   4  10
HETATM   10  C3  UNL     1      42.101  12.288  17.363  1.00  0.00     0.123 C
BRANCH  10  11
HETATM   11  C4  UNL     1      43.272  11.578  17.927  1.00  0.00     0.033 A
HETATM   12  C5  UNL     1      44.463  12.155  18.246  1.00  0.00     0.119 A
HETATM   13  N3  UNL     1      45.452  11.399  18.753  1.00  0.00    -0.201 N
HETATM   14  C6  UNL     1      45.334  10.074  18.970  1.00  0.00     0.678 A
ATOM     15  H3  UNL     1      46.336  11.852  18.986  1.00  0.00     0.183 HD
HETATM   16  N5  UNL     1      44.151   9.506  18.653  1.00  0.00    -0.156 N
HETATM   17  C7  UNL     1      43.127  10.216  18.142  1.00  0.00     0.267 A
ATOM     18  H5  UNL     1      44.028   8.505  18.804  1.00  0.00     0.187 HD
HETATM   19  O1  UNL     1      42.044   9.608  17.869  1.00  0.00    -0.267 OA
BRANCH  14  20
HETATM   20  N4  UNL     1      46.293   9.353  19.460  1.00  0.00    -0.234 N
ATOM     21  H42 UNL     1      46.262   9.049  20.433  1.00  0.00     0.174 HD
ATOM     22  H41 UNL     1      47.103   9.062  18.912  1.00  0.00     0.174 HD
ENDBRANCH  14  20
ENDBRANCH  10  11
ENDBRANCH   4  10
BRANCH   5  23
HETATM   23  C8  UNL     1      41.228  13.484  19.821  1.00  0.00     0.305 C
BRANCH  23  24
HETATM   24  O2  UNL     1      39.914  13.242  19.559  1.00  0.00    -0.363 OA
BRANCH  24  25
HETATM   25  C9  UNL     1      39.405  12.017  19.835  1.00  0.00     0.269 C
BRANCH  25  26
HETATM   26  C10 UNL     1      38.864  11.228  18.733  1.00  0.00     0.254 C
HETATM   27  N7  UNL     1      38.481  11.961  17.552  1.00  0.00    -0.060 NA
HETATM   28  O3  UNL     1      38.732   9.998  18.788  1.00  0.00    -0.275 OA
ENDBRANCH  25  26
ENDBRANCH  24  25
ENDBRANCH  23  24
ENDBRANCH   5  23
BRANCH   1  29
HETATM   29  N1  UNL     1      43.090  16.563  15.683  1.00  0.00    -0.234 N
ATOM     30  H12 UNL     1      43.702  17.365  15.836  1.00  0.00     0.174 HD
ATOM     31  H11 UNL     1      42.834  16.328  14.724  1.00  0.00     0.174 HD
ENDBRANCH   1  29
TORSDOF 8
ENDMDL