MODEL 5
REMARK VINA RESULT: -5.463307591      1.281      2.444
REMARK  9 active torsions:
REMARK  status: ('A' for Active; 'I' for Inactive)
REMARK    1  A    between atoms: N1_1  and  C1_4
REMARK    2  A    between atoms: C2_9  and  N4_10
REMARK    3  A    between atoms: N4_10  and  N5_12
REMARK    4  A    between atoms: C3_15  and  C4_16
REMARK    5  A    between atoms: C4_16  and  N6_17
REMARK    6  A    between atoms: N6_17  and  C5_20
REMARK    7  A    between atoms: C5_20  and  C6_21
REMARK    8  A    between atoms: C6_21  and  O1_22
REMARK    9  A    between atoms: O1_22  and  C7_23
ROOT
HETATM    1  N6  UNL     1      36.879  11.636  20.406  1.00  0.00    -0.070 N
ATOM      2  H61 UNL     1      37.651  11.647  21.073  1.00  0.00     0.277 HD
ATOM      3  H62 UNL     1      36.609  12.619  20.455  1.00  0.00     0.277 HD
ENDROOT
BRANCH   1   4
HETATM    4  C4  UNL     1      35.819  10.784  20.854  1.00  0.00     0.272 C
BRANCH   4   5
HETATM    5  C3  UNL     1      34.870  11.465  21.799  1.00  0.00     0.227 C
HETATM    6  C2  UNL     1      33.519  11.543  21.184  1.00  0.00     0.142 C
HETATM    7  N3  UNL     1      32.565  12.389  21.810  1.00  0.00    -0.283 N
HETATM    8  N2  UNL     1      33.008  13.458  22.586  1.00  0.00    -0.264 N
ATOM      9  H3  UNL     1      31.567  12.216  21.693  1.00  0.00     0.188 HD
HETATM   10  C1  UNL     1      34.403  13.673  22.731  1.00  0.00     0.232 C
ATOM     11  H2  UNL     1      32.340  14.076  23.043  1.00  0.00     0.190 HD
HETATM   12  O2  UNL     1      35.260  12.796  22.082  1.00  0.00    -0.306 OA
BRANCH   6  13
HETATM   13  N4  UNL     1      33.220  10.860  20.108  1.00  0.00    -0.292 N
ATOM     14  H4  UNL     1      33.575   9.911  19.993  1.00  0.00     0.187 HD
BRANCH  13  15
HETATM   15  N5  UNL     1      32.422  11.422  19.124  1.00  0.00    -0.344 N
ATOM     16  H52 UNL     1      31.489  11.039  18.967  1.00  0.00     0.176 HD
ATOM     17  H51 UNL     1      32.767  12.205  18.568  1.00  0.00     0.176 HD
ENDBRANCH  13  15
ENDBRANCH   6  13
BRANCH  10  18
HETATM   18  N1  UNL     1      34.870  14.666  23.451  1.00  0.00    -0.364 N
ATOM     19  H12 UNL     1      34.710  15.636  23.176  1.00  0.00     0.159 HD
ATOM     20  H11 UNL     1      35.403  14.499  24.305  1.00  0.00     0.159 HD
ENDBRANCH  10  18
ENDBRANCH   4   5
ENDBRANCH   1   4
BRANCH   1  21
HETATM   21  C5  UNL     1      37.331  11.286  19.091  1.00  0.00     0.259 C
BRANCH  21  22
HETATM   22  C6  UNL     1      38.707  10.649  19.175  1.00  0.00     0.205 C
BRANCH  22  23
HETATM   23  O1  UNL     1      39.509  10.887  18.064  1.00  0.00    -0.332 OA
BRANCH  23  24
HETATM   24  C7  UNL     1      40.419  11.877  17.872  1.00  0.00     0.174 A
HETATM   25  N7  UNL     1      40.081  13.169  17.740  1.00  0.00    -0.331 N
HETATM   26  C8  UNL     1      41.004  14.140  17.548  1.00  0.00     0.184 A
ATOM     27  H7  UNL     1      39.096  13.427  17.786  1.00  0.00     0.168 HD
HETATM   28  N8  UNL     1      42.326  13.841  17.481  1.00  0.00    -0.337 N
HETATM   29  C9  UNL     1      42.717  12.562  17.606  1.00  0.00     0.138 A
ATOM     30  H8  UNL     1      43.015  14.579  17.336  1.00  0.00     0.168 HD
HETATM   31  N9  UNL     1      43.951  12.021  17.574  1.00  0.00    -0.337 N
HETATM   32  C11 UNL     1      41.759  11.571  17.802  1.00  0.00     0.129 A
HETATM   33  C10 UNL     1      43.761  10.707  17.749  1.00  0.00     0.182 A
ATOM     34  H9  UNL     1      44.839  12.507  17.445  1.00  0.00     0.168 HD
HETATM   35  N10 UNL     1      42.460  10.424  17.887  1.00  0.00    -0.346 N
ATOM     36  H10 UNL     1      42.066   9.495  18.031  1.00  0.00     0.167 HD
ENDBRANCH  23  24
ENDBRANCH  22  23
ENDBRANCH  21  22
ENDBRANCH   1  21
TORSDOF 9
ENDMDL