MODEL 3
REMARK VINA RESULT: -5.374157553      1.895      2.694
REMARK  4 active torsions:
REMARK  status: ('A' for Active; 'I' for Inactive)
REMARK       I    between atoms: N1_2  and  C2_4
REMARK    1  A    between atoms: C2_4  and  C3_6
REMARK    2  A    between atoms: C3_6  and  N2_8
REMARK       I    between atoms: N2_8  and  C5_10
REMARK       I    between atoms: C5_10  and  N4_14
REMARK    3  A    between atoms: C8_17  and  N5_18
REMARK    4  A    between atoms: C8_17  and  C9_22
ROOT
HETATM    1  N2  UNL     1      38.574   2.129 103.208  1.00  0.00    -0.214 N
ATOM      2  H2  UNL     1      37.835   1.857 102.559  1.00  0.00     0.178 HD
HETATM    3  C5  UNL     1      38.198   2.842 104.374  1.00  0.00     0.670 C
HETATM    4  N3  UNL     1      38.744   2.523 105.489  1.00  0.00    -0.235 N
ATOM      5  H31 UNL     1      38.473   3.036 106.328  1.00  0.00     0.174 HD
ATOM      6  H32 UNL     1      39.431   1.771 105.521  1.00  0.00     0.174 HD
HETATM    7  N4  UNL     1      37.254   3.874 104.330  1.00  0.00    -0.215 N
HETATM    8  C6  UNL     1      36.755   4.532 103.120  1.00  0.00     0.144 C
HETATM    9  C7  UNL     1      35.605   5.384 103.537  1.00  0.00     0.070 C
HETATM   10  C8  UNL     1      35.247   4.828 104.899  1.00  0.00     0.218 C
HETATM   11  C10 UNL     1      36.590   4.490 105.461  1.00  0.00     0.189 C
ENDROOT
BRANCH   1  12
HETATM   12  C3  UNL     1      39.918   1.766 102.879  1.00  0.00     0.187 C
HETATM   13  C4  UNL     1      40.536   2.914 102.075  1.00  0.00     0.043 C
BRANCH  12  14
HETATM   14  C2  UNL     1      40.045   0.499 102.165  1.00  0.00     0.240 C
HETATM   15  N1  UNL     1      41.044   0.318 101.184  1.00  0.00    -0.364 N
HETATM   16  C1  UNL     1      41.207  -0.923 100.452  1.00  0.00     0.149 C
ATOM     17  H1  UNL     1      41.677   1.092 100.982  1.00  0.00     0.161 HD
HETATM   18  O1  UNL     1      39.270  -0.447 102.414  1.00  0.00    -0.271 OA
ENDBRANCH  12  14
ENDBRANCH   1  12
BRANCH  10  19
HETATM   19  N5  UNL     1      34.563   5.857 105.637  1.00  0.00    -0.060 N
ATOM     20  H53 UNL     1      34.159   5.515 106.509  1.00  0.00     0.275 HD
ATOM     21  H52 UNL     1      35.202   6.542 106.041  1.00  0.00     0.275 HD
ATOM     22  H51 UNL     1      33.869   6.282 105.022  1.00  0.00     0.275 HD
ENDBRANCH  10  19
BRANCH  10  23
HETATM   23  C9  UNL     1      34.386   3.641 104.686  1.00  0.00     0.269 C
HETATM   24  N6  UNL     1      33.858   3.257 103.447  1.00  0.00    -0.060 NA
HETATM   25  O2  UNL     1      34.113   2.930 105.688  1.00  0.00    -0.274 OA
ENDBRANCH  10  23
TORSDOF 4
ENDMDL