MODEL 2
REMARK VINA RESULT: -7.866260015      2.147      3.873
REMARK  5 active torsions:
REMARK  status: ('A' for Active; 'I' for Inactive)
REMARK    1  A    between atoms: C2_4  and  N2_5
REMARK    2  A    between atoms: C2_4  and  C4_12
REMARK    3  A    between atoms: N2_5  and  N3_7
REMARK    4  A    between atoms: C9_17  and  C10_18
REMARK    5  A    between atoms: N6_19  and  N7_21
ROOT
HETATM    1  C4  UNL     1      38.545   1.618 103.096  1.00  0.00     0.021 A
HETATM    2  C5  UNL     1      38.504   0.218 102.969  1.00  0.00     0.016 A
HETATM    3  C6  UNL     1      39.416  -0.500 102.254  1.00  0.00     0.001 A
HETATM    4  C7  UNL     1      40.415   0.196 101.636  1.00  0.00     0.001 A
HETATM    5  C8  UNL     1      40.525   1.565 101.711  1.00  0.00     0.014 A
HETATM    6  C9  UNL     1      39.580   2.274 102.448  1.00  0.00    -0.005 A
ENDROOT
BRANCH   1   7
HETATM    7  C2  UNL     1      37.526   2.248 103.876  1.00  0.00     0.126 C
HETATM    8  N1  UNL     1      37.421   2.358 105.130  1.00  0.00    -0.379 N
HETATM    9  C1  UNL     1      36.378   3.002 105.865  1.00  0.00     0.147 C
ATOM     10  H1  UNL     1      38.168   1.938 105.684  1.00  0.00     0.160 HD
BRANCH   7  11
HETATM   11  N2  UNL     1      36.433   2.866 103.163  1.00  0.00    -0.283 N
ATOM     12  H2  UNL     1      35.808   2.305 102.584  1.00  0.00     0.188 HD
BRANCH  11  13
HETATM   13  N3  UNL     1      36.251   4.220 103.279  1.00  0.00    -0.274 N
HETATM   14  C3  UNL     1      35.100   4.773 103.353  1.00  0.00     0.215 C
HETATM   15  N4  UNL     1      33.938   3.974 103.316  1.00  0.00    -0.065 NA
HETATM   16  N5  UNL     1      35.011   6.175 103.471  1.00  0.00    -0.065 NA
ATOM     17  H3  UNL     1      37.077   4.818 103.308  1.00  0.00     0.189 HD
ENDBRANCH  11  13
ENDBRANCH   7  11
ENDBRANCH   1   7
BRANCH   6  18
HETATM   18  C10 UNL     1      39.733   3.711 102.500  1.00  0.00     0.119 C
HETATM   19  N6  UNL     1      40.021   4.456 103.459  1.00  0.00    -0.309 N
ATOM     20  H6  UNL     1      40.043   5.424 103.137  1.00  0.00     0.186 HD
BRANCH  19  21
HETATM   21  N7  UNL     1      40.306   4.420 104.744  1.00  0.00    -0.276 N
HETATM   22  C11 UNL     1      39.630   4.846 105.755  1.00  0.00     0.215 C
HETATM   23  N8  UNL     1      40.189   4.672 107.047  1.00  0.00    -0.065 NA
HETATM   24  N9  UNL     1      38.363   5.473 105.638  1.00  0.00    -0.065 NA
ATOM     25  H7  UNL     1      41.201   3.989 104.976  1.00  0.00     0.189 HD
ENDBRANCH  19  21
ENDBRANCH   6  18
TORSDOF 5
ENDMDL