MODEL 2
REMARK VINA RESULT: -7.064544496      1.037      1.327
REMARK  6 active torsions:
REMARK  status: ('A' for Active; 'I' for Inactive)
REMARK       I    between atoms: N1_2  and  C2_4
REMARK    1  A    between atoms: C2_4  and  C3_6
REMARK    2  A    between atoms: C3_6  and  N4_12
REMARK       I    between atoms: N2_7  and  C4_9
REMARK    3  A    between atoms: N4_12  and  C5_14
REMARK    4  A    between atoms: C5_14  and  N5_16
REMARK    5  A    between atoms: N5_16  and  C6_18
REMARK    6  A    between atoms: C6_18  and  C7_19
ROOT
HETATM    1  C3  UNL     1      37.148   4.481 104.237  1.00  0.00     0.180 C
HETATM    2  N2  UNL     1      36.108   5.231 104.371  1.00  0.00    -0.292 N
ATOM      3  H2  UNL     1      36.133   5.932 105.111  1.00  0.00     0.172 HD
HETATM    4  C4  UNL     1      34.941   5.166 103.585  1.00  0.00     0.334 C
HETATM    5  N3  UNL     1      34.349   3.923 103.305  1.00  0.00    -0.040 NA
HETATM    6  O2  UNL     1      34.444   6.220 103.145  1.00  0.00    -0.251 OA
ENDROOT
BRANCH   1   7
HETATM    7  C2  UNL     1      38.263   4.701 105.147  1.00  0.00     0.285 C
HETATM    8  N1  UNL     1      38.845   3.650 105.913  1.00  0.00    -0.359 N
HETATM    9  C1  UNL     1      39.943   3.850 106.815  1.00  0.00     0.149 C
ATOM     10  H1  UNL     1      38.463   2.709 105.816  1.00  0.00     0.162 HD
HETATM   11  O1  UNL     1      38.765   5.862 105.296  1.00  0.00    -0.264 OA
ENDBRANCH   1   7
BRANCH   1  12
HETATM   12  N4  UNL     1      37.245   3.463 103.271  1.00  0.00    -0.315 N
ATOM     13  H4  UNL     1      36.412   2.895 103.123  1.00  0.00     0.170 HD
BRANCH  12  14
HETATM   14  C5  UNL     1      38.372   3.144 102.486  1.00  0.00     0.173 C
HETATM   15  S1  UNL     1      39.509   4.251 102.120  1.00  0.00    -0.041 SA
BRANCH  14  16
HETATM   16  N5  UNL     1      38.529   1.830 101.982  1.00  0.00    -0.357 N
ATOM     17  H5  UNL     1      37.918   1.516 101.227  1.00  0.00     0.162 HD
BRANCH  16  18
HETATM   18  C6  UNL     1      39.523   0.916 102.497  1.00  0.00     0.235 C
BRANCH  18  19
HETATM   19  C7  UNL     1      40.638   0.658 101.575  1.00  0.00     0.191 C
HETATM   20  O3  UNL     1      41.622   1.452 101.544  1.00  0.00    -0.647 OA
HETATM   21  O4  UNL     1      40.650  -0.424 100.737  1.00  0.00    -0.647 OA
ENDBRANCH  18  19
ENDBRANCH  16  18
ENDBRANCH  14  16
ENDBRANCH  12  14
ENDBRANCH   1  12
TORSDOF 6
ENDMDL