MODEL 2
REMARK VINA RESULT: -6.094833699      1.158      1.465
REMARK  4 active torsions:
REMARK  status: ('A' for Active; 'I' for Inactive)
REMARK       I    between atoms: N1_2  and  C2_4
REMARK       I    between atoms: C2_4  and  N2_5
REMARK       I    between atoms: C2_4  and  N5_11
REMARK    1  A    between atoms: N2_5  and  N3_7
REMARK       I    between atoms: N3_7  and  C3_8
REMARK    2  A    between atoms: N5_11  and  N6_13
REMARK       I    between atoms: N6_13  and  C4_15
REMARK    3  A    between atoms: C4_15  and  C5_17
REMARK    4  A    between atoms: C5_17  and  N7_18
ROOT
HETATM    1  C1  UNL     1      37.813   3.143 106.849  1.00  0.00     0.121 C
HETATM    2  N1  UNL     1      37.963   3.876 105.723  1.00  0.00    -0.345 N
ATOM      3  H1  UNL     1      38.900   4.276 105.757  1.00  0.00     0.167 HD
HETATM    4  C2  UNL     1      37.467   4.253 104.707  1.00  0.00     0.223 C
HETATM    5  N2  UNL     1      36.143   3.958 104.196  1.00  0.00    -0.198 N
ATOM      6  H2  UNL     1      36.016   3.034 103.784  1.00  0.00     0.205 HD
HETATM    7  N5  UNL     1      38.232   5.092 103.798  1.00  0.00    -0.266 N
ATOM      8  H5  UNL     1      38.018   6.076 103.635  1.00  0.00     0.190 HD
ENDROOT
BRANCH   7   9
HETATM    9  N6  UNL     1      39.288   4.427 103.169  1.00  0.00    -0.263 N
HETATM   10  C4  UNL     1      38.975   3.368 102.275  1.00  0.00     0.275 C
HETATM   11  O2  UNL     1      37.762   3.072 102.065  1.00  0.00    -0.265 OA
ATOM     12  H6  UNL     1      40.256   4.696 103.346  1.00  0.00     0.190 HD
BRANCH  10  13
HETATM   13  C5  UNL     1      40.017   2.583 101.566  1.00  0.00     0.162 C
BRANCH  13  14
HETATM   14  N7  UNL     1      40.414   1.462 102.307  1.00  0.00    -0.385 N
HETATM   15  C6  UNL     1      41.258   0.498 101.691  1.00  0.00     0.122 C
HETATM   16  C7  UNL     1      40.219  -0.530 101.195  1.00  0.00     0.021 C
HETATM   17  C8  UNL     1      39.261  -0.569 102.373  1.00  0.00     0.021 C
HETATM   18  C9  UNL     1      39.439   0.775 103.077  1.00  0.00     0.122 C
ENDBRANCH  13  14
ENDBRANCH  10  13
ENDBRANCH   7   9
BRANCH   5  19
HETATM   19  N3  UNL     1      35.083   4.742 104.200  1.00  0.00    -0.265 NA
HETATM   20  C3  UNL     1      33.987   5.543 104.197  1.00  0.00     0.424 C
HETATM   21  N4  UNL     1      33.962   6.705 105.098  1.00  0.00    -0.024 NA
HETATM   22  O1  UNL     1      32.929   5.443 103.499  1.00  0.00    -0.232 OA
ENDBRANCH   5  19
TORSDOF 4
ENDMDL