MODEL 1
REMARK VINA RESULT: -6.502672730      0.000      0.000
REMARK  4 active torsions:
REMARK  status: ('A' for Active; 'I' for Inactive)
REMARK       I    between atoms: C2_2  and  N1_4
REMARK    1  A    between atoms: N1_4  and  C3_6
REMARK    2  A    between atoms: C4_7  and  N2_8
REMARK    3  A    between atoms: C6_13  and  C7_14
REMARK    4  A    between atoms: C8_17  and  N5_18
ROOT
HETATM    1  C3  UNL     1      36.707   3.394 104.094  1.00  0.00     0.117 C
HETATM    2  C4  UNL     1      36.671   4.840 104.597  1.00  0.00     0.123 C
HETATM    3  C6  UNL     1      37.806   4.878 105.571  1.00  0.00     0.142 C
HETATM    4  C8  UNL     1      38.762   3.819 105.108  1.00  0.00     0.209 C
HETATM    5  C9  UNL     1      38.157   3.222 103.830  1.00  0.00     0.004 C
HETATM    6  C10 UNL     1      38.613   1.781 103.811  1.00  0.00     0.019 C
HETATM    7  C11 UNL     1      38.684   4.020 102.686  1.00  0.00     0.019 C
ENDROOT
BRANCH   1   8
HETATM    8  N1  UNL     1      35.843   3.325 102.977  1.00  0.00    -0.354 N
HETATM    9  C2  UNL     1      34.458   3.095 102.983  1.00  0.00     0.214 C
HETATM   10  C1  UNL     1      33.606   3.034 101.789  1.00  0.00     0.117 C
HETATM   11  O1  UNL     1      33.901   2.930 104.099  1.00  0.00    -0.274 OA
ATOM     12  H1  UNL     1      36.275   3.457 102.062  1.00  0.00     0.162 HD
ENDBRANCH   1   8
BRANCH   2  13
HETATM   13  N2  UNL     1      35.404   5.199 105.143  1.00  0.00    -0.359 N
HETATM   14  C5  UNL     1      34.654   5.996 104.430  1.00  0.00     0.197 C
HETATM   15  N3  UNL     1      35.026   6.505 103.177  1.00  0.00    -0.067 NA
HETATM   16  N4  UNL     1      33.392   6.352 104.977  1.00  0.00    -0.067 NA
ATOM     17  H2  UNL     1      35.098   4.849 106.051  1.00  0.00     0.162 HD
ENDBRANCH   2  13
BRANCH   3  18
HETATM   18  C7  UNL     1      37.368   4.662 106.958  1.00  0.00     0.181 C
HETATM   19  O2  UNL     1      37.326   3.504 107.414  1.00  0.00    -0.648 OA
HETATM   20  O3  UNL     1      37.005   5.723 107.755  1.00  0.00    -0.648 OA
ENDBRANCH   3  18
BRANCH   4  21
HETATM   21  N5  UNL     1      40.081   4.342 104.872  1.00  0.00    -0.073 N
ATOM     22  H53 UNL     1      40.099   4.938 104.044  1.00  0.00     0.274 HD
ATOM     23  H52 UNL     1      40.335   5.035 105.575  1.00  0.00     0.274 HD
ATOM     24  H51 UNL     1      40.784   3.605 104.810  1.00  0.00     0.274 HD
ENDBRANCH   4  21
TORSDOF 4
ENDMDL