MODEL 4
REMARK VINA RESULT: -6.280783218      1.329      2.017
REMARK  5 active torsions:
REMARK  status: ('A' for Active; 'I' for Inactive)
REMARK    1  A    between atoms: C2_2  and  C6_17
REMARK    2  A    between atoms: N1_3  and  S1_5
REMARK    3  A    between atoms: S1_5  and  N2_8
REMARK    4  A    between atoms: N2_8  and  C3_10
REMARK    5  A    between atoms: C3_10  and  N3_13
REMARK       I    between atoms: C6_17  and  N4_19
REMARK       I    between atoms: N4_19  and  C7_21
ROOT
HETATM    1  C1  UNL     1      39.684   4.121 103.490  1.00  0.00     0.075 C
HETATM    2  C2  UNL     1      38.772   3.020 103.789  1.00  0.00     0.085 C
HETATM    3  N1  UNL     1      37.755   3.212 104.596  1.00  0.00    -0.267 N
ATOM      4  H1  UNL     1      37.113   2.450 104.809  1.00  0.00     0.180 HD
ENDROOT
BRANCH   3   5
HETATM    5  S1  UNL     1      37.522   4.757 105.283  1.00  0.00     0.321 S
HETATM    6  O1  UNL     1      38.240   4.815 106.603  1.00  0.00    -0.182 OA
HETATM    7  O2  UNL     1      38.033   5.794 104.323  1.00  0.00    -0.182 OA
BRANCH   5   8
HETATM    8  N2  UNL     1      35.843   5.030 105.635  1.00  0.00    -0.269 N
ATOM      9  H2  UNL     1      35.476   5.305 106.546  1.00  0.00     0.176 HD
BRANCH   8  10
HETATM   10  C3  UNL     1      35.032   4.810 104.443  1.00  0.00     0.198 C
HETATM   11  C4  UNL     1      34.000   5.901 104.318  1.00  0.00     0.070 C
HETATM   12  C5  UNL     1      34.389   3.442 104.592  1.00  0.00     0.070 C
BRANCH  10  13
HETATM   13  N3  UNL     1      35.898   4.832 103.282  1.00  0.00    -0.053 N
ATOM     14  H33 UNL     1      35.383   4.985 102.414  1.00  0.00     0.277 HD
ATOM     15  H32 UNL     1      36.484   5.666 103.247  1.00  0.00     0.277 HD
ATOM     16  H31 UNL     1      36.444   3.970 103.264  1.00  0.00     0.277 HD
ENDBRANCH  10  13
ENDBRANCH   8  10
ENDBRANCH   5   8
ENDBRANCH   3   5
BRANCH   2  17
HETATM   17  C6  UNL     1      38.952   1.693 103.218  1.00  0.00     0.270 C
HETATM   18  O3  UNL     1      38.102   0.796 103.463  1.00  0.00    -0.266 OA
HETATM   19  N4  UNL     1      40.061   1.406 102.402  1.00  0.00    -0.296 N
HETATM   20  C7  UNL     1      40.259   0.102 101.825  1.00  0.00     0.188 C
ATOM     21  H4  UNL     1      40.742   2.141 102.214  1.00  0.00     0.171 HD
HETATM   22  N5  UNL     1      41.257  -0.166 101.087  1.00  0.00    -0.373 N
HETATM   23  N6  UNL     1      39.292  -0.895 102.107  1.00  0.00    -0.064 NA
ATOM     24  H52 UNL     1      41.953   0.552 100.883  1.00  0.00     0.158 HD
ATOM     25  H51 UNL     1      41.396  -1.089 100.678  1.00  0.00     0.158 HD
ENDBRANCH   2  17
TORSDOF 5
ENDMDL