MODEL 2
REMARK VINA RESULT: -5.617118111      2.922      4.992
REMARK  2 active torsions:
REMARK  status: ('A' for Active; 'I' for Inactive)
REMARK       I    between atoms: N1_2  and  C2_4
REMARK       I    between atoms: C2_4  and  N3_8
REMARK    1  A    between atoms: C4_11  and  N4_12
REMARK       I    between atoms: N4_12  and  C5_14
REMARK    2  A    between atoms: C7_17  and  N5_18
ROOT
HETATM    1  C1  UNL     1      40.862   4.447 106.638  1.00  0.00     0.165 C
HETATM    2  N1  UNL     1      39.439   4.419 106.375  1.00  0.00    -0.230 N
ATOM      3  H1  UNL     1      38.807   4.042 107.081  1.00  0.00     0.177 HD
HETATM    4  C2  UNL     1      38.911   4.906 105.158  1.00  0.00     0.681 C
HETATM    5  N2  UNL     1      38.440   6.094 105.069  1.00  0.00    -0.234 N
ATOM      6  H21 UNL     1      38.058   6.445 104.191  1.00  0.00     0.174 HD
ATOM      7  H22 UNL     1      38.443   6.703 105.887  1.00  0.00     0.174 HD
HETATM    8  N3  UNL     1      38.906   4.071 104.035  1.00  0.00    -0.132 N
HETATM    9  S1  UNL     1      40.148   4.079 102.745  1.00  0.00    -0.032 SA
HETATM   10  C3  UNL     1      39.656   2.473 101.985  1.00  0.00     0.127 C
HETATM   11  C4  UNL     1      38.889   1.897 103.184  1.00  0.00     0.139 C
HETATM   12  C7  UNL     1      37.987   3.032 103.595  1.00  0.00     0.239 C
ENDROOT
BRANCH  12  13
HETATM   13  N5  UNL     1      37.038   2.677 104.589  1.00  0.00    -0.342 N
HETATM   14  C8  UNL     1      35.935   3.325 104.690  1.00  0.00     0.198 C
HETATM   15  N6  UNL     1      35.686   4.388 103.800  1.00  0.00    -0.067 NA
HETATM   16  N7  UNL     1      34.942   3.025 105.658  1.00  0.00    -0.067 NA
ATOM     17  H5  UNL     1      37.232   1.905 105.225  1.00  0.00     0.164 HD
ENDBRANCH  12  13
BRANCH  11  18
HETATM   18  N4  UNL     1      38.207   0.699 102.863  1.00  0.00    -0.352 N
HETATM   19  C5  UNL     1      38.890  -0.545 102.934  1.00  0.00     0.214 C
HETATM   20  C6  UNL     1      38.222  -1.816 102.610  1.00  0.00     0.117 C
HETATM   21  O1  UNL     1      40.113  -0.601 103.285  1.00  0.00    -0.274 OA
ATOM     22  H4  UNL     1      37.228   0.728 102.580  1.00  0.00     0.163 HD
ENDBRANCH  11  18
TORSDOF 2
ENDMDL