MODEL 2
REMARK VINA RESULT: -3.621801021      2.637      7.221
REMARK  3 active torsions:
REMARK  status: ('A' for Active; 'I' for Inactive)
REMARK       I    between atoms: N1_2  and  C2_4
REMARK       I    between atoms: C2_4  and  N3_8
REMARK       I    between atoms: N4_11  and  C5_12
REMARK       I    between atoms: C5_12  and  N5_14
REMARK    1  A    between atoms: N5_14  and  C6_16
REMARK    2  A    between atoms: C6_16  and  C8_18
REMARK       I    between atoms: C8_18  and  N6_20
REMARK    3  A    between atoms: N6_20  and  N7_21
ROOT
HETATM    1  C1  UNL     1      36.632   5.950 107.857  1.00  0.00     0.165 C
HETATM    2  N1  UNL     1      36.085   4.883 107.062  1.00  0.00    -0.231 N
ATOM      3  H1  UNL     1      35.895   3.985 107.509  1.00  0.00     0.177 HD
HETATM    4  C2  UNL     1      35.801   5.030 105.688  1.00  0.00     0.669 C
HETATM    5  N2  UNL     1      34.845   5.748 105.306  1.00  0.00    -0.235 N
ATOM      6  H21 UNL     1      34.640   5.855 104.312  1.00  0.00     0.174 HD
ATOM      7  H22 UNL     1      34.249   6.247 105.967  1.00  0.00     0.174 HD
HETATM    8  N3  UNL     1      36.637   4.329 104.760  1.00  0.00    -0.215 N
HETATM    9  C3  UNL     1      35.974   3.638 103.700  1.00  0.00     0.161 C
HETATM   10  C4  UNL     1      36.780   2.755 102.839  1.00  0.00     0.148 C
HETATM   11  N4  UNL     1      38.177   2.613 103.211  1.00  0.00    -0.331 N
HETATM   12  C5  UNL     1      39.060   2.011 102.287  1.00  0.00     0.319 C
HETATM   13  O1  UNL     1      38.534   1.656 101.169  1.00  0.00    -0.247 OA
HETATM   14  N5  UNL     1      40.439   1.767 102.480  1.00  0.00    -0.329 N
ATOM     15  H5  UNL     1      40.903   2.034 103.349  1.00  0.00     0.165 HD
HETATM   16  C9  UNL     1      38.685   3.060 104.475  1.00  0.00     0.148 C
HETATM   17  C10 UNL     1      38.042   4.352 104.921  1.00  0.00     0.161 C
ENDROOT
BRANCH  14  18
HETATM   18  C6  UNL     1      41.179   1.123 101.403  1.00  0.00     0.191 C
HETATM   19  C7  UNL     1      42.606   0.986 101.848  1.00  0.00     0.043 C
BRANCH  18  20
HETATM   20  C8  UNL     1      40.590  -0.263 101.168  1.00  0.00     0.334 C
HETATM   21  O2  UNL     1      41.123  -0.802 100.132  1.00  0.00    -0.253 OA
HETATM   22  N6  UNL     1      39.655  -0.782 101.973  1.00  0.00    -0.292 NA
BRANCH  22  23
HETATM   23  N7  UNL     1      38.728  -1.297 102.773  1.00  0.00    -0.277 N
ATOM     24  H72 UNL     1      39.492  -0.919 102.213  1.00  0.00     0.191 HD
ATOM     25  H71 UNL     1      38.016  -1.692 103.387  1.00  0.00     0.191 HD
ENDBRANCH  22  23
ENDBRANCH  18  20
ENDBRANCH  14  18
TORSDOF 3
ENDMDL