MODEL 3
REMARK VINA RESULT: -7.137643850      2.033      5.437
REMARK  5 active torsions:
REMARK  status: ('A' for Active; 'I' for Inactive)
REMARK    1  A    between atoms: C2_2  and  C3_3
REMARK    2  A    between atoms: C3_3  and  C4_4
REMARK    3  A    between atoms: C4_4  and  C5_5
REMARK    4  A    between atoms: N1_7  and  N2_9
REMARK       I    between atoms: C7_11  and  N3_12
REMARK       I    between atoms: C7_11  and  N6_17
REMARK       I    between atoms: N6_17  and  C9_18
REMARK    5  A    between atoms: N8_21  and  N9_23
ROOT
HETATM    1  C5  UNL     1      35.645   4.375 103.759  1.00  0.00     0.000 C
HETATM    2  C6  UNL     1      34.907   5.598 104.115  1.00  0.00     0.065 C
HETATM    3  N1  UNL     1      36.644   4.420 102.948  1.00  0.00    -0.306 N
ATOM      4  H1  UNL     1      36.949   5.294 102.523  1.00  0.00     0.186 HD
ENDROOT
BRANCH   3   5
HETATM    5  N2  UNL     1      37.290   3.205 102.678  1.00  0.00    -0.259 N
HETATM    6  C7  UNL     1      38.477   2.933 103.244  1.00  0.00     0.280 C
HETATM    7  N3  UNL     1      38.939   1.646 102.827  1.00  0.00    -0.291 N
HETATM    8  N6  UNL     1      38.990   3.857 104.058  1.00  0.00    -0.317 NA
HETATM    9  C8  UNL     1      40.028   1.400 102.223  1.00  0.00     0.204 C
ATOM     10  H3  UNL     1      38.337   0.849 103.034  1.00  0.00     0.172 HD
HETATM   11  N4  UNL     1      40.941   2.425 101.886  1.00  0.00    -0.066 NA
HETATM   12  N5  UNL     1      40.345   0.057 101.875  1.00  0.00    -0.066 NA
HETATM   13  C9  UNL     1      39.509   4.789 104.879  1.00  0.00     0.408 C
HETATM   14  N7  UNL     1      38.805   6.044 105.154  1.00  0.00    -0.025 NA
HETATM   15  O1  UNL     1      40.611   4.754 105.512  1.00  0.00    -0.234 OA
ATOM     16  H2  UNL     1      36.859   2.527 102.050  1.00  0.00     0.191 HD
ENDBRANCH   3   5
BRANCH   1  17
HETATM   17  C4  UNL     1      35.253   3.078 104.341  1.00  0.00     0.059 C
BRANCH  17  18
HETATM   18  C3  UNL     1      34.904   3.300 105.809  1.00  0.00     0.059 C
BRANCH  18  19
HETATM   19  C2  UNL     1      36.126   3.746 106.502  1.00  0.00    -0.001 C
HETATM   20  C1  UNL     1      37.223   2.760 106.652  1.00  0.00     0.065 C
HETATM   21  N8  UNL     1      36.222   4.948 106.944  1.00  0.00    -0.316 N
ATOM     22  H8  UNL     1      35.441   5.591 106.817  1.00  0.00     0.185 HD
BRANCH  21  23
HETATM   23  N9  UNL     1      37.367   5.388 107.592  1.00  0.00    -0.345 N
ATOM     24  H92 UNL     1      38.082   5.865 107.042  1.00  0.00     0.176 HD
ATOM     25  H91 UNL     1      37.499   5.242 108.593  1.00  0.00     0.176 HD
ENDBRANCH  21  23
ENDBRANCH  18  19
ENDBRANCH  17  18
ENDBRANCH   1  17
TORSDOF 5
ENDMDL