MODEL 2
REMARK VINA RESULT: -7.866072995      1.292      1.292
REMARK  7 active torsions:
REMARK  status: ('A' for Active; 'I' for Inactive)
REMARK    1  A    between atoms: C2_2  and  N1_3
REMARK    2  A    between atoms: C2_2  and  C8_16
REMARK    3  A    between atoms: N1_3  and  C3_5
REMARK    4  A    between atoms: C3_5  and  O1_6
REMARK    5  A    between atoms: C3_5  and  N2_8
REMARK       I    between atoms: C8_16  and  N4_18
REMARK    6  A    between atoms: N4_18  and  N5_20
REMARK    7  A    between atoms: N5_20  and  C9_22
ROOT
HETATM    1  N1  UNL     1      39.477   3.875 104.233  1.00  0.00    -0.344 N
ATOM      2  H1  UNL     1      40.123   4.658 104.129  1.00  0.00     0.164 HD
ENDROOT
BRANCH   1   3
HETATM    3  C2  UNL     1      38.991   3.517 105.545  1.00  0.00     0.174 C
HETATM    4  C1  UNL     1      39.911   4.208 106.584  1.00  0.00     0.042 C
BRANCH   3   5
HETATM    5  C8  UNL     1      37.621   3.981 105.794  1.00  0.00     0.258 C
HETATM    6  O2  UNL     1      37.080   3.494 106.868  1.00  0.00    -0.269 OA
HETATM    7  N4  UNL     1      36.886   4.883 104.983  1.00  0.00    -0.266 N
ATOM      8  H4  UNL     1      37.337   5.254 104.147  1.00  0.00     0.190 HD
BRANCH   7   9
HETATM    9  N5  UNL     1      35.585   5.291 105.259  1.00  0.00    -0.276 N
ATOM     10  H5  UNL     1      35.370   5.671 106.181  1.00  0.00     0.189 HD
BRANCH   9  11
HETATM   11  C9  UNL     1      34.542   5.195 104.290  1.00  0.00     0.199 C
HETATM   12  N6  UNL     1      33.694   6.311 103.991  1.00  0.00    -0.068 NA
HETATM   13  S1  UNL     1      34.291   3.796 103.500  1.00  0.00    -0.043 SA
ENDBRANCH   9  11
ENDBRANCH   7   9
ENDBRANCH   3   5
ENDBRANCH   1   3
BRANCH   1  14
HETATM   14  C3  UNL     1      39.068   3.155 103.105  1.00  0.00     0.215 C
BRANCH  14  15
HETATM   15  O1  UNL     1      38.118   3.662 102.367  1.00  0.00    -0.333 OA
ATOM     16  H1  UNL     1      38.344   3.962 101.494  1.00  0.00     0.220 HD
ENDBRANCH  14  15
BRANCH  14  17
HETATM   17  N2  UNL     1      39.573   1.907 102.659  1.00  0.00    -0.344 N
HETATM   18  C4  UNL     1      40.686   1.897 101.739  1.00  0.00     0.154 C
HETATM   19  C5  UNL     1      41.206   0.491 101.605  1.00  0.00     0.252 C
HETATM   20  N3  UNL     1      40.062  -0.365 101.326  1.00  0.00    -0.072 N
HETATM   21  C6  UNL     1      39.334  -0.553 102.563  1.00  0.00     0.252 C
ATOM     22  H32 UNL     1      39.476  -0.007 100.572  1.00  0.00     0.277 HD
ATOM     23  H31 UNL     1      40.326  -1.246 100.885  1.00  0.00     0.277 HD
HETATM   24  C7  UNL     1      38.925   0.723 103.203  1.00  0.00     0.154 C
ENDBRANCH  14  17
ENDBRANCH   1  14
TORSDOF 7
ENDMDL