MODEL 3
REMARK VINA RESULT: -8.061667607      2.137      3.116
REMARK  9 active torsions:
REMARK  status: ('A' for Active; 'I' for Inactive)
REMARK       I    between atoms: C2_4  and  N2_5
REMARK       I    between atoms: C2_4  and  N3_18
REMARK    1  A    between atoms: N2_5  and  C3_7
REMARK    2  A    between atoms: C8_14  and  C9_15
REMARK    3  A    between atoms: C10_21  and  C11_22
REMARK    4  A    between atoms: C15_26  and  C16_27
REMARK    5  A    between atoms: C16_27  and  C17_28
REMARK    6  A    between atoms: C16_27  and  S1_37
REMARK    7  A    between atoms: C17_28  and  C18_29
REMARK    8  A    between atoms: C18_29  and  C19_30
REMARK    9  A    between atoms: C19_30  and  N5_31
ROOT
HETATM    1  C1  UNL     1      13.963   3.280   9.684  1.00  0.00     0.165 C
HETATM    2  N1  UNL     1      14.181   4.669   9.704  1.00  0.00    -0.229 N
ATOM      3  H1  UNL     1      14.812   4.998   8.973  1.00  0.00     0.177 HD
HETATM    4  C2  UNL     1      13.745   5.585  10.451  1.00  0.00     0.699 C
HETATM    5  N2  UNL     1      14.152   6.903  10.212  1.00  0.00    -0.189 N
ATOM      6  H2  UNL     1      13.411   7.602  10.256  1.00  0.00     0.184 HD
HETATM    7  N3  UNL     1      12.797   5.280  11.456  1.00  0.00    -0.089 N
HETATM    8  N4  UNL     1      11.480   5.113  11.083  1.00  0.00    -0.283 N
ATOM      9  H4  UNL     1      11.129   5.196  10.129  1.00  0.00     0.188 HD
HETATM   10  C10 UNL     1      10.735   4.828  12.145  1.00  0.00     0.032 A
HETATM   11  C14 UNL     1      11.596   4.818  13.186  1.00  0.00     0.056 A
HETATM   12  C15 UNL     1      12.924   5.106  12.764  1.00  0.00     0.072 A
ENDROOT
BRANCH  12  13
HETATM   13  C16 UNL     1      14.043   5.154  13.729  1.00  0.00     0.160 C
BRANCH  13  14
HETATM   14  C17 UNL     1      15.344   4.696  13.202  1.00  0.00     0.028 C
BRANCH  14  15
HETATM   15  C18 UNL     1      16.527   5.592  13.435  1.00  0.00     0.032 C
BRANCH  15  16
HETATM   16  C19 UNL     1      17.709   4.845  14.058  1.00  0.00     0.272 C
BRANCH  16  17
HETATM   17  N5  UNL     1      17.570   4.883  15.536  1.00  0.00     0.088 N
HETATM   18  C20 UNL     1      18.710   5.615  16.044  1.00  0.00     0.272 C
HETATM   19  C21 UNL     1      19.326   4.937  17.254  1.00  0.00     0.030 C
HETATM   20  C22 UNL     1      19.949   3.634  16.806  1.00  0.00     0.003 C
HETATM   21  C23 UNL     1      18.962   2.920  15.931  1.00  0.00     0.030 C
HETATM   22  C24 UNL     1      17.589   3.515  15.994  1.00  0.00     0.272 C
ENDBRANCH  16  17
ENDBRANCH  15  16
ENDBRANCH  14  15
ENDBRANCH  13  14
BRANCH  13  23
HETATM   23  S1  UNL     1      13.600   4.493  15.313  1.00  0.00     0.150 S
HETATM   24  C25 UNL     1      13.445   2.716  15.104  1.00  0.00     0.162 C
HETATM   25  O1  UNL     1      12.164   4.900  15.653  1.00  0.00    -0.228 OA
HETATM   26  O2  UNL     1      14.417   4.893  16.448  1.00  0.00    -0.228 OA
ENDBRANCH  13  23
ENDBRANCH  12  13
BRANCH   5  27
HETATM   27  C3  UNL     1      15.436   7.406   9.921  1.00  0.00     0.064 A
HETATM   28  C4  UNL     1      16.529   6.552   9.831  1.00  0.00     0.054 A
HETATM   29  C5  UNL     1      17.824   6.989   9.561  1.00  0.00     0.037 A
HETATM   30 CL1  UNL     1      19.142   5.847   9.465  1.00  0.00    -0.084 Cl
HETATM   31  C6  UNL     1      18.052   8.328   9.371  1.00  0.00     0.048 A
HETATM   32  C7  UNL     1      17.002   9.197   9.452  1.00  0.00     0.049 A
HETATM   33 CL2  UNL     1      17.239  10.924   9.217  1.00  0.00    -0.083 Cl
HETATM   34  C8  UNL     1      15.690   8.737   9.728  1.00  0.00     0.055 A
BRANCH  34  35
HETATM   35  C9  UNL     1      14.616   9.747   9.788  1.00  0.00     0.390 C
HETATM   36  F1  UNL     1      14.594  10.354   8.534  1.00  0.00    -0.209 F
HETATM   37  F2  UNL     1      15.032  10.770  10.666  1.00  0.00    -0.209 F
ENDBRANCH  34  35
ENDBRANCH   5  27
BRANCH  10  38
HETATM   38  C11 UNL     1       9.271   4.577  12.167  1.00  0.00     0.029 C
HETATM   39  C12 UNL     1       8.957   3.102  12.106  1.00  0.00     0.016 C
HETATM   40  C13 UNL     1       8.634   5.281  10.985  1.00  0.00     0.016 C
ENDBRANCH  10  38
TORSDOF 9
ENDMDL