MODEL 4
REMARK VINA RESULT: -8.992160979      1.990      3.273
REMARK  8 active torsions:
REMARK  status: ('A' for Active; 'I' for Inactive)
REMARK    1  A    between atoms: C2_2  and  N1_3
REMARK    2  A    between atoms: C3_4  and  S1_5
REMARK    3  A    between atoms: S1_5  and  C4_6
REMARK    4  A    between atoms: C4_6  and  C5_7
REMARK    5  A    between atoms: C12_17  and  C13_18
REMARK    6  A    between atoms: C13_18  and  C14_19
REMARK    7  A    between atoms: C14_19  and  N3_20
REMARK       I    between atoms: N3_20  and  C15_22
REMARK    8  A    between atoms: C15_22  and  C16_24
ROOT
HETATM    1  C14 UNL     1      15.644   6.230  10.087  1.00  0.00     0.070 C
ENDROOT
BRANCH   1   2
HETATM    2  C13 UNL     1      16.586   7.252  10.610  1.00  0.00     0.104 C
BRANCH   2   3
HETATM    3  C12 UNL     1      17.037   8.295   9.676  1.00  0.00     0.040 A
HETATM    4  N1  UNL     1      16.364   9.502   9.527  1.00  0.00    -0.329 N
HETATM    5  C3  UNL     1      17.055  10.235   8.657  1.00  0.00     0.147 A
HETATM    6  N2  UNL     1      18.150   9.503   8.253  1.00  0.00    -0.339 N
HETATM    7  C10 UNL     1      18.136   8.317   8.878  1.00  0.00     0.030 A
ATOM      8  H2  UNL     1      18.858   9.813   7.586  1.00  0.00     0.168 HD
HETATM    9  C11 UNL     1      19.165   7.246   8.628  1.00  0.00     0.070 C
BRANCH   4  10
HETATM   10  C2  UNL     1      15.133   9.761  10.224  1.00  0.00     0.126 C
HETATM   11  C1  UNL     1      13.926   9.496   9.321  1.00  0.00     0.027 C
ENDBRANCH   4  10
BRANCH   5  12
HETATM   12  S1  UNL     1      16.775  11.878   8.060  1.00  0.00    -0.091 SA
BRANCH  12  13
HETATM   13  C4  UNL     1      16.780  13.171   9.268  1.00  0.00     0.114 C
BRANCH  13  14
HETATM   14  C5  UNL     1      15.455  13.963   9.153  1.00  0.00     0.131 C
HETATM   15  C6  UNL     1      14.465  13.135   8.419  1.00  0.00     0.033 C
HETATM   16  C7  UNL     1      13.126  13.036   9.089  1.00  0.00     0.004 C
HETATM   17  C8  UNL     1      13.152  13.087  10.578  1.00  0.00     0.026 C
HETATM   18  C9  UNL     1      14.502  13.368  11.164  1.00  0.00     0.168 C
HETATM   19  O1  UNL     1      15.113  14.349  10.420  1.00  0.00    -0.385 OA
ENDBRANCH  13  14
ENDBRANCH  12  13
ENDBRANCH   5  12
ENDBRANCH   2   3
ENDBRANCH   1   2
BRANCH   1  20
HETATM   20  N3  UNL     1      14.609   5.694  10.860  1.00  0.00    -0.335 N
HETATM   21  C15 UNL     1      13.238   5.660  10.560  1.00  0.00     0.279 C
HETATM   22  O2  UNL     1      12.824   6.147   9.483  1.00  0.00    -0.265 OA
ATOM     23  H3  UNL     1      14.883   5.279  11.751  1.00  0.00     0.168 HD
BRANCH  21  24
HETATM   24  C16 UNL     1      12.261   5.050  11.495  1.00  0.00     0.144 A
HETATM   25  N4  UNL     1      12.577   4.300  12.537  1.00  0.00    -0.344 N
HETATM   26  C17 UNL     1      11.639   3.817  13.296  1.00  0.00     0.076 A
ATOM     27  H4  UNL     1      13.556   4.100  12.744  1.00  0.00     0.167 HD
HETATM   28  C18 UNL     1      11.817   3.002  14.439  1.00  0.00     0.085 A
HETATM   29  C22 UNL     1      10.343   4.117  12.968  1.00  0.00     0.059 A
HETATM   30 CL1  UNL     1      13.412   2.534  14.985  1.00  0.00    -0.080 Cl
HETATM   31  C19 UNL     1      10.733   2.575  15.130  1.00  0.00     0.081 A
HETATM   32 CL2  UNL     1      10.967   1.555  16.561  1.00  0.00    -0.081 Cl
HETATM   33  C20 UNL     1       9.427   2.862  14.822  1.00  0.00     0.080 A
HETATM   34 CL3  UNL     1       8.044   2.314  15.707  1.00  0.00    -0.081 Cl
HETATM   35  C21 UNL     1       9.238   3.660  13.702  1.00  0.00     0.077 A
HETATM   36 CL4  UNL     1       7.673   4.150  13.124  1.00  0.00    -0.081 Cl
HETATM   37  S2  UNL     1      10.565   5.091  11.566  1.00  0.00    -0.063 SA
ENDBRANCH  21  24
ENDBRANCH   1  20
TORSDOF 8
ENDMDL