MODEL 3
REMARK VINA RESULT: -10.049411548      1.159      1.285
REMARK  10 active torsions:
REMARK  status: ('A' for Active; 'I' for Inactive)
REMARK    1  A    between atoms: C2_2  and  N1_3
REMARK       I    between atoms: N1_3  and  C3_5
REMARK    2  A    between atoms: C3_5  and  O2_7
REMARK    3  A    between atoms: O2_7  and  C4_8
REMARK    4  A    between atoms: C6_11  and  C7_12
REMARK    5  A    between atoms: C10_15  and  C11_16
REMARK    6  A    between atoms: C11_16  and  C12_17
REMARK    7  A    between atoms: C13_18  and  C14_19
REMARK    8  A    between atoms: C14_19  and  S1_20
REMARK    9  A    between atoms: S1_20  and  C15_21
REMARK   10  A    between atoms: C18_26  and  C19_27
ROOT
HETATM    1  C7  UNL     1      14.420   5.886  10.257  1.00  0.00     0.026 C
HETATM    2  C8  UNL     1      13.896   5.480  11.386  1.00  0.00    -0.002 C
HETATM    3  C9  UNL     1      14.636   5.189  12.612  1.00  0.00     0.075 C
HETATM    4  C10 UNL     1      13.794   4.642  13.729  1.00  0.00     0.137 C
HETATM    5  O5  UNL     1      12.709   3.842  13.298  1.00  0.00    -0.341 OA
HETATM    6  C17 UNL     1      11.805   4.412  12.426  1.00  0.00     0.120 C
HETATM    7  C18 UNL     1      10.508   4.253  12.421  1.00  0.00     0.055 C
HETATM    8  C25 UNL     1      12.423   5.288  11.403  1.00  0.00     0.211 C
HETATM    9  O6  UNL     1      11.663   5.843  10.575  1.00  0.00    -0.285 OA
ENDROOT
BRANCH   1  10
HETATM   10  C6  UNL     1      15.817   6.135   9.964  1.00  0.00     0.013 A
HETATM   11  C5  UNL     1      16.867   5.321   9.634  1.00  0.00     0.158 A
HETATM   12  O3  UNL     1      17.974   6.028   9.450  1.00  0.00    -0.298 OA
HETATM   13  C4  UNL     1      17.737   7.297   9.639  1.00  0.00     0.217 A
HETATM   14  C26 UNL     1      16.407   7.418   9.961  1.00  0.00     0.105 A
HETATM   15 CL2  UNL     1      15.558   8.897  10.317  1.00  0.00    -0.078 Cl
BRANCH  13  16
HETATM   16  O2  UNL     1      18.651   8.328   9.537  1.00  0.00    -0.235 OA
BRANCH  16  17
HETATM   17  C3  UNL     1      18.419   9.514   8.899  1.00  0.00     0.367 C
HETATM   18  N1  UNL     1      18.545  10.735   9.638  1.00  0.00    -0.337 N
ATOM     19  H1  UNL     1      18.805  10.694  10.623  1.00  0.00     0.164 HD
HETATM   20  O1  UNL     1      18.101   9.526   7.691  1.00  0.00    -0.238 OA
BRANCH  18  21
HETATM   21  C2  UNL     1      18.314  12.022   9.029  1.00  0.00     0.120 C
HETATM   22  C1  UNL     1      16.829  12.386   9.111  1.00  0.00     0.026 C
ENDBRANCH  18  21
ENDBRANCH  16  17
ENDBRANCH  13  16
ENDBRANCH   1  10
BRANCH   4  23
HETATM   23  C11 UNL     1      14.636   3.854  14.713  1.00  0.00     0.059 C
BRANCH  23  24
HETATM   24  C12 UNL     1      16.092   4.128  14.533  1.00  0.00    -0.027 C
HETATM   25  C13 UNL     1      16.929   4.163  15.559  1.00  0.00    -0.020 C
BRANCH  25  26
HETATM   26  C14 UNL     1      18.367   4.440  15.313  1.00  0.00     0.109 C
BRANCH  26  27
HETATM   27  S1  UNL     1      19.385   4.012  16.750  1.00  0.00    -0.089 SA
BRANCH  27  28
HETATM   28  C15 UNL     1      19.281   5.312  17.949  1.00  0.00     0.182 C
HETATM   29  C16 UNL     1      19.629   6.736  17.630  1.00  0.00     0.104 C
HETATM   30  O4  UNL     1      18.917   5.061  19.082  1.00  0.00    -0.286 OA
ENDBRANCH  27  28
ENDBRANCH  26  27
ENDBRANCH  25  26
ENDBRANCH  23  24
ENDBRANCH   4  23
BRANCH   7  31
HETATM   31  C19 UNL     1       9.719   3.444  13.327  1.00  0.00     0.007 A
HETATM   32  C20 UNL     1       9.191   2.214  12.908  1.00  0.00     0.041 A
HETATM   33  C21 UNL     1       8.457   1.413  13.747  1.00  0.00     0.073 A
HETATM   34 CL1  UNL     1       7.817  -0.119  13.180  1.00  0.00    -0.081 Cl
HETATM   35  C22 UNL     1       8.205   1.789  15.044  1.00  0.00     0.141 A
HETATM   36  F1  UNL     1       7.472   0.999  15.891  1.00  0.00    -0.204 F
HETATM   37  C23 UNL     1       8.715   2.995  15.476  1.00  0.00     0.087 A
HETATM   38  C24 UNL     1       9.465   3.813  14.622  1.00  0.00     0.129 A
HETATM   39  F2  UNL     1       9.924   4.961  15.174  1.00  0.00    -0.205 F
ENDBRANCH   7  31
TORSDOF 10
ENDMDL