MODEL 3
REMARK VINA RESULT: -10.305503452      2.185      4.133
REMARK  9 active torsions:
REMARK  status: ('A' for Active; 'I' for Inactive)
REMARK    1  A    between atoms: C5_5  and  C6_6
REMARK    2  A    between atoms: C6_6  and  N1_7
REMARK    3  A    between atoms: C7_8  and  S1_9
REMARK    4  A    between atoms: S1_9  and  C8_10
REMARK    5  A    between atoms: C14_21  and  S2_22
REMARK    6  A    between atoms: S2_22  and  C15_23
REMARK    7  A    between atoms: C15_23  and  C16_24
REMARK       I    between atoms: C16_24  and  N4_26
REMARK    8  A    between atoms: N4_26  and  C17_28
REMARK    9  A    between atoms: C22_34  and  C23_35
ROOT
HETATM    1  C17 UNL     1      18.885   5.151  17.394  1.00  0.00     0.035 A
HETATM    2  C18 UNL     1      18.434   4.595  18.561  1.00  0.00     0.031 A
HETATM    3  C19 UNL     1      18.666   5.191  19.813  1.00  0.00     0.026 A
HETATM    4  C20 UNL     1      19.362   6.367  19.904  1.00  0.00     0.059 A
HETATM    5  C21 UNL     1      19.585   6.956  21.202  1.00  0.00     0.100 C
HETATM    6  N5  UNL     1      19.755   7.411  22.248  1.00  0.00    -0.191 NA
HETATM    7  C22 UNL     1      19.829   6.953  18.751  1.00  0.00     0.070 A
HETATM    8  C24 UNL     1      19.593   6.356  17.542  1.00  0.00     0.047 A
ENDROOT
BRANCH   7   9
HETATM    9  C23 UNL     1      20.586   8.232  18.858  1.00  0.00     0.419 C
HETATM   10  F1  UNL     1      20.755   8.749  17.573  1.00  0.00    -0.166 F
HETATM   11  F2  UNL     1      19.981   9.158  19.663  1.00  0.00    -0.166 F
HETATM   12  F3  UNL     1      21.830   7.910  19.413  1.00  0.00    -0.166 F
ENDBRANCH   7   9
BRANCH   1  13
HETATM   13  N4  UNL     1      18.680   4.623  16.100  1.00  0.00    -0.327 N
HETATM   14  C16 UNL     1      17.508   4.625  15.343  1.00  0.00     0.231 C
HETATM   15  O1  UNL     1      16.443   5.115  15.718  1.00  0.00    -0.272 OA
ATOM     16  H4  UNL     1      19.491   4.185  15.663  1.00  0.00     0.169 HD
BRANCH  14  17
HETATM   17  C15 UNL     1      17.501   3.996  13.961  1.00  0.00     0.185 C
BRANCH  17  18
HETATM   18  S2  UNL     1      16.808   5.212  12.858  1.00  0.00    -0.083 SA
BRANCH  18  19
HETATM   19  C14 UNL     1      15.077   5.117  12.567  1.00  0.00     0.163 A
HETATM   20  N1  UNL     1      14.280   5.455  11.505  1.00  0.00    -0.305 N
HETATM   21  C7  UNL     1      13.007   5.159  11.797  1.00  0.00     0.167 A
HETATM   22  N2  UNL     1      13.027   4.628  13.060  1.00  0.00    -0.277 N
HETATM   23  N3  UNL     1      14.236   4.604  13.511  1.00  0.00    -0.278 N
ATOM     24  H2  UNL     1      12.206   4.301  13.569  1.00  0.00     0.189 HD
ATOM     25  H3  UNL     1      14.518   4.256  14.428  1.00  0.00     0.189 HD
BRANCH  20  26
HETATM   26  C6  UNL     1      14.754   6.100  10.336  1.00  0.00     0.138 C
BRANCH  26  27
HETATM   27  C5  UNL     1      15.130   7.530  10.339  1.00  0.00     0.004 C
HETATM   28  C4  UNL     1      14.342   8.433   9.427  1.00  0.00     0.006 C
HETATM   29  C3  UNL     1      14.558   9.851   9.951  1.00  0.00     0.005 C
HETATM   30  C2  UNL     1      15.973  10.247  10.059  1.00  0.00    -0.019 C
HETATM   31  C1  UNL     1      16.240  11.464   9.157  1.00  0.00     0.010 C
HETATM   32  C26 UNL     1      16.970   9.175   9.860  1.00  0.00     0.005 C
HETATM   33  C25 UNL     1      16.572   7.778  10.038  1.00  0.00     0.006 C
ENDBRANCH  26  27
ENDBRANCH  20  26
BRANCH  21  34
HETATM   34  S1  UNL     1      11.477   5.414  10.908  1.00  0.00    -0.064 SA
BRANCH  34  35
HETATM   35  C8  UNL     1      10.085   5.490  11.999  1.00  0.00     0.057 C
HETATM   36  C9  UNL     1       9.149   4.571  12.131  1.00  0.00    -0.055 C
HETATM   37  C10 UNL     1       8.922   3.263  11.486  1.00  0.00     0.036 C
HETATM   38  C13 UNL     1       7.997   4.745  13.102  1.00  0.00     0.111 C
HETATM   39  C11 UNL     1       7.899   2.534  12.361  1.00  0.00     0.006 C
HETATM   40  C12 UNL     1       7.860   3.343  13.648  1.00  0.00     0.025 C
HETATM   41 CL1  UNL     1       6.529   5.205  12.236  1.00  0.00    -0.120 Cl
ENDBRANCH  34  35
ENDBRANCH  21  34
ENDBRANCH  18  19
ENDBRANCH  17  18
ENDBRANCH  14  17
ENDBRANCH   1  13
TORSDOF 9
ENDMDL