MODEL 5
REMARK VINA RESULT: -8.552863465      2.263      3.638
REMARK  10 active torsions:
REMARK  status: ('A' for Active; 'I' for Inactive)
REMARK    1  A    between atoms: O1_2  and  C2_3
REMARK    2  A    between atoms: C5_7  and  O2_8
REMARK    3  A    between atoms: O2_8  and  C6_9
REMARK    4  A    between atoms: N1_12  and  C9_13
REMARK    5  A    between atoms: C9_13  and  C10_14
REMARK    6  A    between atoms: C10_14  and  C11_15
REMARK    7  A    between atoms: C11_15  and  S1_16
REMARK    8  A    between atoms: S1_16  and  C12_17
REMARK    9  A    between atoms: C13_20  and  C14_21
REMARK   10  A    between atoms: C18_25  and  O3_26
ROOT
HETATM    1  C9  UNL     1      15.614   4.253  15.664  1.00  0.00     0.273 C
ENDROOT
BRANCH   1   2
HETATM    2  N1  UNL     1      14.416   4.170  14.896  1.00  0.00     0.088 N
HETATM    3  C8  UNL     1      13.332   4.986  15.386  1.00  0.00     0.275 C
HETATM    4  C7  UNL     1      12.175   4.856  14.424  1.00  0.00     0.062 C
HETATM    5  C6  UNL     1      11.586   3.468  14.606  1.00  0.00     0.132 C
HETATM    6  C22 UNL     1      12.643   2.476  15.046  1.00  0.00     0.062 C
HETATM    7  C21 UNL     1      14.014   2.842  14.544  1.00  0.00     0.275 C
BRANCH   5   8
HETATM    8  O2  UNL     1      10.986   3.115  13.403  1.00  0.00    -0.346 OA
BRANCH   8   9
HETATM    9  C5  UNL     1       9.827   3.658  12.927  1.00  0.00     0.072 A
HETATM   10  C4  UNL     1       9.947   4.684  11.972  1.00  0.00     0.063 A
HETATM   11  C3  UNL     1       8.859   5.307  11.421  1.00  0.00     0.071 A
HETATM   12  C2  UNL     1       7.576   4.958  11.776  1.00  0.00     0.111 A
HETATM   13 CL1  UNL     1       9.046   6.592  10.222  1.00  0.00    -0.081 Cl
HETATM   14  C24 UNL     1       7.424   3.960  12.707  1.00  0.00     0.071 A
HETATM   15  C23 UNL     1       8.543   3.326  13.267  1.00  0.00     0.063 A
HETATM   16 CL4  UNL     1       5.816   3.488  13.187  1.00  0.00    -0.081 Cl
BRANCH  12  17
HETATM   17  O1  UNL     1       6.481   5.588  11.220  1.00  0.00    -0.352 OA
HETATM   18  C1  UNL     1       6.174   6.907  11.608  1.00  0.00     0.210 C
ENDBRANCH  12  17
ENDBRANCH   8   9
ENDBRANCH   5   8
ENDBRANCH   1   2
BRANCH   1  19
HETATM   19  C10 UNL     1      16.864   4.436  14.827  1.00  0.00     0.041 C
BRANCH  19  20
HETATM   20  C11 UNL     1      16.670   5.606  13.921  1.00  0.00     0.082 C
BRANCH  20  21
HETATM   21  S1  UNL     1      16.935   5.248  12.172  1.00  0.00    -0.111 SA
BRANCH  21  22
HETATM   22  C12 UNL     1      15.844   6.313  11.206  1.00  0.00     0.093 A
HETATM   23  N2  UNL     1      16.240   7.552  10.843  1.00  0.00    -0.350 N
HETATM   24  C13 UNL     1      15.479   8.393  10.119  1.00  0.00     0.053 A
ATOM     25  H2  UNL     1      17.166   7.867  11.133  1.00  0.00     0.166 HD
HETATM   26  C18 UNL     1      14.225   7.985   9.718  1.00  0.00     0.112 A
HETATM   27  C19 UNL     1      13.755   6.734  10.051  1.00  0.00     0.093 A
HETATM   28 CL2  UNL     1      12.170   6.216   9.545  1.00  0.00    -0.079 Cl
HETATM   29  C20 UNL     1      14.591   5.903  10.806  1.00  0.00     0.092 A
HETATM   30 CL3  UNL     1      14.014   4.309  11.223  1.00  0.00    -0.079 Cl
BRANCH  24  31
HETATM   31  C14 UNL     1      15.965   9.720   9.756  1.00  0.00    -0.006 C
HETATM   32  C15 UNL     1      17.428   9.821  10.169  1.00  0.00     0.021 C
HETATM   33  C16 UNL     1      15.231  10.842  10.457  1.00  0.00     0.021 C
HETATM   34  C17 UNL     1      15.939  10.018   8.273  1.00  0.00     0.021 C
ENDBRANCH  24  31
BRANCH  26  35
HETATM   35  O3  UNL     1      13.468   8.875   8.974  1.00  0.00    -0.357 OA
ATOM     36  H3  UNL     1      12.529   8.877   9.113  1.00  0.00     0.217 HD
ENDBRANCH  26  35
ENDBRANCH  21  22
ENDBRANCH  20  21
ENDBRANCH  19  20
ENDBRANCH   1  19
TORSDOF 10
ENDMDL