MODEL 5
REMARK VINA RESULT: -8.821315788      1.302      1.833
REMARK  9 active torsions:
REMARK  status: ('A' for Active; 'I' for Inactive)
REMARK    1  A    between atoms: C2_2  and  C3_3
REMARK    2  A    between atoms: C3_3  and  S1_4
REMARK    3  A    between atoms: S1_4  and  C4_5
REMARK    4  A    between atoms: C5_8  and  N2_9
REMARK    5  A    between atoms: N2_9  and  C6_11
REMARK    6  A    between atoms: C9_15  and  N3_16
REMARK    7  A    between atoms: C15_22  and  C16_23
REMARK    8  A    between atoms: C18_27  and  O1_28
REMARK    9  A    between atoms: O1_28  and  C19_29
ROOT
HETATM    1  C4  UNL     1      14.744   4.064  14.514  1.00  0.00     0.162 A
HETATM    2  N1  UNL     1      14.881   4.454  13.238  1.00  0.00    -0.170 N
ATOM      3  H1  UNL     1      15.800   4.737  12.896  1.00  0.00     0.186 HD
HETATM    4  C5  UNL     1      13.839   4.480  12.409  1.00  0.00     0.687 A
HETATM    5  N4  UNL     1      12.640   4.103  12.884  1.00  0.00    -0.154 N
ATOM      6  H4  UNL     1      11.835   4.118  12.257  1.00  0.00     0.188 HD
HETATM    7  C18 UNL     1      12.466   3.707  14.154  1.00  0.00     0.245 A
HETATM    8  N5  UNL     1      13.532   3.687  14.979  1.00  0.00    -0.301 N
ATOM      9  H5  UNL     1      13.425   3.390  15.949  1.00  0.00     0.171 HD
ENDROOT
BRANCH   4  10
HETATM   10  N2  UNL     1      13.903   4.844  11.177  1.00  0.00    -0.191 N
ATOM     11  H2  UNL     1      13.853   4.093  10.489  1.00  0.00     0.184 HD
BRANCH  10  12
HETATM   12  C6  UNL     1      14.030   6.124  10.665  1.00  0.00     0.057 A
HETATM   13  C7  UNL     1      15.158   6.873  10.898  1.00  0.00     0.056 A
HETATM   14  C8  UNL     1      15.252   8.165  10.363  1.00  0.00     0.062 A
HETATM   15 CL1  UNL     1      16.697   9.085  10.679  1.00  0.00    -0.082 Cl
HETATM   16  C9  UNL     1      14.226   8.709   9.600  1.00  0.00     0.052 A
HETATM   17  C14 UNL     1      13.088   7.921   9.379  1.00  0.00     0.040 A
HETATM   18  C15 UNL     1      13.010   6.650   9.913  1.00  0.00    -0.029 A
BRANCH  16  19
HETATM   19  N3  UNL     1      14.302  10.018   9.050  1.00  0.00    -0.379 N
HETATM   20  C10 UNL     1      13.656  11.248   9.473  1.00  0.00     0.123 C
HETATM   21  C11 UNL     1      14.857  12.200   9.489  1.00  0.00     0.021 C
HETATM   22  C12 UNL     1      15.633  11.762   8.257  1.00  0.00     0.021 C
HETATM   23  C13 UNL     1      15.093  10.389   7.887  1.00  0.00     0.123 C
ENDBRANCH  16  19
BRANCH  18  24
HETATM   24  C16 UNL     1      11.816   5.844   9.674  1.00  0.00     0.036 C
HETATM   25  C17 UNL     1      10.694   6.382  10.521  1.00  0.00     0.010 C
ENDBRANCH  18  24
ENDBRANCH  10  12
ENDBRANCH   4  10
BRANCH   1  26
HETATM   26  S1  UNL     1      16.172   4.038  15.622  1.00  0.00    -0.093 SA
BRANCH  26  27
HETATM   27  C3  UNL     1      17.562   4.853  14.805  1.00  0.00     0.082 C
BRANCH  27  28
HETATM   28  C2  UNL     1      18.829   4.684  15.597  1.00  0.00     0.006 C
HETATM   29  C1  UNL     1      19.028   3.211  15.900  1.00  0.00     0.006 C
ENDBRANCH  27  28
ENDBRANCH  26  27
ENDBRANCH   1  26
BRANCH   7  30
HETATM   30  O1  UNL     1      11.205   3.317  14.627  1.00  0.00    -0.275 OA
BRANCH  30  31
HETATM   31  C19 UNL     1      10.082   3.741  13.929  1.00  0.00     0.122 A
HETATM   32  C20 UNL     1       9.660   5.043  13.947  1.00  0.00     0.071 A
HETATM   33 CL2  UNL     1      10.561   6.214  14.879  1.00  0.00    -0.081 Cl
HETATM   34  C21 UNL     1       8.534   5.456  13.243  1.00  0.00     0.050 A
HETATM   35  C22 UNL     1       7.837   4.535  12.519  1.00  0.00     0.037 A
HETATM   36 CL3  UNL     1       6.420   5.067  11.636  1.00  0.00    -0.084 Cl
HETATM   37  C23 UNL     1       8.258   3.225  12.498  1.00  0.00     0.050 A
HETATM   38  C24 UNL     1       9.384   2.803  13.199  1.00  0.00     0.071 A
HETATM   39 CL4  UNL     1       9.918   1.151  13.175  1.00  0.00    -0.081 Cl
ENDBRANCH  30  31
ENDBRANCH   7  30
TORSDOF 9
ENDMDL