MODEL 3
REMARK VINA RESULT: -8.758754924      2.569      5.052
REMARK  8 active torsions:
REMARK  status: ('A' for Active; 'I' for Inactive)
REMARK    1  A    between atoms: C2_2  and  C3_3
REMARK    2  A    between atoms: C3_3  and  C4_4
REMARK    3  A    between atoms: C4_4  and  C5_5
REMARK    4  A    between atoms: C5_5  and  N1_6
REMARK    5  A    between atoms: N1_6  and  C6_8
REMARK    6  A    between atoms: C9_11  and  C10_12
REMARK    7  A    between atoms: C10_12  and  N2_13
REMARK       I    between atoms: N4_21  and  C16_22
REMARK    8  A    between atoms: C16_22  and  C17_24
ROOT
HETATM    1  N2  UNL     1      13.214   3.781  14.982  1.00  0.00    -0.388 N
HETATM    2  C11 UNL     1      13.594   4.160  16.297  1.00  0.00     0.127 C
HETATM    3  C12 UNL     1      15.064   4.476  16.335  1.00  0.00     0.062 C
HETATM    4  C13 UNL     1      15.667   4.552  14.978  1.00  0.00    -0.008 A
HETATM    5  C14 UNL     1      16.873   4.023  14.627  1.00  0.00     0.031 A
HETATM    6  C15 UNL     1      17.802   3.275  15.559  1.00  0.00     0.070 C
HETATM    7  N3  UNL     1      17.054   4.291  13.348  1.00  0.00    -0.295 N
ATOM      8  H3  UNL     1      17.873   4.018  12.806  1.00  0.00     0.187 HD
HETATM    9  N4  UNL     1      15.992   4.982  12.856  1.00  0.00    -0.223 N
HETATM   10  C16 UNL     1      15.991   5.373  11.502  1.00  0.00     0.280 C
HETATM   11  O1  UNL     1      17.039   5.098  10.808  1.00  0.00    -0.265 OA
HETATM   12  C22 UNL     1      15.132   5.153  13.841  1.00  0.00     0.047 A
HETATM   13  C23 UNL     1      13.841   5.850  13.832  1.00  0.00     0.080 C
HETATM   14  C24 UNL     1      12.737   4.840  14.160  1.00  0.00     0.128 C
ENDROOT
BRANCH   1  15
HETATM   15  C10 UNL     1      12.719   2.492  14.760  1.00  0.00     0.100 C
BRANCH  15  16
HETATM   16  C9  UNL     1      11.307   2.340  14.369  1.00  0.00     0.018 A
HETATM   17  C8  UNL     1      10.811   2.469  13.093  1.00  0.00     0.020 A
HETATM   18  C7  UNL     1       9.445   2.287  12.837  1.00  0.00     0.049 A
HETATM   19  C6  UNL     1       8.546   1.974  13.835  1.00  0.00     0.102 A
HETATM   20  N6  UNL     1       9.065   1.855  15.070  1.00  0.00    -0.333 N
HETATM   21  C25 UNL     1      10.367   2.024  15.350  1.00  0.00     0.116 A
ATOM     22  H6  UNL     1       8.433   1.625  15.836  1.00  0.00     0.168 HD
HETATM   23 CL4  UNL     1      10.981   1.852  16.997  1.00  0.00    -0.064 Cl
BRANCH  19  24
HETATM   24  N1  UNL     1       7.159   1.786  13.573  1.00  0.00    -0.376 N
ATOM     25  H1  UNL     1       6.802   0.835  13.479  1.00  0.00     0.161 HD
BRANCH  24  26
HETATM   26  C5  UNL     1       6.239   2.893  13.435  1.00  0.00     0.121 C
BRANCH  26  27
HETATM   27  C4  UNL     1       6.669   3.850  12.357  1.00  0.00     0.020 C
BRANCH  27  28
HETATM   28  C3  UNL     1       6.865   5.253  12.900  1.00  0.00     0.001 C
BRANCH  28  29
HETATM   29  C2  UNL     1       8.298   5.677  12.879  1.00  0.00    -0.004 C
HETATM   30  C1  UNL     1       8.903   5.657  14.270  1.00  0.00     0.005 C
ENDBRANCH  28  29
ENDBRANCH  27  28
ENDBRANCH  26  27
ENDBRANCH  24  26
ENDBRANCH  19  24
ENDBRANCH  15  16
ENDBRANCH   1  15
BRANCH  10  31
HETATM   31  C17 UNL     1      14.970   6.047  10.757  1.00  0.00     0.082 A
HETATM   32  C18 UNL     1      13.847   5.332  10.336  1.00  0.00     0.067 A
HETATM   33 CL1  UNL     1      13.747   3.628  10.684  1.00  0.00    -0.082 Cl
HETATM   34  C19 UNL     1      12.860   6.008   9.662  1.00  0.00     0.114 A
HETATM   35  N5  UNL     1      12.938   7.319   9.396  1.00  0.00    -0.354 N
HETATM   36  C20 UNL     1      14.015   8.032   9.793  1.00  0.00     0.126 A
ATOM     37  H5  UNL     1      12.182   7.782   8.891  1.00  0.00     0.166 HD
HETATM   38 CL2  UNL     1      14.056   9.750   9.412  1.00  0.00    -0.063 Cl
HETATM   39  C21 UNL     1      15.024   7.407  10.468  1.00  0.00     0.090 A
HETATM   40 CL3  UNL     1      16.404   8.335  10.994  1.00  0.00    -0.080 Cl
ENDBRANCH  10  31
TORSDOF 8
ENDMDL