MODEL 5
REMARK VINA RESULT: -7.857873564      0.587      2.453
REMARK  9 active torsions:
REMARK  status: ('A' for Active; 'I' for Inactive)
REMARK    1  A    between atoms: C2_2  and  C3_3
REMARK    2  A    between atoms: C3_3  and  C4_4
REMARK    3  A    between atoms: C4_4  and  N1_5
REMARK    4  A    between atoms: N1_5  and  C5_6
REMARK    5  A    between atoms: N1_5  and  C8_9
REMARK    6  A    between atoms: C5_6  and  C6_7
REMARK    7  A    between atoms: C9_12  and  C10_13
REMARK    8  A    between atoms: C11_17  and  C12_18
REMARK    9  A    between atoms: C18_30  and  C19_31
ROOT
HETATM    1  C12 UNL     1      13.438   5.735  11.354  1.00  0.00     0.156 A
HETATM    2  N3  UNL     1      12.256   5.586  10.673  1.00  0.00    -0.172 N
ATOM      3  H3  UNL     1      12.102   5.780   9.684  1.00  0.00     0.186 HD
HETATM    4  C13 UNL     1      11.339   5.137  11.547  1.00  0.00     0.702 A
HETATM    5  N4  UNL     1      11.958   5.021  12.734  1.00  0.00    -0.088 N
HETATM    6  N5  UNL     1      13.226   5.379  12.616  1.00  0.00    -0.263 N
ATOM      7  H5  UNL     1      13.920   5.382  13.363  1.00  0.00     0.190 HD
HETATM    8  C14 UNL     1      11.191   4.598  13.853  1.00  0.00     0.065 C
HETATM    9  C15 UNL     1      11.652   3.818  14.803  1.00  0.00     0.084 C
HETATM   10 BR1  UNL     1      13.441   3.182  14.739  1.00  0.00    -0.061 Br
HETATM   11  C16 UNL     1       9.766   5.107  13.885  1.00  0.00     0.062 C
HETATM   12  C17 UNL     1       9.082   4.670  15.134  1.00  0.00     0.019 C
HETATM   13  C18 UNL     1       9.073   4.683  12.608  1.00  0.00     0.142 C
HETATM   14  N6  UNL     1       9.959   4.783  11.468  1.00  0.00    -0.215 N
ATOM     15  H6  UNL     1       9.570   4.587  10.546  1.00  0.00     0.178 HD
ENDROOT
BRANCH   1  16
HETATM   16  C11 UNL     1      14.670   6.269  10.752  1.00  0.00     0.086 A
HETATM   17  C9  UNL     1      15.876   5.723  10.453  1.00  0.00     0.139 A
HETATM   18  N2  UNL     1      16.792   6.501   9.965  1.00  0.00    -0.332 N
HETATM   19  C8  UNL     1      16.551   7.788   9.768  1.00  0.00     0.148 A
ATOM     20  H2  UNL     1      17.708   6.118   9.731  1.00  0.00     0.168 HD
HETATM   21  S1  UNL     1      14.932   7.928  10.297  1.00  0.00    -0.048 SA
BRANCH  17  22
HETATM   22  C10 UNL     1      16.149   4.238  10.651  1.00  0.00     0.434 C
HETATM   23  F1  UNL     1      15.117   3.514  10.133  1.00  0.00    -0.165 F
HETATM   24  F2  UNL     1      17.279   3.852   9.916  1.00  0.00    -0.165 F
HETATM   25  F3  UNL     1      16.467   3.955  11.957  1.00  0.00    -0.165 F
ENDBRANCH  17  22
BRANCH  19  26
HETATM   26  N1  UNL     1      17.453   8.784   9.268  1.00  0.00    -0.361 N
BRANCH  26  27
HETATM   27  C4  UNL     1      17.453  10.109   9.779  1.00  0.00     0.125 C
BRANCH  27  28
HETATM   28  C3  UNL     1      17.006  11.177   8.825  1.00  0.00     0.019 C
BRANCH  28  29
HETATM   29  C2  UNL     1      15.545  11.470   8.863  1.00  0.00    -0.003 C
HETATM   30  C1  UNL     1      14.786  10.854   7.704  1.00  0.00     0.005 C
ENDBRANCH  28  29
ENDBRANCH  27  28
ENDBRANCH  26  27
BRANCH  26  31
HETATM   31  C5  UNL     1      18.357   8.389   8.218  1.00  0.00     0.124 C
BRANCH  31  32
HETATM   32  C6  UNL     1      19.454   7.530   8.813  1.00  0.00     0.015 C
HETATM   33  C7  UNL     1      19.491   6.204   8.080  1.00  0.00     0.006 C
ENDBRANCH  31  32
ENDBRANCH  26  31
ENDBRANCH  19  26
ENDBRANCH   1  16
BRANCH  13  34
HETATM   34  C19 UNL     1       8.534   3.304  12.804  1.00  0.00    -0.034 A
HETATM   35  C20 UNL     1       7.235   3.094  13.212  1.00  0.00     0.009 A
HETATM   36  C21 UNL     1       6.723   1.818  13.404  1.00  0.00     0.001 A
HETATM   37  C22 UNL     1       7.535   0.720  13.181  1.00  0.00     0.000 A
HETATM   38  C23 UNL     1       8.837   0.913  12.772  1.00  0.00     0.001 A
HETATM   39  C24 UNL     1       9.333   2.191  12.585  1.00  0.00     0.009 A
ENDBRANCH  13  34
TORSDOF 9
ENDMDL