MODEL 5
REMARK VINA RESULT: -9.550687174      5.938     10.393
REMARK  12 active torsions:
REMARK  status: ('A' for Active; 'I' for Inactive)
REMARK    1  A    between atoms: C6_8  and  C7_9
REMARK    2  A    between atoms: N3_12  and  C8_13
REMARK    3  A    between atoms: C12_19  and  C13_20
REMARK    4  A    between atoms: C13_20  and  C14_21
REMARK    5  A    between atoms: C14_21  and  C15_22
REMARK    6  A    between atoms: C15_22  and  O1_23
REMARK    7  A    between atoms: N5_30  and  C21_31
REMARK    8  A    between atoms: C21_31  and  C22_32
REMARK    9  A    between atoms: C22_32  and  C23_33
REMARK   10  A    between atoms: C23_33  and  C24_34
REMARK   11  A    between atoms: C24_34  and  C25_35
REMARK   12  A    between atoms: C26_37  and  C27_38
ROOT
HETATM    1  C1  UNL     1      13.079  10.257   8.602  1.00  0.00     0.069 C
HETATM    2  C2  UNL     1      13.962   9.340   9.434  1.00  0.00     0.019 A
HETATM    3  N1  UNL     1      13.528   8.058   9.670  1.00  0.00    -0.345 N
ATOM      4  H1  UNL     1      12.627   7.738   9.317  1.00  0.00     0.167 HD
HETATM    5  C3  UNL     1      14.335   7.220  10.391  1.00  0.00     0.110 A
HETATM    6  C4  UNL     1      15.543   7.626  10.870  1.00  0.00    -0.013 A
HETATM    7  C5  UNL     1      15.983   8.883  10.659  1.00  0.00     0.026 A
HETATM    8  C6  UNL     1      15.140   9.766   9.900  1.00  0.00     0.017 A
HETATM    9  C16 UNL     1      16.611   6.676  11.417  1.00  0.00     0.042 C
HETATM   10  C17 UNL     1      16.915   5.704  10.277  1.00  0.00     0.007 C
HETATM   11  C18 UNL     1      15.859   4.891   9.734  1.00  0.00     0.025 C
HETATM   12  C19 UNL     1      14.574   4.691  10.505  1.00  0.00     0.081 C
HETATM   13  C20 UNL     1      14.897   3.999  11.774  1.00  0.00     0.032 C
HETATM   14  N5  UNL     1      13.771   5.909  10.619  1.00  0.00    -0.362 N
ENDROOT
BRANCH   8  15
HETATM   15  C7  UNL     1      15.822  11.014   9.588  1.00  0.00     0.086 A
HETATM   16  N2  UNL     1      16.816  11.133   8.659  1.00  0.00    -0.281 N
HETATM   17  N3  UNL     1      17.240  12.396   8.636  1.00  0.00    -0.225 N
ATOM     18  H2  UNL     1      17.175  10.377   8.078  1.00  0.00     0.189 HD
HETATM   19  N4  UNL     1      16.559  13.070   9.501  1.00  0.00    -0.285 N
HETATM   20  C12 UNL     1      15.644  12.248  10.124  1.00  0.00     0.056 A
ATOM     21  H4  UNL     1      16.681  14.064   9.695  1.00  0.00     0.188 HD
BRANCH  17  22
HETATM   22  C8  UNL     1      18.325  12.799   7.721  1.00  0.00     0.060 C
HETATM   23  C9  UNL     1      17.686  13.352   6.452  1.00  0.00     0.041 C
HETATM   24  C10 UNL     1      19.177  11.651   7.304  1.00  0.00     0.041 C
HETATM   25  C11 UNL     1      19.182  13.887   8.301  1.00  0.00     0.041 C
ENDBRANCH  17  22
BRANCH  20  26
HETATM   26  C13 UNL     1      14.564  12.698  10.983  1.00  0.00     0.063 C
BRANCH  26  27
HETATM   27  C14 UNL     1      13.952  14.030  10.804  1.00  0.00     0.032 C
BRANCH  27  28
HETATM   28  C15 UNL     1      12.705  13.729   9.924  1.00  0.00     0.164 C
BRANCH  28  29
HETATM   29  O1  UNL     1      11.794  12.928  10.541  1.00  0.00    -0.401 OA
ATOM     30  H1  UNL     1      11.055  13.407  10.898  1.00  0.00     0.209 HD
ENDBRANCH  28  29
ENDBRANCH  27  28
ENDBRANCH  26  27
ENDBRANCH  20  26
ENDBRANCH   8  15
BRANCH  14  31
HETATM   31  C21 UNL     1      12.399   5.874  10.955  1.00  0.00     0.125 C
BRANCH  31  32
HETATM   32  C22 UNL     1      11.544   5.048   9.981  1.00  0.00     0.031 C
BRANCH  32  33
HETATM   33  C23 UNL     1      10.100   4.982  10.542  1.00  0.00     0.088 C
BRANCH  33  34
HETATM   34  C24 UNL     1       9.737   4.629  11.643  1.00  0.00    -0.134 C
BRANCH  34  35
HETATM   35  C25 UNL     1       9.324   3.817  12.753  1.00  0.00     0.085 A
HETATM   36  S1  UNL     1       9.503   4.018  14.443  1.00  0.00    -0.074 SA
HETATM   37  C26 UNL     1       8.795   2.584  15.016  1.00  0.00     0.092 A
HETATM   38  C28 UNL     1       8.432   1.964  13.869  1.00  0.00     0.068 A
HETATM   39  C29 UNL     1       8.683   2.572  12.695  1.00  0.00     0.142 A
HETATM   40  F4  UNL     1       8.365   2.008  11.479  1.00  0.00    -0.204 F
BRANCH  37  41
HETATM   41  C27 UNL     1       8.589   2.107  16.431  1.00  0.00     0.423 C
HETATM   42  F1  UNL     1       9.797   1.812  16.975  1.00  0.00    -0.166 F
HETATM   43  F2  UNL     1       7.900   2.972  17.210  1.00  0.00    -0.166 F
HETATM   44  F3  UNL     1       7.882   0.902  16.336  1.00  0.00    -0.166 F
ENDBRANCH  37  41
ENDBRANCH  34  35
ENDBRANCH  33  34
ENDBRANCH  32  33
ENDBRANCH  31  32
ENDBRANCH  14  31
TORSDOF 12
ENDMDL