MODEL 2
REMARK VINA RESULT: -9.835323165      0.022      1.494
REMARK  9 active torsions:
REMARK  status: ('A' for Active; 'I' for Inactive)
REMARK    1  A    between atoms: N1_1  and  C1_4
REMARK    2  A    between atoms: C2_7  and  O1_8
REMARK    3  A    between atoms: O1_8  and  C3_9
REMARK    4  A    between atoms: N3_16  and  C9_17
REMARK    5  A    between atoms: N4_20  and  C12_21
REMARK    6  A    between atoms: C12_21  and  C13_22
REMARK    7  A    between atoms: C13_22  and  C14_23
REMARK    8  A    between atoms: C14_23  and  O2_24
REMARK    9  A    between atoms: O2_24  and  C15_25
ROOT
HETATM    1  C1  UNL     1      16.588   5.174  13.439  1.00  0.00     0.111 A
HETATM    2  N2  UNL     1      16.852   5.779  12.298  1.00  0.00    -0.307 N
ATOM      3  H2  UNL     1      17.804   6.124  12.169  1.00  0.00     0.171 HD
HETATM    4  C2  UNL     1      15.977   5.990  11.272  1.00  0.00     0.238 A
HETATM    5  N3  UNL     1      14.724   5.537  11.452  1.00  0.00    -0.278 N
HETATM    6  C23 UNL     1      14.415   4.894  12.640  1.00  0.00     0.089 A
HETATM    7  C24 UNL     1      15.288   4.683  13.654  1.00  0.00     0.020 A
HETATM    8  C25 UNL     1      14.761   3.978  14.832  1.00  0.00     0.056 C
HETATM    9  C26 UNL     1      13.297   4.276  14.998  1.00  0.00     0.086 C
HETATM   10  S1  UNL     1      12.835   4.189  13.206  1.00  0.00    -0.111 SA
ENDROOT
BRANCH   5  11
HETATM   11  C9  UNL     1      13.605   5.775  10.631  1.00  0.00     0.002 C
HETATM   12  C10 UNL     1      13.507   7.029   9.842  1.00  0.00     0.083 C
HETATM   13  C11 UNL     1      12.044   7.346   9.720  1.00  0.00     0.278 C
HETATM   14  N4  UNL     1      11.114   6.288   9.662  1.00  0.00     0.089 N
HETATM   15  C21 UNL     1      11.587   4.959   9.556  1.00  0.00     0.278 C
HETATM   16  C22 UNL     1      13.050   4.694   9.774  1.00  0.00     0.083 C
BRANCH  14  17
HETATM   17  C12 UNL     1      10.060   6.414  10.672  1.00  0.00     0.274 C
BRANCH  17  18
HETATM   18  C13 UNL     1       8.776   5.746  10.293  1.00  0.00     0.057 C
BRANCH  18  19
HETATM   19  C14 UNL     1       8.295   4.788  11.363  1.00  0.00     0.177 C
BRANCH  19  20
HETATM   20  O2  UNL     1       9.289   4.072  12.013  1.00  0.00    -0.348 OA
BRANCH  20  21
HETATM   21  C15 UNL     1       9.068   3.460  13.229  1.00  0.00     0.112 A
HETATM   22  C16 UNL     1       9.263   4.153  14.417  1.00  0.00     0.070 A
HETATM   23 CL1  UNL     1       9.795   5.833  14.435  1.00  0.00    -0.081 Cl
HETATM   24  C17 UNL     1       9.048   3.563  15.641  1.00  0.00     0.050 A
HETATM   25  C18 UNL     1       8.630   2.255  15.701  1.00  0.00     0.037 A
HETATM   26 CL2  UNL     1       8.342   1.470  17.256  1.00  0.00    -0.084 Cl
HETATM   27  C19 UNL     1       8.433   1.559  14.540  1.00  0.00     0.050 A
HETATM   28  C20 UNL     1       8.649   2.150  13.317  1.00  0.00     0.070 A
HETATM   29 CL3  UNL     1       8.377   1.189  11.887  1.00  0.00    -0.081 Cl
ENDBRANCH  20  21
ENDBRANCH  19  20
ENDBRANCH  18  19
ENDBRANCH  17  18
ENDBRANCH  14  17
ENDBRANCH   5  11
BRANCH   4  30
HETATM   30  O1  UNL     1      16.348   6.624  10.157  1.00  0.00    -0.276 OA
BRANCH  30  31
HETATM   31  C3  UNL     1      16.978   7.788   9.850  1.00  0.00     0.117 A
HETATM   32  C4  UNL     1      18.079   7.654   8.947  1.00  0.00     0.040 A
HETATM   33  C5  UNL     1      18.809   8.741   8.541  1.00  0.00     0.003 A
HETATM   34  C6  UNL     1      18.516  10.011   8.984  1.00  0.00     0.003 A
HETATM   35  C7  UNL     1      17.476  10.180   9.841  1.00  0.00     0.045 A
HETATM   36  C8  UNL     1      16.744   9.065  10.242  1.00  0.00     0.150 A
HETATM   37  F1  UNL     1      15.692   9.347  11.030  1.00  0.00    -0.203 F
ENDBRANCH  30  31
ENDBRANCH   4  30
BRANCH   1  38
HETATM   38  N1  UNL     1      17.462   5.004  14.391  1.00  0.00    -0.385 N
ATOM     39  H12 UNL     1      18.423   4.797  14.118  1.00  0.00     0.157 HD
ATOM     40  H11 UNL     1      17.240   5.063  15.385  1.00  0.00     0.157 HD
ENDBRANCH   1  38
TORSDOF 9
ENDMDL