MODEL 4
REMARK VINA RESULT: -8.141276511      1.128      1.405
REMARK  8 active torsions:
REMARK  status: ('A' for Active; 'I' for Inactive)
REMARK       I    between atoms: C1_4  and  N2_5
REMARK       I    between atoms: C1_4  and  N9_20
REMARK    1  A    between atoms: N2_5  and  N3_7
REMARK    2  A    between atoms: N4_9  and  N5_11
REMARK       I    between atoms: N5_11  and  C2_13
REMARK       I    between atoms: C2_13  and  N7_15
REMARK    3  A    between atoms: N7_15  and  N8_17
REMARK    4  A    between atoms: N9_20  and  O1_22
REMARK    5  A    between atoms: O1_22  and  C3_23
REMARK    6  A    between atoms: C3_23  and  N10_24
REMARK    7  A    between atoms: C6_29  and  N12_30
REMARK    8  A    between atoms: C7_35  and  N14_36
ROOT
HETATM    1  N1  UNL     1     -34.541  17.931 -11.318  1.00  0.00    -0.232 N
ATOM      2  H11 UNL     1     -34.954  18.766 -11.732  1.00  0.00     0.174 HD
ATOM      3  H12 UNL     1     -34.860  17.603 -10.406  1.00  0.00     0.174 HD
HETATM    4  C1  UNL     1     -33.626  17.289 -11.930  1.00  0.00     0.711 C
HETATM    5  N2  UNL     1     -33.056  16.137 -11.357  1.00  0.00    -0.115 N
ATOM      6  H2  UNL     1     -32.045  16.129 -11.222  1.00  0.00     0.207 HD
HETATM    7  N9  UNL     1     -33.185  17.741 -13.188  1.00  0.00    -0.094 N
ATOM      8  H9  UNL     1     -33.868  17.832 -13.941  1.00  0.00     0.213 HD
ENDROOT
BRANCH   7   9
HETATM    9  O1  UNL     1     -31.888  18.062 -13.443  1.00  0.00    -0.246 OA
BRANCH   9  10
HETATM   10  C3  UNL     1     -31.860  18.680 -14.690  1.00  0.00     0.335 C
BRANCH  10  11
HETATM   11  N10 UNL     1     -31.115  19.911 -14.678  1.00  0.00    -0.302 N
HETATM   12  C4  UNL     1     -31.345  21.062 -14.052  1.00  0.00     0.187 A
HETATM   13  N11 UNL     1     -30.376  21.950 -14.331  1.00  0.00    -0.346 N
HETATM   14  C5  UNL     1     -29.474  21.366 -15.172  1.00  0.00     0.123 A
ATOM     15  H11 UNL     1     -30.324  22.904 -13.973  1.00  0.00     0.167 HD
HETATM   16  C6  UNL     1     -28.308  21.800 -15.769  1.00  0.00     0.145 A
HETATM   17  C8  UNL     1     -29.959  20.089 -15.375  1.00  0.00     0.156 A
HETATM   18  N13 UNL     1     -27.627  20.964 -16.567  1.00  0.00    -0.175 N
HETATM   19  C7  UNL     1     -28.086  19.708 -16.779  1.00  0.00     0.679 A
ATOM     20  H13 UNL     1     -26.764  21.275 -17.013  1.00  0.00     0.186 HD
HETATM   21  N15 UNL     1     -29.224  19.298 -16.190  1.00  0.00    -0.174 N
ATOM     22  H15 UNL     1     -29.547  18.347 -16.366  1.00  0.00     0.186 HD
BRANCH  16  23
HETATM   23  N12 UNL     1     -27.863  22.988 -15.576  1.00  0.00    -0.383 N
ATOM     24 2H12 UNL     1     -28.515  23.772 -15.576  1.00  0.00     0.157 HD
ATOM     25 1H12 UNL     1     -26.870  23.163 -15.424  1.00  0.00     0.157 HD
ENDBRANCH  16  23
BRANCH  19  26
HETATM   26  N14 UNL     1     -27.402  18.932 -17.555  1.00  0.00    -0.234 N
ATOM     27 2H14 UNL     1     -26.799  19.302 -18.289  1.00  0.00     0.174 HD
ATOM     28 1H14 UNL     1     -27.477  17.925 -17.415  1.00  0.00     0.174 HD
ENDBRANCH  19  26
ENDBRANCH  10  11
ENDBRANCH   9  10
ENDBRANCH   7   9
BRANCH   5  29
HETATM   29  N3  UNL     1     -33.767  15.008 -10.963  1.00  0.00    -0.214 N
HETATM   30  N4  UNL     1     -34.165  14.794  -9.793  1.00  0.00    -0.225 N
ATOM     31  H4  UNL     1     -33.978  15.464  -9.047  1.00  0.00     0.210 HD
ATOM     32  H3  UNL     1     -33.979  14.308 -11.673  1.00  0.00     0.210 HD
BRANCH  30  33
HETATM   33  N5  UNL     1     -34.870  13.615  -9.535  1.00  0.00    -0.257 N
HETATM   34  C2  UNL     1     -35.952  13.708  -8.609  1.00  0.00     0.222 C
HETATM   35  N6  UNL     1     -36.706  14.890  -8.526  1.00  0.00    -0.061 NA
HETATM   36  N7  UNL     1     -36.242  12.715  -7.848  1.00  0.00    -0.279 N
ATOM     37  H7  UNL     1     -37.022  12.813  -7.198  1.00  0.00     0.189 HD
ATOM     38  H5  UNL     1     -34.625  12.733  -9.985  1.00  0.00     0.191 HD
BRANCH  36  39
HETATM   39  N8  UNL     1     -35.548  11.517  -7.868  1.00  0.00    -0.343 N
ATOM     40  H82 UNL     1     -35.390  11.083  -8.777  1.00  0.00     0.176 HD
ATOM     41  H81 UNL     1     -35.196  11.062  -7.026  1.00  0.00     0.176 HD
ENDBRANCH  36  39
ENDBRANCH  30  33
ENDBRANCH   5  29
TORSDOF 8
ENDMDL