MODEL 5
REMARK VINA RESULT: -7.612277296      2.136      3.569
REMARK  8 active torsions:
REMARK  status: ('A' for Active; 'I' for Inactive)
REMARK       I    between atoms: N1_1  and  C1_5
REMARK       I    between atoms: C1_5  and  N2_6
REMARK       I    between atoms: C1_5  and  N3_10
REMARK    1  A    between atoms: N4_12  and  N5_14
REMARK       I    between atoms: N5_14  and  C2_16
REMARK       I    between atoms: C2_16  and  N6_18
REMARK    2  A    between atoms: N6_18  and  N7_20
REMARK       I    between atoms: N7_20  and  C3_22
REMARK    3  A    between atoms: C3_22  and  C4_24
REMARK    4  A    between atoms: C4_24  and  C5_25
REMARK    5  A    between atoms: C4_24  and  N8_27
REMARK    6  A    between atoms: N8_27  and  O3_28
REMARK    7  A    between atoms: N8_27  and  C6_30
REMARK    8  A    between atoms: C7_33  and  N10_34
ROOT
HETATM    1  N7  UNL     1     -31.440  19.317 -13.104  1.00  0.00    -0.264 N
ATOM      2  H7  UNL     1     -30.580  18.789 -12.955  1.00  0.00     0.190 HD
HETATM    3  C3  UNL     1     -31.370  20.302 -14.089  1.00  0.00     0.262 C
HETATM    4  O2  UNL     1     -32.286  21.058 -14.445  1.00  0.00    -0.269 OA
ENDROOT
BRANCH   1   5
HETATM    5  N6  UNL     1     -32.480  18.957 -12.320  1.00  0.00    -0.248 N
HETATM    6  C2  UNL     1     -33.546  18.083 -12.540  1.00  0.00     0.354 C
HETATM    7  N5  UNL     1     -34.514  17.905 -11.496  1.00  0.00    -0.236 N
HETATM    8  O1  UNL     1     -33.726  17.445 -13.569  1.00  0.00    -0.244 OA
ATOM      9  H5  UNL     1     -34.431  18.407 -10.612  1.00  0.00     0.193 HD
ATOM     10  H6  UNL     1     -32.488  19.405 -11.403  1.00  0.00     0.192 HD
BRANCH   7  11
HETATM   11  N4  UNL     1     -35.570  17.029 -11.725  1.00  0.00    -0.240 N
HETATM   12  N3  UNL     1     -36.075  16.283 -10.874  1.00  0.00    -0.269 N
HETATM   13  C1  UNL     1     -35.624  16.228  -9.510  1.00  0.00     0.495 C
ATOM     14  H3  UNL     1     -36.847  15.680 -11.154  1.00  0.00     0.185 HD
HETATM   15  N1  UNL     1     -35.989  14.893  -9.010  1.00  0.00    -0.032 N
HETATM   16  N2  UNL     1     -34.222  16.469  -9.383  1.00  0.00    -0.032 N
ATOM     17  H13 UNL     1     -35.442  14.161  -9.465  1.00  0.00     0.279 HD
ATOM     18  H12 UNL     1     -35.671  14.754  -8.050  1.00  0.00     0.279 HD
ATOM     19  H11 UNL     1     -36.990  14.721  -9.101  1.00  0.00     0.279 HD
ATOM     20  H23 UNL     1     -33.904  16.330  -8.424  1.00  0.00     0.279 HD
ATOM     21  H22 UNL     1     -33.675  15.737  -9.838  1.00  0.00     0.279 HD
ATOM     22  H21 UNL     1     -33.969  17.394  -9.730  1.00  0.00     0.279 HD
ATOM     23  H4  UNL     1     -35.959  16.998 -12.668  1.00  0.00     0.208 HD
ENDBRANCH   7  11
ENDBRANCH   1   5
BRANCH   3  24
HETATM   24  C4  UNL     1     -30.064  20.492 -14.811  1.00  0.00     0.221 C
BRANCH  24  25
HETATM   25  C5  UNL     1     -30.022  21.931 -15.355  1.00  0.00     0.123 C
HETATM   26  S1  UNL     1     -28.917  23.000 -14.447  1.00  0.00    -0.095 SA
ENDBRANCH  24  25
BRANCH  24  27
HETATM   27  N8  UNL     1     -29.956  19.608 -15.946  1.00  0.00    -0.215 N
BRANCH  27  28
HETATM   28  O3  UNL     1     -30.944  18.777 -16.304  1.00  0.00    -0.284 OA
ATOM     29  H3  UNL     1     -31.779  18.757 -15.852  1.00  0.00     0.245 HD
ENDBRANCH  27  28
BRANCH  27  30
HETATM   30  C6  UNL     1     -28.744  19.606 -16.732  1.00  0.00     0.200 C
HETATM   31  N9  UNL     1     -28.649  19.155 -17.951  1.00  0.00    -0.332 N
HETATM   32  C7  UNL     1     -27.300  19.304 -18.430  1.00  0.00     0.302 C
ATOM     33  H9  UNL     1     -29.419  18.754 -18.487  1.00  0.00     0.164 HD
HETATM   34  C8  UNL     1     -26.759  20.397 -17.519  1.00  0.00     0.177 C
HETATM   35  N11 UNL     1     -27.483  20.089 -16.300  1.00  0.00    -0.357 N
ATOM     36  H11 UNL     1     -27.156  20.197 -15.340  1.00  0.00     0.162 HD
BRANCH  32  37
HETATM   37  N10 UNL     1     -26.504  18.110 -18.082  1.00  0.00    -0.057 N
ATOM     38 3H10 UNL     1     -26.130  18.164 -17.135  1.00  0.00     0.276 HD
ATOM     39 2H10 UNL     1     -27.088  17.282 -17.965  1.00  0.00     0.276 HD
ATOM     40 1H10 UNL     1     -25.770  17.965 -18.775  1.00  0.00     0.276 HD
ENDBRANCH  32  37
ENDBRANCH  27  30
ENDBRANCH  24  27
ENDBRANCH   3  24
TORSDOF 8
ENDMDL