MODEL 4
REMARK VINA RESULT: -7.990259582      1.279      1.428
REMARK  7 active torsions:
REMARK  status: ('A' for Active; 'I' for Inactive)
REMARK    1  A    between atoms: C4_6  and  N2_7
REMARK    2  A    between atoms: N2_7  and  C5_9
REMARK    3  A    between atoms: C6_12  and  C7_13
REMARK    4  A    between atoms: C7_13  and  O1_14
REMARK    5  A    between atoms: C7_13  and  C8_16
REMARK    6  A    between atoms: C8_16  and  N4_17
REMARK    7  A    between atoms: C8_16  and  N5_21
REMARK       I    between atoms: N5_21  and  C9_23
REMARK       I    between atoms: C9_23  and  N6_24
REMARK       I    between atoms: C9_23  and  N7_28
ROOT
HETATM    1  C5  UNL     1     -32.662  17.700 -12.482  1.00  0.00     0.294 A
HETATM    2  N3  UNL     1     -32.947  16.785 -11.441  1.00  0.00    -0.348 N
ATOM      3  H3  UNL     1     -32.423  16.749 -10.567  1.00  0.00     0.163 HD
HETATM    4  C6  UNL     1     -33.932  16.003 -11.707  1.00  0.00     0.115 A
HETATM    5  N8  UNL     1     -34.453  16.322 -12.982  1.00  0.00    -0.311 N
ATOM      6  H8  UNL     1     -35.237  15.860 -13.443  1.00  0.00     0.170 HD
HETATM    7  C10 UNL     1     -33.693  17.400 -13.508  1.00  0.00     0.266 A
HETATM    8  O2  UNL     1     -33.830  17.997 -14.597  1.00  0.00    -0.269 OA
ENDROOT
BRANCH   4   9
HETATM    9  C7  UNL     1     -34.468  14.923 -10.797  1.00  0.00     0.235 C
BRANCH   9  10
HETATM   10  O1  UNL     1     -33.364  14.348 -10.098  1.00  0.00    -0.384 OA
ATOM     11  H1  UNL     1     -32.587  14.463 -10.631  1.00  0.00     0.210 HD
ENDBRANCH   9  10
BRANCH   9  12
HETATM   12  C8  UNL     1     -35.366  15.427  -9.732  1.00  0.00     0.316 C
BRANCH  12  13
HETATM   13  N4  UNL     1     -35.787  16.811 -10.001  1.00  0.00    -0.056 N
ATOM     14  H43 UNL     1     -36.296  17.208  -9.211  1.00  0.00     0.276 HD
ATOM     15  H42 UNL     1     -34.992  17.450 -10.011  1.00  0.00     0.276 HD
ATOM     16  H41 UNL     1     -36.327  16.871 -10.864  1.00  0.00     0.276 HD
ENDBRANCH  12  13
BRANCH  12  17
HETATM   17  N5  UNL     1     -36.425  14.614  -9.283  1.00  0.00    -0.345 N
HETATM   18  C9  UNL     1     -36.221  13.766  -8.169  1.00  0.00     0.477 C
HETATM   19  N6  UNL     1     -35.787  14.454  -6.971  1.00  0.00    -0.033 N
HETATM   20  N7  UNL     1     -35.450  12.589  -8.416  1.00  0.00    -0.033 N
ATOM     21  H63 UNL     1     -34.950  15.004  -7.159  1.00  0.00     0.278 HD
ATOM     22  H62 UNL     1     -36.438  15.203  -6.734  1.00  0.00     0.278 HD
ATOM     23  H61 UNL     1     -35.640  13.842  -6.168  1.00  0.00     0.278 HD
ATOM     24  H73 UNL     1     -35.861  12.060  -9.186  1.00  0.00     0.278 HD
ATOM     25  H72 UNL     1     -34.553  12.843  -8.829  1.00  0.00     0.278 HD
ATOM     26  H71 UNL     1     -35.303  11.977  -7.614  1.00  0.00     0.278 HD
ATOM     27  H5  UNL     1     -37.329  14.638  -9.756  1.00  0.00     0.159 HD
ENDBRANCH  12  17
ENDBRANCH   9  12
ENDBRANCH   4   9
BRANCH   1  28
HETATM   28  N2  UNL     1     -32.553  19.074 -12.163  1.00  0.00    -0.196 N
ATOM     29  H2  UNL     1     -33.401  19.523 -11.819  1.00  0.00     0.180 HD
BRANCH  28  30
HETATM   30  C4  UNL     1     -31.405  19.903 -12.263  1.00  0.00     0.680 A
HETATM   31  N1  UNL     1     -31.215  20.989 -11.611  1.00  0.00    -0.200 N
HETATM   32  C2  UNL     1     -30.103  21.865 -11.659  1.00  0.00     0.115 A
ATOM     33  H1  UNL     1     -31.964  21.259 -10.973  1.00  0.00     0.180 HD
HETATM   34  C1  UNL     1     -29.405  21.972 -10.310  1.00  0.00     0.063 C
HETATM   35  C3  UNL     1     -30.475  23.269 -12.117  1.00  0.00     0.063 C
HETATM   36  N11 UNL     1     -29.113  21.400 -12.583  1.00  0.00    -0.338 N
HETATM   37  C11 UNL     1     -29.285  20.219 -13.312  1.00  0.00     0.204 A
ATOM     38  H11 UNL     1     -28.260  21.945 -12.713  1.00  0.00     0.164 HD
HETATM   39  N9  UNL     1     -30.346  19.518 -13.170  1.00  0.00    -0.164 N
HETATM   40  N10 UNL     1     -28.262  19.828 -14.202  1.00  0.00    -0.063 NA
ATOM     41  H9  UNL     1     -30.448  18.661 -13.713  1.00  0.00     0.187 HD
ENDBRANCH  28  30
ENDBRANCH   1  28
TORSDOF 7
ENDMDL