MODEL 3
REMARK VINA RESULT: -6.781592596      0.872      2.483
REMARK  10 active torsions:
REMARK  status: ('A' for Active; 'I' for Inactive)
REMARK    1  A    between atoms: N1_1  and  C1_4
REMARK    2  A    between atoms: C2_7  and  N3_8
REMARK    3  A    between atoms: N3_8  and  C3_10
REMARK    4  A    between atoms: C3_10  and  C4_11
REMARK    5  A    between atoms: C4_11  and  N4_12
REMARK    6  A    between atoms: N4_12  and  N5_14
REMARK    7  A    between atoms: C6_19  and  N8_20
REMARK    8  A    between atoms: C7_25  and  N10_26
REMARK    9  A    between atoms: C9_28  and  N11_29
REMARK   10  A    between atoms: C10_36  and  N13_37
ROOT
HETATM    1  C1  UNL     1     -30.420  19.199 -15.984  1.00  0.00     0.692 A
HETATM    2  N2  UNL     1     -29.569  20.263 -15.970  1.00  0.00    -0.022 N
ATOM      3  H2  UNL     1     -29.015  20.500 -16.793  1.00  0.00     0.203 HD
HETATM    4  C2  UNL     1     -29.476  20.998 -14.843  1.00  0.00     0.715 A
HETATM    5  N7  UNL     1     -30.220  20.672 -13.754  1.00  0.00     0.042 N
HETATM    6  C6  UNL     1     -30.302  21.235 -12.538  1.00  0.00     0.700 A
HETATM    7  N9  UNL     1     -31.184  20.546 -11.797  1.00  0.00    -0.172 N
ATOM      8  H9  UNL     1     -31.435  20.763 -10.832  1.00  0.00     0.186 HD
HETATM    9  C7  UNL     1     -31.696  19.511 -12.527  1.00  0.00     0.169 A
HETATM   10  C11 UNL     1     -31.066  19.624 -13.750  1.00  0.00     0.206 A
HETATM   11  N14 UNL     1     -31.148  18.891 -14.897  1.00  0.00    -0.171 N
ATOM     12  H14 UNL     1     -31.778  18.090 -14.932  1.00  0.00     0.186 HD
ENDROOT
BRANCH   9  13
HETATM   13  N10 UNL     1     -32.649  18.551 -12.110  1.00  0.00    -0.310 N
HETATM   14  C8  UNL     1     -32.336  17.214 -11.666  1.00  0.00     0.191 C
HETATM   15  C9  UNL     1     -33.333  17.032 -10.554  1.00  0.00     0.402 C
HETATM   16  N12 UNL     1     -34.376  18.013 -10.766  1.00  0.00     0.002 N
HETATM   17  C10 UNL     1     -34.080  18.663 -12.022  1.00  0.00     0.489 C
ATOM     18 2H12 UNL     1     -35.315  17.617 -10.728  1.00  0.00     0.284 HD
ATOM     19 1H12 UNL     1     -34.481  18.665  -9.989  1.00  0.00     0.284 HD
BRANCH  15  20
HETATM   20  N11 UNL     1     -33.940  15.720 -10.628  1.00  0.00    -0.048 N
ATOM     21 3H11 UNL     1     -34.714  15.697 -11.293  1.00  0.00     0.276 HD
ATOM     22 2H11 UNL     1     -33.328  15.044 -11.085  1.00  0.00     0.276 HD
ATOM     23 1H11 UNL     1     -34.227  15.407  -9.700  1.00  0.00     0.276 HD
ENDBRANCH  15  20
BRANCH  17  24
HETATM   24  N13 UNL     1     -34.530  20.042 -12.032  1.00  0.00    -0.032 N
ATOM     25 3H13 UNL     1     -34.413  20.473 -11.114  1.00  0.00     0.279 HD
ATOM     26 2H13 UNL     1     -33.896  20.630 -12.571  1.00  0.00     0.279 HD
ATOM     27 1H13 UNL     1     -35.490  20.137 -12.362  1.00  0.00     0.279 HD
ENDBRANCH  17  24
ENDBRANCH   9  13
BRANCH   6  28
HETATM   28  N8  UNL     1     -29.624  22.271 -12.187  1.00  0.00    -0.233 N
ATOM     29  H82 UNL     1     -28.609  22.375 -12.176  1.00  0.00     0.174 HD
ATOM     30  H81 UNL     1     -30.049  23.141 -11.866  1.00  0.00     0.174 HD
ENDBRANCH   6  28
BRANCH   4  31
HETATM   31  N3  UNL     1     -28.698  22.000 -14.786  1.00  0.00    -0.223 N
ATOM     32  H3  UNL     1     -28.124  22.078 -13.945  1.00  0.00     0.177 HD
BRANCH  31  33
HETATM   33  C3  UNL     1     -28.532  23.029 -15.759  1.00  0.00     0.159 C
BRANCH  33  34
HETATM   34  C4  UNL     1     -27.115  23.034 -16.323  1.00  0.00     0.159 C
BRANCH  34  35
HETATM   35  N4  UNL     1     -27.024  22.176 -17.487  1.00  0.00    -0.334 N
ATOM     36  H4  UNL     1     -27.436  22.490 -18.365  1.00  0.00     0.180 HD
BRANCH  35  37
HETATM   37  N5  UNL     1     -26.401  20.949 -17.444  1.00  0.00    -0.303 N
HETATM   38  C5  UNL     1     -26.880  19.881 -17.938  1.00  0.00     0.206 C
HETATM   39  N6  UNL     1     -28.130  19.802 -18.602  1.00  0.00    -0.095 NA
ATOM     40  H5  UNL     1     -25.492  20.894 -16.986  1.00  0.00     0.186 HD
ENDBRANCH  35  37
ENDBRANCH  34  35
ENDBRANCH  33  34
ENDBRANCH  31  33
ENDBRANCH   4  31
BRANCH   1  41
HETATM   41  N1  UNL     1     -30.493  18.513 -17.065  1.00  0.00    -0.234 N
ATOM     42  H12 UNL     1     -29.665  18.272 -17.608  1.00  0.00     0.174 HD
ATOM     43  H11 UNL     1     -31.419  18.212 -17.370  1.00  0.00     0.174 HD
ENDBRANCH   1  41
TORSDOF 10
ENDMDL