MODEL 2
REMARK VINA RESULT: -7.837406601      2.367      6.513
REMARK  5 active torsions:
REMARK  status: ('A' for Active; 'I' for Inactive)
REMARK       I    between atoms: C1_4  and  N2_5
REMARK       I    between atoms: C1_4  and  N4_10
REMARK    1  A    between atoms: N2_5  and  N3_7
REMARK    2  A    between atoms: N4_10  and  S1_12
REMARK    3  A    between atoms: S1_12  and  C2_15
REMARK    4  A    between atoms: C4_17  and  N5_18
REMARK       I    between atoms: N6_20  and  C5_22
REMARK       I    between atoms: C5_22  and  N7_23
REMARK       I    between atoms: C5_22  and  N8_27
REMARK    5  A    between atoms: N10_35  and  N11_36
ROOT
HETATM    1  C2  UNL     1     -31.350  20.067 -13.227  1.00  0.00     0.153 C
HETATM    2  C3  UNL     1     -30.470  19.841 -14.350  1.00  0.00     0.092 A
HETATM    3  C4  UNL     1     -29.154  20.320 -14.231  1.00  0.00     0.140 A
HETATM    4  N9  UNL     1     -28.260  20.172 -15.203  1.00  0.00    -0.291 N
ATOM      5  H9  UNL     1     -27.316  20.535 -15.072  1.00  0.00     0.172 HD
HETATM    6  C6  UNL     1     -28.573  19.555 -16.351  1.00  0.00     0.349 A
HETATM    7  O3  UNL     1     -27.691  19.431 -17.262  1.00  0.00    -0.244 OA
HETATM    8  N10 UNL     1     -29.815  19.088 -16.500  1.00  0.00    -0.174 N
HETATM    9  C7  UNL     1     -30.761  19.221 -15.523  1.00  0.00     0.284 A
HETATM   10  O4  UNL     1     -31.908  18.734 -15.784  1.00  0.00    -0.265 OA
ENDROOT
BRANCH   1  11
HETATM   11  S1  UNL     1     -32.988  19.497 -13.289  1.00  0.00     0.267 S
HETATM   12  O1  UNL     1     -33.803  19.777 -12.053  1.00  0.00    -0.201 OA
HETATM   13  O2  UNL     1     -33.761  19.948 -14.496  1.00  0.00    -0.201 OA
BRANCH  11  14
HETATM   14  N4  UNL     1     -32.899  17.743 -13.360  1.00  0.00    -0.112 N
HETATM   15  C1  UNL     1     -33.988  16.943 -12.936  1.00  0.00     0.699 C
HETATM   16  N1  UNL     1     -35.175  17.384 -13.113  1.00  0.00    -0.233 N
HETATM   17  N2  UNL     1     -33.762  15.682 -12.331  1.00  0.00    -0.138 N
ATOM     18  H12 UNL     1     -35.959  16.808 -12.808  1.00  0.00     0.174 HD
ATOM     19  H11 UNL     1     -35.337  18.291 -13.548  1.00  0.00     0.174 HD
ATOM     20  H2  UNL     1     -34.214  14.857 -12.726  1.00  0.00     0.205 HD
ATOM     21  H4  UNL     1     -32.053  17.295 -13.711  1.00  0.00     0.197 HD
BRANCH  17  22
HETATM   22  N3  UNL     1     -32.939  15.530 -11.209  1.00  0.00    -0.331 N
ATOM     23  H32 UNL     1     -32.086  14.981 -11.314  1.00  0.00     0.177 HD
ATOM     24  H31 UNL     1     -33.167  15.948 -10.307  1.00  0.00     0.177 HD
ENDBRANCH  17  22
ENDBRANCH  11  14
ENDBRANCH   1  11
BRANCH   3  25
HETATM   25  N5  UNL     1     -28.771  20.974 -13.049  1.00  0.00    -0.286 N
HETATM   26  N6  UNL     1     -28.691  22.229 -12.990  1.00  0.00    -0.282 N
HETATM   27  C5  UNL     1     -28.315  22.989 -11.847  1.00  0.00     0.494 C
ATOM     28  H6  UNL     1     -28.916  22.748 -13.838  1.00  0.00     0.184 HD
HETATM   29  N7  UNL     1     -28.910  24.310 -11.808  1.00  0.00    -0.032 N
HETATM   30  N8  UNL     1     -26.886  23.157 -11.691  1.00  0.00    -0.032 N
ATOM     31  H73 UNL     1     -28.704  24.823 -12.666  1.00  0.00     0.279 HD
ATOM     32  H72 UNL     1     -29.925  24.251 -11.884  1.00  0.00     0.279 HD
ATOM     33  H71 UNL     1     -28.641  24.855 -10.988  1.00  0.00     0.279 HD
ATOM     34  H83 UNL     1     -26.419  22.250 -11.687  1.00  0.00     0.279 HD
ATOM     35  H82 UNL     1     -26.480  23.558 -12.536  1.00  0.00     0.279 HD
ATOM     36  H81 UNL     1     -26.617  23.702 -10.871  1.00  0.00     0.279 HD
ATOM     37  H5  UNL     1     -28.553  20.421 -12.220  1.00  0.00     0.188 HD
ENDBRANCH   3  25
BRANCH   8  38
HETATM   38  N11 UNL     1     -30.157  18.436 -17.706  1.00  0.00    -0.332 N
ATOM     39 2H11 UNL     1     -31.121  18.131 -17.851  1.00  0.00     0.177 HD
ATOM     40 1H11 UNL     1     -29.430  18.282 -18.405  1.00  0.00     0.177 HD
ENDBRANCH   8  38
TORSDOF 5
ENDMDL