MODEL 3
REMARK VINA RESULT: -8.146553508      2.129      7.155
REMARK  9 active torsions:
REMARK  status: ('A' for Active; 'I' for Inactive)
REMARK    1  A    between atoms: N1_1  and  C1_4
REMARK    2  A    between atoms: C2_7  and  C3_8
REMARK    3  A    between atoms: C3_8  and  O1_9
REMARK    4  A    between atoms: C3_8  and  C4_11
REMARK    5  A    between atoms: C4_11  and  C5_12
REMARK    6  A    between atoms: C5_12  and  O2_13
REMARK    7  A    between atoms: C5_12  and  N3_15
REMARK    8  A    between atoms: C7_22  and  C8_23
REMARK    9  A    between atoms: C10_30  and  N9_31
ROOT
HETATM    1  C1  UNL     1     -32.273  21.131 -11.750  1.00  0.00     0.676 A
HETATM    2  N2  UNL     1     -33.054  20.131 -11.328  1.00  0.00    -0.193 N
ATOM      3  H2  UNL     1     -33.628  20.274 -10.497  1.00  0.00     0.184 HD
HETATM    4  C2  UNL     1     -33.114  18.943 -11.956  1.00  0.00     0.057 A
HETATM    5  C6  UNL     1     -32.338  18.756 -13.077  1.00  0.00     0.062 A
HETATM    6  C7  UNL     1     -31.507  19.778 -13.551  1.00  0.00     0.095 A
HETATM    7  N11 UNL     1     -31.527  20.916 -12.848  1.00  0.00    -0.188 N
ATOM      8  H11 UNL     1     -30.931  21.679 -13.170  1.00  0.00     0.184 HD
ENDROOT
BRANCH   4   9
HETATM    9  C3  UNL     1     -33.981  17.842 -11.482  1.00  0.00     0.172 C
BRANCH   9  10
HETATM   10  O1  UNL     1     -34.415  18.185 -10.203  1.00  0.00    -0.389 OA
ATOM     11  H1  UNL     1     -34.765  17.396  -9.806  1.00  0.00     0.210 HD
ENDBRANCH   9  10
BRANCH   9  12
HETATM   12  C4  UNL     1     -33.243  16.514 -11.450  1.00  0.00     0.094 C
BRANCH  12  13
HETATM   13  C5  UNL     1     -34.314  15.428 -11.520  1.00  0.00     0.261 C
BRANCH  13  14
HETATM   14  O2  UNL     1     -33.889  14.492 -12.447  1.00  0.00    -0.374 OA
ATOM     15  H2  UNL     1     -33.981  13.635 -12.046  1.00  0.00     0.212 HD
ENDBRANCH  13  14
BRANCH  13  16
HETATM   16  N3  UNL     1     -34.487  14.843 -10.205  1.00  0.00    -0.171 N
HETATM   17  N4  UNL     1     -34.493  13.613  -9.674  1.00  0.00     0.017 NA
HETATM   18  N5  UNL     1     -34.718  14.107  -8.467  1.00  0.00    -0.209 N
HETATM   19  N6  UNL     1     -34.712  15.313  -8.987  1.00  0.00    -0.212 N
ATOM     20  H5  UNL     1     -34.843  13.718  -7.532  1.00  0.00     0.207 HD
ATOM     21  H6  UNL     1     -34.833  16.249  -8.602  1.00  0.00     0.211 HD
ENDBRANCH  13  16
ENDBRANCH  12  13
ENDBRANCH   9  12
ENDBRANCH   4   9
BRANCH   1  22
HETATM   22  N1  UNL     1     -32.230  22.281 -11.121  1.00  0.00    -0.234 N
ATOM     23  H12 UNL     1     -32.975  22.969 -11.236  1.00  0.00     0.174 HD
ATOM     24  H11 UNL     1     -31.457  22.522 -10.502  1.00  0.00     0.174 HD
ENDBRANCH   1  22
BRANCH   6  25
HETATM   25  C8  UNL     1     -30.688  19.559 -14.746  1.00  0.00     0.152 A
HETATM   26  N7  UNL     1     -31.195  18.890 -15.813  1.00  0.00    -0.292 N
HETATM   27  C9  UNL     1     -30.456  18.683 -16.912  1.00  0.00     0.340 A
ATOM     28  H7  UNL     1     -32.153  18.540 -15.777  1.00  0.00     0.172 HD
HETATM   29  O3  UNL     1     -30.915  18.064 -17.906  1.00  0.00    -0.246 OA
HETATM   30  N8  UNL     1     -29.181  19.144 -16.977  1.00  0.00    -0.141 N
HETATM   31  C10 UNL     1     -28.650  19.809 -15.940  1.00  0.00     0.681 A
ATOM     32  H8  UNL     1     -28.626  18.985 -17.817  1.00  0.00     0.189 HD
HETATM   33  N10 UNL     1     -29.426  19.996 -14.854  1.00  0.00    -0.174 N
ATOM     34  H10 UNL     1     -29.027  20.502 -14.063  1.00  0.00     0.186 HD
BRANCH  31  35
HETATM   35  N9  UNL     1     -27.437  20.244 -16.009  1.00  0.00    -0.234 N
ATOM     36  H92 UNL     1     -26.685  19.706 -16.439  1.00  0.00     0.174 HD
ATOM     37  H91 UNL     1     -27.203  21.159 -15.624  1.00  0.00     0.174 HD
ENDBRANCH  31  35
ENDBRANCH   6  25
TORSDOF 9
ENDMDL