MODEL 2
REMARK VINA RESULT: -8.977303444      0.684      1.134
REMARK  7 active torsions:
REMARK  status: ('A' for Active; 'I' for Inactive)
REMARK    1  A    between atoms: N1_1  and  C1_4
REMARK    2  A    between atoms: C4_12  and  O2_13
REMARK    3  A    between atoms: O2_13  and  C5_14
REMARK    4  A    between atoms: C5_14  and  C6_15
REMARK    5  A    between atoms: C7_20  and  C8_21
REMARK    6  A    between atoms: C8_21  and  O3_22
REMARK    7  A    between atoms: C8_21  and  O4_24
REMARK       I    between atoms: N7_28  and  C9_29
REMARK       I    between atoms: C9_29  and  N8_30
REMARK       I    between atoms: C9_29  and  N9_34
ROOT
HETATM    1  C1  UNL     1     -27.974  19.578 -16.944  1.00  0.00     0.680 A
HETATM    2  N2  UNL     1     -28.946  19.069 -17.724  1.00  0.00    -0.154 N
ATOM      3  H2  UNL     1     -28.734  18.841 -18.695  1.00  0.00     0.187 HD
HETATM    4  C2  UNL     1     -30.191  18.852 -17.258  1.00  0.00     0.290 A
HETATM    5  O1  UNL     1     -31.113  18.379 -17.960  1.00  0.00    -0.265 OA
HETATM    6  C3  UNL     1     -30.419  19.179 -15.929  1.00  0.00     0.150 A
HETATM    7  N3  UNL     1     -31.512  19.103 -15.136  1.00  0.00    -0.314 N
ATOM      8  H3  UNL     1     -32.429  18.758 -15.417  1.00  0.00     0.170 HD
HETATM    9  C4  UNL     1     -31.184  19.558 -13.915  1.00  0.00     0.231 A
HETATM   10  N7  UNL     1     -29.904  19.932 -13.890  1.00  0.00    -0.244 N
HETATM   11  C9  UNL     1     -29.110  20.478 -12.813  1.00  0.00     0.491 C
HETATM   12  N8  UNL     1     -28.736  21.845 -13.095  1.00  0.00    -0.032 N
ATOM     13  H81 UNL     1     -28.176  22.230 -12.334  1.00  0.00     0.279 HD
ATOM     14  H82 UNL     1     -29.550  22.425 -13.296  1.00  0.00     0.279 HD
ATOM     15  H83 UNL     1     -28.261  21.929 -13.993  1.00  0.00     0.279 HD
HETATM   16  N9  UNL     1     -29.784  20.430 -11.547  1.00  0.00    -0.032 N
ATOM     17  H91 UNL     1     -29.224  20.815 -10.786  1.00  0.00     0.279 HD
ATOM     18  H92 UNL     1     -30.089  19.481 -11.331  1.00  0.00     0.279 HD
ATOM     19  H93 UNL     1     -30.693  20.888 -11.600  1.00  0.00     0.279 HD
HETATM   20  C10 UNL     1     -29.423  19.704 -15.125  1.00  0.00     0.162 A
HETATM   21  N10 UNL     1     -28.183  19.900 -15.654  1.00  0.00    -0.174 N
ATOM     22  H10 UNL     1     -27.429  20.283 -15.083  1.00  0.00     0.186 HD
ENDROOT
BRANCH   9  23
HETATM   23  O2  UNL     1     -32.057  19.622 -12.858  1.00  0.00    -0.314 OA
BRANCH  23  24
HETATM   24  C5  UNL     1     -33.443  19.470 -12.953  1.00  0.00     0.256 C
BRANCH  24  25
HETATM   25  C6  UNL     1     -33.896  18.434 -11.995  1.00  0.00     0.122 A
HETATM   26  N4  UNL     1     -34.284  18.584 -10.713  1.00  0.00    -0.286 N
HETATM   27  N5  UNL     1     -34.610  17.407 -10.211  1.00  0.00    -0.283 N
ATOM     28  H4  UNL     1     -34.321  19.470 -10.208  1.00  0.00     0.188 HD
HETATM   29  C7  UNL     1     -34.434  16.482 -11.169  1.00  0.00     0.153 A
ATOM     30  H5  UNL     1     -34.937  17.231  -9.262  1.00  0.00     0.188 HD
HETATM   31  N6  UNL     1     -33.994  17.134 -12.256  1.00  0.00    -0.328 N
ATOM     32  H6  UNL     1     -33.769  16.697 -13.150  1.00  0.00     0.168 HD
BRANCH  29  33
HETATM   33  C8  UNL     1     -34.684  15.002 -11.036  1.00  0.00     0.325 C
BRANCH  33  34
HETATM   34  O3  UNL     1     -33.814  14.450 -10.096  1.00  0.00    -0.365 OA
ATOM     35  H3  UNL     1     -33.985  14.817  -9.237  1.00  0.00     0.213 HD
ENDBRANCH  33  34
BRANCH  33  36
HETATM   36  O4  UNL     1     -35.982  14.865 -10.556  1.00  0.00    -0.365 OA
ATOM     37  H4  UNL     1     -36.226  13.959 -10.699  1.00  0.00     0.213 HD
ENDBRANCH  33  36
ENDBRANCH  29  33
ENDBRANCH  24  25
ENDBRANCH  23  24
ENDBRANCH   9  23
BRANCH   1  38
HETATM   38  N1  UNL     1     -26.811  19.748 -17.493  1.00  0.00    -0.234 N
ATOM     39  H12 UNL     1     -26.360  18.993 -18.009  1.00  0.00     0.174 HD
ATOM     40  H11 UNL     1     -26.379  20.665 -17.382  1.00  0.00     0.174 HD
ENDBRANCH   1  38
TORSDOF 7
ENDMDL