MODEL 5
REMARK VINA RESULT: -6.611042451      2.072      3.674
REMARK  10 active torsions:
REMARK  status: ('A' for Active; 'I' for Inactive)
REMARK    1  A    between atoms: C2_5  and  C3_6
REMARK    2  A    between atoms: C3_6  and  C4_7
REMARK    3  A    between atoms: C4_7  and  O1_8
REMARK    4  A    between atoms: C4_7  and  C6_14
REMARK    5  A    between atoms: O1_8  and  C5_9
REMARK    6  A    between atoms: C6_14  and  N8_23
REMARK    7  A    between atoms: N5_15  and  O2_17
REMARK    8  A    between atoms: O2_17  and  C7_18
REMARK       I    between atoms: N8_23  and  C8_25
REMARK    9  A    between atoms: N10_27  and  N11_29
REMARK   10  A    between atoms: C9_34  and  N13_35
ROOT
HETATM    1  C4  UNL     1     -32.746  19.537 -13.680  1.00  0.00     0.208 C
ENDROOT
BRANCH   1   2
HETATM    2  C3  UNL     1     -32.688  18.032 -13.790  1.00  0.00     0.119 C
BRANCH   2   3
HETATM    3  C2  UNL     1     -33.342  17.371 -12.623  1.00  0.00     0.115 A
HETATM    4  N2  UNL     1     -33.261  16.083 -12.244  1.00  0.00    -0.272 N
HETATM    5  N1  UNL     1     -33.997  15.897 -11.144  1.00  0.00    -0.127 N
ATOM      6  H2  UNL     1     -32.721  15.361 -12.721  1.00  0.00     0.189 HD
HETATM    7  C1  UNL     1     -34.173  14.651 -10.420  1.00  0.00     0.197 C
HETATM    8  C9  UNL     1     -34.566  17.066 -10.797  1.00  0.00     0.693 A
HETATM    9  N12 UNL     1     -34.150  17.960 -11.722  1.00  0.00    -0.178 N
ATOM     10  H12 UNL     1     -34.413  18.945 -11.734  1.00  0.00     0.185 HD
BRANCH   8  11
HETATM   11  N13 UNL     1     -35.350  17.286  -9.788  1.00  0.00    -0.233 N
ATOM     12 2H13 UNL     1     -36.037  16.647  -9.388  1.00  0.00     0.174 HD
ATOM     13 1H13 UNL     1     -35.408  18.136  -9.227  1.00  0.00     0.174 HD
ENDBRANCH   8  11
ENDBRANCH   2   3
ENDBRANCH   1   2
BRANCH   1  14
HETATM   14  O1  UNL     1     -33.927  20.063 -14.257  1.00  0.00    -0.311 OA
BRANCH  14  15
HETATM   15  C5  UNL     1     -34.460  21.204 -13.674  1.00  0.00     0.225 C
HETATM   16  N3  UNL     1     -34.232  21.456 -12.430  1.00  0.00    -0.368 N
ATOM     17  H32 UNL     1     -33.657  20.796 -11.906  1.00  0.00     0.159 HD
ATOM     18  H31 UNL     1     -34.624  22.295 -12.003  1.00  0.00     0.159 HD
HETATM   19  N4  UNL     1     -35.264  22.128 -14.408  1.00  0.00    -0.057 NA
ENDBRANCH  14  15
ENDBRANCH   1  14
BRANCH   1  20
HETATM   20  C6  UNL     1     -31.533  20.076 -14.332  1.00  0.00     0.134 C
HETATM   21  N5  UNL     1     -30.948  19.504 -15.328  1.00  0.00    -0.243 N
ATOM     22  H5  UNL     1     -31.345  18.633 -15.683  1.00  0.00     0.196 HD
BRANCH  21  23
HETATM   23  O2  UNL     1     -29.839  19.992 -15.927  1.00  0.00    -0.203 OA
BRANCH  23  24
HETATM   24  C7  UNL     1     -28.570  19.508 -15.639  1.00  0.00     0.249 C
HETATM   25  N6  UNL     1     -27.843  19.150 -16.649  1.00  0.00    -0.366 N
ATOM     26  H62 UNL     1     -28.184  19.219 -17.608  1.00  0.00     0.159 HD
ATOM     27  H61 UNL     1     -26.911  18.794 -16.437  1.00  0.00     0.159 HD
HETATM   28  N7  UNL     1     -28.093  19.410 -14.297  1.00  0.00    -0.055 NA
ENDBRANCH  23  24
ENDBRANCH  21  23
BRANCH  20  29
HETATM   29  N8  UNL     1     -30.989  21.288 -13.830  1.00  0.00    -0.315 N
HETATM   30  C8  UNL     1     -30.281  21.386 -12.604  1.00  0.00     0.208 C
HETATM   31  N9  UNL     1     -30.088  22.682 -12.048  1.00  0.00    -0.062 NA
HETATM   32  N10 UNL     1     -29.839  20.339 -12.032  1.00  0.00    -0.280 N
ATOM     33  H10 UNL     1     -30.001  19.431 -12.469  1.00  0.00     0.189 HD
ATOM     34  H8  UNL     1     -31.115  22.137 -14.381  1.00  0.00     0.170 HD
BRANCH  32  35
HETATM   35  N11 UNL     1     -29.142  20.392 -10.835  1.00  0.00    -0.343 N
ATOM     36 2H11 UNL     1     -29.682  20.430  -9.970  1.00  0.00     0.176 HD
ATOM     37 1H11 UNL     1     -28.123  20.394 -10.800  1.00  0.00     0.176 HD
ENDBRANCH  32  35
ENDBRANCH  20  29
ENDBRANCH   1  20
TORSDOF 10
ENDMDL