MODEL 5
REMARK VINA RESULT: -7.278213956      1.208      1.551
REMARK  10 active torsions:
REMARK  status: ('A' for Active; 'I' for Inactive)
REMARK    1  A    between atoms: N1_1  and  C1_4
REMARK    2  A    between atoms: C2_7  and  C3_8
REMARK    3  A    between atoms: C3_8  and  O1_9
REMARK    4  A    between atoms: C3_8  and  O2_11
REMARK    5  A    between atoms: C4_13  and  C5_14
REMARK    6  A    between atoms: C5_14  and  C6_16
REMARK    7  A    between atoms: C6_16  and  O4_17
REMARK    8  A    between atoms: C6_16  and  C7_19
REMARK    9  A    between atoms: C7_19  and  N3_20
REMARK   10  A    between atoms: C8_23  and  N5_24
ROOT
HETATM    1  C5  UNL     1     -31.895  18.921 -14.444  1.00  0.00     0.209 C
HETATM    2  O3  UNL     1     -32.277  18.594 -15.565  1.00  0.00    -0.288 OA
ENDROOT
BRANCH   1   3
HETATM    3  C4  UNL     1     -32.619  18.590 -13.236  1.00  0.00     0.125 A
HETATM    4  C2  UNL     1     -33.565  19.412 -12.714  1.00  0.00     0.112 A
HETATM    5  N2  UNL     1     -34.215  18.979 -11.570  1.00  0.00    -0.187 N
HETATM    6  C1  UNL     1     -33.918  17.808 -11.011  1.00  0.00     0.690 A
ATOM      7  H2  UNL     1     -34.934  19.567 -11.148  1.00  0.00     0.184 HD
HETATM    8  N10 UNL     1     -32.977  16.995 -11.531  1.00  0.00    -0.132 N
HETATM    9  N9  UNL     1     -32.368  17.405 -12.608  1.00  0.00    -0.281 N
ATOM     10  H10 UNL     1     -32.751  16.097 -11.101  1.00  0.00     0.205 HD
ATOM     11  H9  UNL     1     -31.654  16.799 -13.009  1.00  0.00     0.187 HD
BRANCH   4  12
HETATM   12  C3  UNL     1     -33.943  20.756 -13.216  1.00  0.00     0.308 C
BRANCH  12  13
HETATM   13  O1  UNL     1     -34.895  21.251 -12.270  1.00  0.00    -0.366 OA
ATOM     14  H1  UNL     1     -35.529  21.734 -12.788  1.00  0.00     0.213 HD
ENDBRANCH  12  13
BRANCH  12  15
HETATM   15  O2  UNL     1     -34.530  20.644 -14.473  1.00  0.00    -0.366 OA
ATOM     16  H2  UNL     1     -34.561  21.496 -14.892  1.00  0.00     0.213 HD
ENDBRANCH  12  15
ENDBRANCH   4  12
BRANCH   6  17
HETATM   17  N1  UNL     1     -34.537  17.424  -9.943  1.00  0.00    -0.233 N
ATOM     18  H12 UNL     1     -34.474  16.443  -9.673  1.00  0.00     0.174 HD
ATOM     19  H11 UNL     1     -35.073  18.098  -9.395  1.00  0.00     0.174 HD
ENDBRANCH   6  17
ENDBRANCH   1   3
BRANCH   1  20
HETATM   20  C6  UNL     1     -30.608  19.702 -14.394  1.00  0.00     0.214 C
BRANCH  20  21
HETATM   21  O4  UNL     1     -30.872  20.988 -14.911  1.00  0.00    -0.386 OA
ATOM     22  H4  UNL     1     -30.338  21.606 -14.426  1.00  0.00     0.210 HD
ENDBRANCH  20  21
BRANCH  20  23
HETATM   23  C7  UNL     1     -29.660  19.002 -15.349  1.00  0.00     0.191 C
BRANCH  23  24
HETATM   24  N3  UNL     1     -29.431  19.824 -16.541  1.00  0.00    -0.269 N
HETATM   25  N4  UNL     1     -30.272  20.193 -17.463  1.00  0.00    -0.280 N
HETATM   26  C8  UNL     1     -29.681  20.949 -18.404  1.00  0.00     0.146 A
ATOM     27  H4  UNL     1     -31.260  19.939 -17.470  1.00  0.00     0.189 HD
HETATM   28  C9  UNL     1     -28.359  21.062 -18.038  1.00  0.00     0.138 A
HETATM   29  N6  UNL     1     -27.142  21.579 -18.349  1.00  0.00    -0.277 N
HETATM   30  C10 UNL     1     -28.222  20.342 -16.856  1.00  0.00     0.167 A
HETATM   31  N7  UNL     1     -26.288  21.200 -17.405  1.00  0.00    -0.020 NA
ATOM     32  H6  UNL     1     -26.923  22.156 -19.161  1.00  0.00     0.184 HD
HETATM   33  N8  UNL     1     -26.927  20.456 -16.503  1.00  0.00    -0.266 N
ATOM     34  H8  UNL     1     -26.502  20.037 -15.676  1.00  0.00     0.186 HD
BRANCH  26  35
HETATM   35  N5  UNL     1     -30.209  21.490 -19.467  1.00  0.00    -0.382 N
ATOM     36  H52 UNL     1     -29.968  21.244 -20.427  1.00  0.00     0.157 HD
ATOM     37  H51 UNL     1     -30.920  22.219 -19.526  1.00  0.00     0.157 HD
ENDBRANCH  26  35
ENDBRANCH  23  24
ENDBRANCH  20  23
ENDBRANCH   1  20
TORSDOF 10
ENDMDL