MODEL 1
REMARK VINA RESULT: -7.337065680      0.000      0.000
REMARK  11 active torsions:
REMARK  status: ('A' for Active; 'I' for Inactive)
REMARK    1  A    between atoms: C3_6  and  C4_7
REMARK    2  A    between atoms: C4_7  and  N3_8
REMARK    3  A    between atoms: C4_7  and  C6_13
REMARK       I    between atoms: N3_8  and  C5_10
REMARK    4  A    between atoms: C6_13  and  O2_14
REMARK    5  A    between atoms: C6_13  and  O3_16
REMARK    6  A    between atoms: C7_18  and  C8_19
REMARK    7  A    between atoms: C8_19  and  N5_20
REMARK    8  A    between atoms: C8_19  and  N6_23
REMARK    9  A    between atoms: N6_23  and  N7_25
REMARK   10  A    between atoms: N7_25  and  C9_27
REMARK   11  A    between atoms: C9_27  and  C10_31
ROOT
HETATM    1  C8  UNL     1     -29.975  20.095 -11.951  1.00  0.00     0.143 C
ENDROOT
BRANCH   1   2
HETATM    2  C7  UNL     1     -31.345  20.537 -11.930  1.00  0.00     0.105 A
HETATM    3  N1  UNL     1     -31.771  21.824 -11.820  1.00  0.00    -0.343 N
HETATM    4  C1  UNL     1     -31.011  23.027 -11.731  1.00  0.00     0.157 C
HETATM    5  C2  UNL     1     -33.109  21.794 -11.805  1.00  0.00     0.183 A
HETATM    6  N2  UNL     1     -33.543  20.556 -11.902  1.00  0.00    -0.352 N
HETATM    7  C3  UNL     1     -32.461  19.713 -11.985  1.00  0.00     0.069 A
ATOM      8  H2  UNL     1     -34.522  20.270 -11.914  1.00  0.00     0.166 HD
BRANCH   7   9
HETATM    9  C4  UNL     1     -32.655  18.284 -12.142  1.00  0.00     0.193 C
BRANCH   9  10
HETATM   10  N3  UNL     1     -33.737  18.076 -13.126  1.00  0.00    -0.330 N
HETATM   11  C5  UNL     1     -33.596  18.166 -14.509  1.00  0.00     0.329 C
HETATM   12  N4  UNL     1     -34.681  17.954 -15.367  1.00  0.00    -0.040 NA
HETATM   13  O1  UNL     1     -32.480  18.442 -15.024  1.00  0.00    -0.251 OA
ATOM     14  H3  UNL     1     -34.662  17.848 -12.763  1.00  0.00     0.164 HD
ENDBRANCH   9  10
BRANCH   9  15
HETATM   15  C6  UNL     1     -33.182  17.700 -10.809  1.00  0.00     0.282 C
BRANCH  15  16
HETATM   16  O2  UNL     1     -33.426  16.341 -10.976  1.00  0.00    -0.369 OA
ATOM     17  H2  UNL     1     -33.910  16.019 -10.224  1.00  0.00     0.212 HD
ENDBRANCH  15  16
BRANCH  15  18
HETATM   18  O3  UNL     1     -34.296  18.349 -10.350  1.00  0.00    -0.369 OA
ATOM     19  H3  UNL     1     -34.762  17.853  -9.686  1.00  0.00     0.212 HD
ENDBRANCH  15  18
ENDBRANCH   9  15
ENDBRANCH   7   9
ENDBRANCH   1   2
BRANCH   1  20
HETATM   20  N5  UNL     1     -29.322  19.638 -11.001  1.00  0.00    -0.383 N
ATOM     21  H52 UNL     1     -29.203  20.317 -10.249  1.00  0.00     0.157 HD
ATOM     22  H51 UNL     1     -28.919  18.704 -10.923  1.00  0.00     0.157 HD
ENDBRANCH   1  20
BRANCH   1  23
HETATM   23  N6  UNL     1     -29.203  20.146 -13.180  1.00  0.00    -0.282 N
ATOM     24  H6  UNL     1     -28.199  20.320 -13.131  1.00  0.00     0.188 HD
BRANCH  23  25
HETATM   25  N7  UNL     1     -29.799  19.966 -14.419  1.00  0.00    -0.281 N
ATOM     26  H7  UNL     1     -30.816  20.021 -14.467  1.00  0.00     0.188 HD
BRANCH  25  27
HETATM   27  C9  UNL     1     -29.097  19.710 -15.623  1.00  0.00     0.160 C
HETATM   28  N8  UNL     1     -27.810  19.629 -15.629  1.00  0.00    -0.381 N
ATOM     29  H82 UNL     1     -27.301  19.752 -14.753  1.00  0.00     0.157 HD
ATOM     30  H81 UNL     1     -27.304  19.445 -16.495  1.00  0.00     0.157 HD
BRANCH  27  31
HETATM   31  C10 UNL     1     -29.817  19.536 -16.863  1.00  0.00     0.177 A
HETATM   32  N9  UNL     1     -30.372  18.388 -17.277  1.00  0.00    -0.267 N
HETATM   33  N10 UNL     1     -30.957  18.581 -18.464  1.00  0.00    -0.007 NA
ATOM     34  H9  UNL     1     -30.351  17.505 -16.766  1.00  0.00     0.185 HD
HETATM   35  N11 UNL     1     -30.779  19.846 -18.812  1.00  0.00    -0.007 NA
HETATM   36  N12 UNL     1     -30.085  20.428 -17.837  1.00  0.00    -0.267 N
ATOM     37  H12 UNL     1     -29.798  21.408 -17.828  1.00  0.00     0.185 HD
ENDBRANCH  27  31
ENDBRANCH  25  27
ENDBRANCH  23  25
ENDBRANCH   1  23
TORSDOF 11
ENDMDL