MODEL 4
REMARK VINA RESULT: -5.380916533      1.533      2.966
REMARK  1 active torsions:
REMARK  status: ('A' for Active; 'I' for Inactive)
REMARK    1  A    between atoms: N1_1  and  N2_4
ROOT
HETATM    1  N2  UNL     1      47.787 -28.408 -97.593  1.00  0.00    -0.293 N
HETATM    2  C1  UNL     1      48.297 -28.634 -96.302  1.00  0.00     0.087 C
HETATM    3  C2  UNL     1      49.309 -27.646 -95.828  1.00  0.00     0.046 C
HETATM    4  C3  UNL     1      48.879 -26.856 -94.634  1.00  0.00     0.005 C
HETATM    5  C4  UNL     1      47.601 -26.136 -94.768  1.00  0.00     0.001 C
HETATM    6  C5  UNL     1      47.163 -25.815 -96.148  1.00  0.00     0.005 C
HETATM    7  C6  UNL     1      46.155 -26.864 -96.584  1.00  0.00     0.046 C
HETATM    8  C7  UNL     1      46.639 -27.640 -97.761  1.00  0.00     0.087 C
ENDROOT
BRANCH   1   9
HETATM    9  N1  UNL     1      48.603 -28.622 -98.652  1.00  0.00    -0.340 N
ATOM     10  H12 UNL     1      48.513 -29.487 -99.185  1.00  0.00     0.177 HD
ATOM     11  H11 UNL     1      49.089 -27.822 -99.057  1.00  0.00     0.177 HD
ENDBRANCH   1   9
TORSDOF 1
ENDMDL