MODEL 4
REMARK VINA RESULT: -5.179014969      1.055      2.193
REMARK  1 active torsions:
REMARK  status: ('A' for Active; 'I' for Inactive)
REMARK    1  A    between atoms: C1_4  and  N2_5
ROOT
HETATM    1  N2  UNL     1      49.170 -27.047 -95.234  1.00  0.00    -0.372 N
HETATM    2  C2  UNL     1      47.836 -27.084 -95.859  1.00  0.00     0.128 C
HETATM    3  C3  UNL     1      47.654 -28.498 -96.339  1.00  0.00     0.005 C
HETATM    4  C4  UNL     1      48.473 -28.687 -97.588  1.00  0.00     0.008 C
HETATM    5  C5  UNL     1      49.874 -28.375 -97.072  1.00  0.00     0.026 C
HETATM    6  C6  UNL     1      49.764 -28.312 -95.560  1.00  0.00     0.085 C
HETATM    7  C7  UNL     1      48.561 -29.248 -95.346  1.00  0.00     0.031 C
ENDROOT
BRANCH   1   8
HETATM    8  C1  UNL     1      49.705 -25.983 -94.488  1.00  0.00     0.171 C
HETATM    9  N1  UNL     1      49.012 -25.211 -93.762  1.00  0.00    -0.395 N
ATOM     10  H12 UNL     1      48.008 -25.386 -93.727  1.00  0.00     0.156 HD
ATOM     11  H11 UNL     1      49.400 -24.438 -93.220  1.00  0.00     0.156 HD
ENDBRANCH   1   8
TORSDOF 1
ENDMDL