MODEL 1
REMARK VINA RESULT: -6.123626514      0.000      0.000
REMARK  1 active torsions:
REMARK  status: ('A' for Active; 'I' for Inactive)
REMARK    1  A    between atoms: O1_1  and  C1_3
ROOT
HETATM    1  C1  UNL     1      47.150 -26.018 -95.981  1.00  0.00     0.118 C
HETATM    2  C2  UNL     1      46.070 -26.625 -96.850  1.00  0.00     0.032 C
HETATM    3  C3  UNL     1      46.453 -26.726 -98.290  1.00  0.00     0.002 C
HETATM    4  C4  UNL     1      46.690 -28.103 -98.786  1.00  0.00     0.000 C
HETATM    5  C5  UNL     1      47.370 -29.027 -97.852  1.00  0.00     0.000 C
HETATM    6  C6  UNL     1      48.402 -28.432 -96.975  1.00  0.00     0.000 C
HETATM    7  C7  UNL     1      47.879 -28.386 -95.562  1.00  0.00     0.002 C
HETATM    8  C8  UNL     1      47.774 -26.991 -95.040  1.00  0.00     0.032 C
ENDROOT
BRANCH   1   9
HETATM    9  O1  UNL     1      46.637 -24.964 -95.188  1.00  0.00    -0.396 OA
ATOM     10  H1  UNL     1      47.288 -24.648 -94.572  1.00  0.00     0.210 HD
ENDBRANCH   1   9
TORSDOF 1
ENDMDL