MODEL 3
REMARK VINA RESULT: -6.055612215      2.232      3.064
REMARK  0 active torsions:
REMARK  status: ('A' for Active; 'I' for Inactive)
ROOT
HETATM    1  F1  UNL     1      47.218 -25.715 -96.289  1.00  0.00    -0.249 F
HETATM    2  C1  UNL     1      47.581 -25.958 -95.007  1.00  0.00     0.174 C
HETATM    3  C2  UNL     1      48.861 -25.169 -94.680  1.00  0.00     0.038 C
HETATM    4  C3  UNL     1      50.009 -26.187 -94.793  1.00  0.00     0.008 C
HETATM    5  C4  UNL     1      49.371 -27.298 -95.519  1.00  0.00    -0.008 C
HETATM    6  C5  UNL     1      49.828 -28.673 -95.275  1.00  0.00     0.005 C
HETATM    7  C6  UNL     1      48.530 -29.492 -95.372  1.00  0.00     0.001 C
HETATM    8  C7  UNL     1      47.400 -28.455 -95.477  1.00  0.00     0.008 C
HETATM    9  C8  UNL     1      48.015 -27.327 -94.778  1.00  0.00     0.024 C
ENDROOT
TORSDOF 0
ENDMDL