MODEL 5
REMARK VINA RESULT: -5.138520663      1.849      2.631
REMARK  0 active torsions:
REMARK  status: ('A' for Active; 'I' for Inactive)
ROOT
HETATM    1  C1  UNL     1      46.981 -25.259 -94.661  1.00  0.00     0.052 C
HETATM    2  C2  UNL     1      47.445 -26.378 -95.513  1.00  0.00     0.106 C
HETATM    3  F1  UNL     1      48.371 -25.882 -96.420  1.00  0.00    -0.243 F
HETATM    4  C3  UNL     1      46.311 -26.964 -96.368  1.00  0.00     0.087 C
HETATM    5  C4  UNL     1      47.040 -27.799 -97.401  1.00  0.00     0.059 C
HETATM    6  N1  UNL     1      47.880 -28.782 -96.884  1.00  0.00    -0.394 N
ATOM      7  H1  UNL     1      48.066 -29.622 -97.432  1.00  0.00     0.159 HD
HETATM    8  C5  UNL     1      48.470 -28.634 -95.629  1.00  0.00     0.025 C
HETATM    9  C6  UNL     1      49.982 -28.461 -95.816  1.00  0.00     0.038 C
HETATM   10  C7  UNL     1      48.292 -29.951 -94.857  1.00  0.00     0.038 C
HETATM   11  C8  UNL     1      47.998 -27.539 -94.753  1.00  0.00     0.073 C
ENDROOT
TORSDOF 0
ENDMDL