MODEL 3
REMARK VINA RESULT: -6.044555749      1.397      1.955
REMARK  1 active torsions:
REMARK  status: ('A' for Active; 'I' for Inactive)
REMARK    1  A    between atoms: N1_1  and  C1_5
ROOT
HETATM    1  C1  UNL     1      48.850 -27.664 -95.723  1.00  0.00     0.217 C
HETATM    2  C2  UNL     1      47.918 -28.724 -96.232  1.00  0.00     0.036 C
HETATM    3  C3  UNL     1      47.675 -28.495 -97.683  1.00  0.00     0.002 C
HETATM    4  C4  UNL     1      46.609 -27.555 -98.044  1.00  0.00     0.000 C
HETATM    5  C5  UNL     1      45.959 -26.800 -96.941  1.00  0.00     0.000 C
HETATM    6  C6  UNL     1      46.933 -25.738 -96.458  1.00  0.00     0.003 C
HETATM    7  C7  UNL     1      47.253 -25.848 -95.015  1.00  0.00     0.039 C
HETATM    8  C8  UNL     1      48.289 -26.820 -94.636  1.00  0.00     0.200 C
HETATM    9  F1  UNL     1      49.363 -26.133 -94.050  1.00  0.00    -0.247 F
ENDROOT
BRANCH   1  10
HETATM   10  N1  UNL     1      50.030 -28.338 -95.147  1.00  0.00    -0.072 N
ATOM     11  H13 UNL     1      50.596 -28.816 -95.850  1.00  0.00     0.274 HD
ATOM     12  H12 UNL     1      50.742 -27.683 -94.824  1.00  0.00     0.274 HD
ATOM     13  H11 UNL     1      49.704 -28.963 -94.410  1.00  0.00     0.274 HD
ENDBRANCH   1  10
TORSDOF 1
ENDMDL