MODEL 2
REMARK VINA RESULT: -5.896120478      1.646      2.425
REMARK  0 active torsions:
REMARK  status: ('A' for Active; 'I' for Inactive)
ROOT
HETATM    1  F1  UNL     1      49.507 -25.320 -95.088  1.00  0.00    -0.247 F
HETATM    2  C1  UNL     1      48.325 -25.843 -94.543  1.00  0.00     0.201 C
HETATM    3  C2  UNL     1      47.151 -25.233 -95.188  1.00  0.00     0.039 C
HETATM    4  C3  UNL     1      46.435 -26.039 -96.202  1.00  0.00     0.003 C
HETATM    5  C4  UNL     1      47.392 -27.121 -96.703  1.00  0.00     0.007 C
HETATM    6  C5  UNL     1      47.530 -28.036 -95.488  1.00  0.00     0.021 C
HETATM    7  C6  UNL     1      48.350 -29.270 -95.820  1.00  0.00     0.034 C
HETATM    8  C7  UNL     1      49.730 -28.621 -95.956  1.00  0.00     0.233 C
HETATM    9  N1  UNL     1      49.794 -27.748 -94.826  1.00  0.00    -0.068 N
ATOM     10  H11 UNL     1      50.441 -26.972 -94.961  1.00  0.00     0.277 HD
ATOM     11  H12 UNL     1      50.258 -28.173 -94.022  1.00  0.00     0.277 HD
HETATM   12  C8  UNL     1      48.440 -27.311 -94.530  1.00  0.00     0.223 C
ENDROOT
TORSDOF 0
ENDMDL