MODEL 1
REMARK VINA RESULT: -6.033997101      0.000      0.000
REMARK  2 active torsions:
REMARK  status: ('A' for Active; 'I' for Inactive)
REMARK    1  A    between atoms: N1_1  and  C1_5
REMARK    2  A    between atoms: C1_5  and  C2_6
ROOT
HETATM    1  C1  UNL     1      49.060 -28.198 -95.502  1.00  0.00     0.149 C
HETATM    2  C3  UNL     1      47.641 -28.255 -95.119  1.00  0.00     0.041 C
HETATM    3  C4  UNL     1      46.724 -27.336 -95.873  1.00  0.00     0.002 C
HETATM    4  C5  UNL     1      47.097 -25.900 -95.795  1.00  0.00     0.000 C
HETATM    5  C6  UNL     1      47.850 -25.650 -94.528  1.00  0.00     0.000 C
HETATM    6  C7  UNL     1      49.318 -25.768 -94.774  1.00  0.00     0.002 C
HETATM    7  C8  UNL     1      49.886 -27.076 -95.061  1.00  0.00     0.041 C
ENDROOT
BRANCH   1   8
HETATM    8  N1  UNL     1      49.624 -29.470 -94.993  1.00  0.00    -0.068 N
ATOM      9  H13 UNL     1      48.948 -30.091 -94.547  1.00  0.00     0.275 HD
ATOM     10  H12 UNL     1      49.906 -30.133 -95.715  1.00  0.00     0.275 HD
ATOM     11  H11 UNL     1      50.379 -29.153 -94.385  1.00  0.00     0.275 HD
ENDBRANCH   1   8
BRANCH   1  12
HETATM   12  C2  UNL     1      49.126 -28.386 -97.026  1.00  0.00     0.260 C
HETATM   13  F1  UNL     1      50.471 -28.385 -97.408  1.00  0.00    -0.253 F
ENDBRANCH   1  12
TORSDOF 2
ENDMDL