MODEL 5
REMARK VINA RESULT: -6.106144785      1.308      1.930
REMARK  1 active torsions:
REMARK  status: ('A' for Active; 'I' for Inactive)
REMARK    1  A    between atoms: N1_1  and  C1_5
ROOT
HETATM    1  C1  UNL     1      47.503 -26.063 -95.757  1.00  0.00     0.184 C
HETATM    2  C2  UNL     1      48.187 -27.110 -94.999  1.00  0.00     0.044 C
HETATM    3  C3  UNL     1      49.054 -28.123 -95.821  1.00  0.00     0.082 C
HETATM    4  C4  UNL     1      48.315 -28.327 -96.999  1.00  0.00    -0.183 C
HETATM    5  C5  UNL     1      47.929 -28.734 -98.285  1.00  0.00     0.080 C
HETATM    6  C6  UNL     1      46.576 -27.987 -98.537  1.00  0.00     0.011 C
HETATM    7  C7  UNL     1      46.477 -26.626 -97.991  1.00  0.00     0.003 C
HETATM    8  C8  UNL     1      46.224 -26.353 -96.532  1.00  0.00     0.033 C
ENDROOT
BRANCH   1   9
HETATM    9  N1  UNL     1      47.160 -25.039 -94.735  1.00  0.00    -0.075 N
ATOM     10  H13 UNL     1      46.225 -24.642 -94.837  1.00  0.00     0.274 HD
ATOM     11  H12 UNL     1      47.019 -25.415 -93.797  1.00  0.00     0.274 HD
ATOM     12  H11 UNL     1      47.914 -24.356 -94.803  1.00  0.00     0.274 HD
ENDBRANCH   1   9
TORSDOF 1
ENDMDL