MODEL 5
REMARK VINA RESULT: -5.470748216      1.323      3.011
REMARK  0 active torsions:
REMARK  status: ('A' for Active; 'I' for Inactive)
ROOT
HETATM    1  C1  UNL     1      48.218 -25.865 -94.670  1.00  0.00     0.002 C
HETATM    2  C2  UNL     1      49.494 -26.566 -95.099  1.00  0.00     0.005 C
HETATM    3  C3  UNL     1      49.268 -28.043 -94.948  1.00  0.00    -0.008 C
HETATM    4  C4  UNL     1      49.752 -28.748 -96.214  1.00  0.00     0.049 C
HETATM    5  C5  UNL     1      48.996 -28.323 -97.408  1.00  0.00     0.056 C
HETATM    6  N1  UNL     1      47.627 -28.052 -97.268  1.00  0.00    -0.398 N
ATOM      7  H1  UNL     1      46.993 -28.173 -98.057  1.00  0.00     0.159 HD
HETATM    8  C6  UNL     1      47.141 -27.609 -96.022  1.00  0.00     0.081 C
HETATM    9  C7  UNL     1      47.216 -26.127 -95.791  1.00  0.00     0.025 C
HETATM   10  C8  UNL     1      47.783 -28.396 -94.899  1.00  0.00     0.030 C
ENDROOT
TORSDOF 0
ENDMDL