MODEL 2
REMARK VINA RESULT: -5.147384919      0.874      1.514
REMARK  2 active torsions:
REMARK  status: ('A' for Active; 'I' for Inactive)
REMARK    1  A    between atoms: C4_4  and  C5_5
REMARK    2  A    between atoms: N3_13  and  C9_15
ROOT
HETATM    1  C5  UNL     1      48.250 -28.126 -94.651  1.00  0.00    -0.026 C
HETATM    2  C6  UNL     1      47.736 -29.009 -93.599  1.00  0.00     0.051 C
HETATM    3  C7  UNL     1      48.182 -28.531 -95.929  1.00  0.00     0.098 C
HETATM    4  N1  UNL     1      48.588 -27.912 -97.124  1.00  0.00    -0.291 N
ATOM      5  H1  UNL     1      49.162 -27.069 -97.115  1.00  0.00     0.187 HD
HETATM    6  N2  UNL     1      48.186 -28.481 -98.292  1.00  0.00    -0.279 N
ATOM      7  H2  UNL     1      48.445 -28.084 -99.195  1.00  0.00     0.189 HD
HETATM    8  C8  UNL     1      47.396 -29.641 -98.200  1.00  0.00     0.161 C
HETATM    9  N3  UNL     1      46.745 -30.263 -99.090  1.00  0.00    -0.365 N
ATOM     10  H3  UNL     1      46.222 -31.100 -98.830  1.00  0.00     0.162 HD
HETATM   11  S1  UNL     1      47.485 -30.111 -96.484  1.00  0.00    -0.033 SA
ENDROOT
BRANCH   1  12
HETATM   12  C4  UNL     1      48.829 -26.838 -94.358  1.00  0.00     0.011 C
HETATM   13  C2  UNL     1      48.357 -25.645 -94.425  1.00  0.00    -0.087 C
HETATM   14  C1  UNL     1      49.258 -24.498 -94.035  1.00  0.00     0.043 C
HETATM   15  C3  UNL     1      47.012 -25.275 -94.851  1.00  0.00     0.043 C
ENDBRANCH   1  12
BRANCH   9  16
HETATM   16  C9  UNL     1      46.723 -29.816-100.470  1.00  0.00     0.075 C
HETATM   17  C10 UNL     1      45.548 -30.404-101.223  1.00  0.00     0.032 C
HETATM   18  C11 UNL     1      48.032 -30.067-101.167  1.00  0.00     0.032 C
ENDBRANCH   9  16
TORSDOF 2
ENDMDL