MODEL 4
REMARK VINA RESULT: -5.845914618      0.784      1.040
REMARK  2 active torsions:
REMARK  status: ('A' for Active; 'I' for Inactive)
REMARK       I    between atoms: C1_2  and  N1_3
REMARK       I    between atoms: C1_2  and  N2_10
REMARK    1  A    between atoms: N1_3  and  C2_5
REMARK    2  A    between atoms: N2_10  and  C6_12
ROOT
HETATM    1  O1  UNL     1      48.033 -27.513 -97.236  1.00  0.00    -0.247 OA
HETATM    2  C1  UNL     1      47.688 -28.505 -96.562  1.00  0.00     0.321 C
HETATM    3  N1  UNL     1      47.469 -29.746 -97.176  1.00  0.00    -0.303 N
ATOM      4  H1  UNL     1      47.188 -30.556 -96.623  1.00  0.00     0.171 HD
HETATM    5  N2  UNL     1      47.520 -28.366 -95.168  1.00  0.00    -0.338 N
ATOM      6  H2  UNL     1      47.238 -29.188 -94.633  1.00  0.00     0.164 HD
ENDROOT
BRANCH   3   7
HETATM    7  C2  UNL     1      47.646 -29.859 -98.589  1.00  0.00     0.077 A
HETATM    8  C3  UNL     1      48.813 -29.873 -99.309  1.00  0.00     0.038 A
HETATM    9  C4  UNL     1      48.700 -29.991-100.649  1.00  0.00     0.010 A
HETATM   10  C5  UNL     1      47.451 -30.085-101.172  1.00  0.00     0.052 A
HETATM   11  S1  UNL     1      46.449 -30.008 -99.798  1.00  0.00    -0.084 SA
ENDBRANCH   3   7
BRANCH   5  12
HETATM   12  C6  UNL     1      47.725 -27.126 -94.453  1.00  0.00     0.086 C
HETATM   13  C7  UNL     1      46.896 -26.033 -95.064  1.00  0.00     0.025 C
HETATM   14  C8  UNL     1      47.153 -24.705 -94.436  1.00  0.00     0.002 C
HETATM   15  C9  UNL     1      48.594 -24.404 -94.181  1.00  0.00     0.000 C
HETATM   16  C10 UNL     1      49.367 -25.546 -93.601  1.00  0.00     0.002 C
HETATM   17  C11 UNL     1      49.183 -26.736 -94.552  1.00  0.00     0.025 C
ENDBRANCH   5  12
TORSDOF 2
ENDMDL