MODEL 4
REMARK VINA RESULT: -7.637135204      3.315      5.622
REMARK  3 active torsions:
REMARK  status: ('A' for Active; 'I' for Inactive)
REMARK    1  A    between atoms: N1_1  and  C1_4
REMARK    2  A    between atoms: C6_12  and  C7_13
REMARK    3  A    between atoms: C7_13  and  C8_14
ROOT
HETATM    1  C1  UNL     1      48.893 -29.345 -99.466  1.00  0.00     0.092 A
HETATM    2  S1  UNL     1      47.485 -30.227 -99.853  1.00  0.00     0.004 SA
HETATM    3  N2  UNL     1      46.780 -30.288 -98.327  1.00  0.00    -0.328 N
ATOM      4  H2  UNL     1      45.899 -30.728 -98.060  1.00  0.00     0.174 HD
HETATM    5  C2  UNL     1      47.643 -29.627 -97.544  1.00  0.00     0.029 A
HETATM    6  C3  UNL     1      48.746 -29.130 -98.115  1.00  0.00     0.000 A
HETATM    7  C4  UNL     1      49.602 -28.435 -97.061  1.00  0.00     0.044 C
HETATM    8  C5  UNL     1      49.141 -29.237 -95.842  1.00  0.00     0.015 C
HETATM    9  C6  UNL     1      47.676 -29.255 -96.046  1.00  0.00     0.037 C
ENDROOT
BRANCH   9  10
HETATM   10  C7  UNL     1      46.911 -28.004 -95.956  1.00  0.00     0.015 C
BRANCH  10  11
HETATM   11  C8  UNL     1      47.403 -26.791 -95.358  1.00  0.00    -0.014 C
HETATM   12  C9  UNL     1      47.598 -26.717 -93.865  1.00  0.00     0.005 C
HETATM   13  C10 UNL     1      48.082 -25.254 -93.685  1.00  0.00     0.000 C
HETATM   14  C11 UNL     1      47.507 -24.501 -94.862  1.00  0.00     0.000 C
HETATM   15  C12 UNL     1      46.709 -25.488 -95.687  1.00  0.00     0.005 C
ENDBRANCH  10  11
ENDBRANCH   9  10
BRANCH   1  16
HETATM   16  N1  UNL     1      49.882 -28.959-100.248  1.00  0.00    -0.392 N
ATOM     17  H12 UNL     1      50.078 -29.251-101.205  1.00  0.00     0.156 HD
ATOM     18  H11 UNL     1      50.638 -28.301-100.060  1.00  0.00     0.156 HD
ENDBRANCH   1  16
TORSDOF 3
ENDMDL