MODEL 3
REMARK VINA RESULT: -7.598053250      1.131      1.392
REMARK  4 active torsions:
REMARK  status: ('A' for Active; 'I' for Inactive)
REMARK    1  A    between atoms: C2_2  and  O1_3
REMARK    2  A    between atoms: C2_2  and  N1_5
REMARK    3  A    between atoms: C2_2  and  C10_14
REMARK    4  A    between atoms: N1_5  and  C3_7
ROOT
HETATM    1  C1  UNL     1      46.005 -27.642 -95.385  1.00  0.00     0.071 C
HETATM    2  C2  UNL     1      47.454 -28.001 -95.486  1.00  0.00     0.131 C
ENDROOT
BRANCH   2   3
HETATM    3  O1  UNL     1      47.508 -29.360 -95.130  1.00  0.00    -0.371 OA
ATOM      4  H1  UNL     1      46.950 -29.796 -95.763  1.00  0.00     0.212 HD
ENDBRANCH   2   3
BRANCH   2   5
HETATM    5  N1  UNL     1      47.983 -27.798 -96.754  1.00  0.00    -0.365 N
ATOM      6  H1  UNL     1      48.369 -26.873 -96.946  1.00  0.00     0.162 HD
BRANCH   5   7
HETATM    7  C3  UNL     1      48.041 -28.721 -97.781  1.00  0.00    -0.015 C
HETATM    8  C4  UNL     1      47.011 -28.563 -98.882  1.00  0.00     0.052 C
HETATM    9  C5  UNL     1      46.586 -29.909 -99.429  1.00  0.00     0.006 C
HETATM   10  C6  UNL     1      47.729 -30.829 -99.713  1.00  0.00     0.000 C
HETATM   11  C7  UNL     1      48.879 -30.195-100.445  1.00  0.00     0.000 C
HETATM   12  C8  UNL     1      49.594 -29.121 -99.717  1.00  0.00     0.006 C
HETATM   13  C9  UNL     1      49.391 -29.117 -98.214  1.00  0.00     0.052 C
ENDBRANCH   5   7
ENDBRANCH   2   5
BRANCH   2  14
HETATM   14  C10 UNL     1      48.308 -27.274 -94.484  1.00  0.00     0.040 C
HETATM   15  C11 UNL     1      49.734 -27.061 -94.876  1.00  0.00     0.009 C
HETATM   16  C12 UNL     1      50.119 -25.725 -94.247  1.00  0.00     0.001 C
HETATM   17  C13 UNL     1      48.957 -25.340 -93.396  1.00  0.00     0.001 C
HETATM   18  C14 UNL     1      47.764 -25.917 -94.167  1.00  0.00     0.009 C
ENDBRANCH   2  14
TORSDOF 4
ENDMDL