MODEL 1
REMARK VINA RESULT: -8.459085908      0.000      0.000
REMARK  1 active torsions:
REMARK  status: ('A' for Active; 'I' for Inactive)
REMARK    1  A    between atoms: C2_3  and  C3_4
ROOT
HETATM    1  C1  UNL     1      49.108 -26.728 -94.204  1.00  0.00     0.175 C
HETATM    2  N1  UNL     1      47.965 -26.502 -95.104  1.00  0.00    -0.186 N
HETATM    3  C2  UNL     1      47.648 -27.342 -96.109  1.00  0.00     0.069 A
HETATM    4  C12 UNL     1      46.532 -26.789 -96.710  1.00  0.00     0.136 A
HETATM    5  N2  UNL     1      46.256 -25.664 -96.034  1.00  0.00    -0.200 N
ATOM      6  H2  UNL     1      45.479 -25.038 -96.249  1.00  0.00     0.183 HD
HETATM    7  C13 UNL     1      47.131 -25.470 -95.037  1.00  0.00     0.678 A
HETATM    8  N3  UNL     1      47.185 -24.509 -94.181  1.00  0.00    -0.234 N
ATOM      9  H31 UNL     1      46.544 -23.717 -94.130  1.00  0.00     0.174 HD
ATOM     10  H32 UNL     1      47.851 -24.361 -93.423  1.00  0.00     0.174 HD
ENDROOT
BRANCH   3  11
HETATM   11  C3  UNL     1      48.350 -28.615 -96.520  1.00  0.00    -0.051 C
HETATM   12  C4  UNL     1      47.333 -29.579 -96.979  1.00  0.00     0.036 C
HETATM   13  C5  UNL     1      46.603 -29.341 -98.242  1.00  0.00     0.004 C
HETATM   14  C6  UNL     1      47.014 -30.412 -99.248  1.00  0.00     0.000 C
HETATM   15  C7  UNL     1      47.727 -29.852-100.432  1.00  0.00     0.000 C
HETATM   16  C8  UNL     1      49.188 -30.150-100.456  1.00  0.00     0.000 C
HETATM   17  C9  UNL     1      49.893 -29.933 -99.159  1.00  0.00     0.000 C
HETATM   18  C10 UNL     1      49.676 -28.495 -98.700  1.00  0.00     0.004 C
HETATM   19  C11 UNL     1      49.590 -28.374 -97.225  1.00  0.00     0.036 C
ENDBRANCH   3  11
TORSDOF 1
ENDMDL