MODEL 1
REMARK VINA RESULT: -7.763401944      0.000      0.000
REMARK  3 active torsions:
REMARK  status: ('A' for Active; 'I' for Inactive)
REMARK    1  A    between atoms: C2_2  and  C3_4
REMARK    2  A    between atoms: C3_4  and  C4_5
REMARK    3  A    between atoms: C8_9  and  O2_10
ROOT
HETATM    1  C4  UNL     1      48.136 -28.918 -96.703  1.00  0.00    -0.027 C
HETATM    2  C5  UNL     1      47.281 -30.139 -96.468  1.00  0.00     0.016 C
HETATM    3  C6  UNL     1      47.257 -27.868 -97.351  1.00  0.00     0.013 C
HETATM    4  C7  UNL     1      46.976 -26.822 -96.285  1.00  0.00     0.039 C
HETATM    5  C8  UNL     1      47.407 -27.503 -94.976  1.00  0.00     0.066 C
HETATM    6  C9  UNL     1      47.620 -26.560 -93.867  1.00  0.00     0.038 C
HETATM    7  C10 UNL     1      48.887 -25.770 -93.909  1.00  0.00     0.003 C
HETATM    8  C11 UNL     1      50.025 -26.404 -94.596  1.00  0.00     0.001 C
HETATM    9  C12 UNL     1      49.673 -27.247 -95.793  1.00  0.00     0.013 C
HETATM   10  C13 UNL     1      48.606 -28.262 -95.461  1.00  0.00    -0.005 C
HETATM   11  C14 UNL     1      49.175 -29.198 -94.438  1.00  0.00     0.019 C
ENDROOT
BRANCH   1  12
HETATM   12  C3  UNL     1      49.294 -29.200 -97.618  1.00  0.00     0.087 C
BRANCH  12  13
HETATM   13  C2  UNL     1      48.829 -29.362 -99.031  1.00  0.00     0.123 C
HETATM   14  C1  UNL     1      47.819 -30.380 -99.402  1.00  0.00     0.091 C
HETATM   15  O1  UNL     1      49.292 -28.644 -99.883  1.00  0.00    -0.298 OA
ENDBRANCH  12  13
ENDBRANCH   1  12
BRANCH   5  16
HETATM   16  O2  UNL     1      46.385 -28.362 -94.649  1.00  0.00    -0.389 OA
ATOM     17  H2  UNL     1      46.692 -28.853 -93.896  1.00  0.00     0.210 HD
ENDBRANCH   5  16
TORSDOF 3
ENDMDL