MODEL 2
REMARK VINA RESULT: -7.000829995      0.832      1.033
REMARK  3 active torsions:
REMARK  status: ('A' for Active; 'I' for Inactive)
REMARK    1  A    between atoms: C3_5  and  C4_6
REMARK    2  A    between atoms: C4_6  and  C5_7
REMARK    3  A    between atoms: N2_17  and  N3_19
ROOT
HETATM    1  C1  UNL     1      46.197 -27.637 -96.297  1.00  0.00     0.039 C
HETATM    2  C2  UNL     1      47.246 -28.199 -96.919  1.00  0.00     0.010 C
HETATM    3  N1  UNL     1      47.393 -27.924 -98.308  1.00  0.00    -0.388 N
ATOM      4  H1  UNL     1      46.732 -27.278 -98.740  1.00  0.00     0.159 HD
HETATM    5  C3  UNL     1      48.420 -28.503 -99.146  1.00  0.00     0.081 C
HETATM    6  C7  UNL     1      49.503 -29.056 -98.292  1.00  0.00     0.026 C
HETATM    7  C8  UNL     1      48.877 -29.948 -97.238  1.00  0.00     0.024 C
HETATM    8  C9  UNL     1      48.198 -29.058 -96.195  1.00  0.00     0.041 C
HETATM    9  C10 UNL     1      47.521 -29.967 -95.226  1.00  0.00     0.022 C
HETATM   10  C11 UNL     1      48.500 -30.838 -94.489  1.00  0.00     0.002 C
HETATM   11  C12 UNL     1      49.616 -30.086 -93.835  1.00  0.00     0.006 C
HETATM   12  C13 UNL     1      50.260 -29.065 -94.745  1.00  0.00     0.055 C
HETATM   13  C14 UNL     1      49.221 -28.275 -95.455  1.00  0.00     0.018 C
HETATM   14  N2  UNL     1      49.198 -26.995 -95.435  1.00  0.00    -0.314 N
ATOM     15  H2  UNL     1      48.449 -26.529 -95.947  1.00  0.00     0.185 HD
ENDROOT
BRANCH  14  16
HETATM   16  N3  UNL     1      50.113 -26.193 -94.771  1.00  0.00    -0.345 N
ATOM     17  H32 UNL     1      49.830 -25.847 -93.854  1.00  0.00     0.176 HD
ATOM     18  H31 UNL     1      51.031 -25.932 -95.130  1.00  0.00     0.176 HD
ENDBRANCH  14  16
BRANCH   5  19
HETATM   19  C4  UNL     1      47.783 -29.482-100.080  1.00  0.00     0.024 C
BRANCH  19  20
HETATM   20  C5  UNL     1      46.369 -29.835 -99.697  1.00  0.00    -0.002 C
HETATM   21  C6  UNL     1      45.577 -30.313-100.898  1.00  0.00     0.005 C
ENDBRANCH  19  20
ENDBRANCH   5  19
TORSDOF 3
ENDMDL