MODEL 1
REMARK VINA RESULT: -6.939256765      0.000      0.000
REMARK  4 active torsions:
REMARK  status: ('A' for Active; 'I' for Inactive)
REMARK    1  A    between atoms: C1_2  and  N1_3
REMARK    2  A    between atoms: C1_2  and  N2_10
REMARK    3  A    between atoms: N1_3  and  C2_5
REMARK    4  A    between atoms: N2_10  and  C6_12
ROOT
HETATM    1  S1  UNL     1      49.992 -30.155 -94.433  1.00  0.00    -0.041 SA
HETATM    2  C1  UNL     1      50.029 -28.707 -95.266  1.00  0.00     0.172 C
ENDROOT
BRANCH   2   3
HETATM    3  N1  UNL     1      50.282 -28.780 -96.605  1.00  0.00    -0.328 N
ATOM      4  H1  UNL     1      51.246 -28.606 -96.886  1.00  0.00     0.169 HD
BRANCH   3   5
HETATM    5  C2  UNL     1      49.380 -29.067 -97.648  1.00  0.00     0.075 A
HETATM    6  C3  UNL     1      49.691 -29.285 -98.993  1.00  0.00     0.038 A
HETATM    7  C4  UNL     1      48.663 -29.542 -99.816  1.00  0.00     0.010 A
HETATM    8  C5  UNL     1      47.410 -29.574 -99.305  1.00  0.00     0.052 A
HETATM    9  S2  UNL     1      47.682 -29.242 -97.665  1.00  0.00    -0.084 SA
ENDBRANCH   3   5
ENDBRANCH   2   3
BRANCH   2  10
HETATM   10  N2  UNL     1      49.786 -27.564 -94.510  1.00  0.00    -0.362 N
ATOM     11  H2  UNL     1      50.268 -27.520 -93.613  1.00  0.00     0.162 HD
BRANCH  10  12
HETATM   12  C6  UNL     1      48.952 -26.442 -94.820  1.00  0.00     0.083 C
HETATM   13  C7  UNL     1      49.236 -25.232 -94.006  1.00  0.00     0.025 C
HETATM   14  C8  UNL     1      48.426 -24.049 -94.507  1.00  0.00     0.002 C
HETATM   15  C9  UNL     1      47.000 -24.370 -94.793  1.00  0.00     0.000 C
HETATM   16  C10 UNL     1      46.788 -25.662 -95.552  1.00  0.00     0.002 C
HETATM   17  C11 UNL     1      47.465 -26.759 -94.711  1.00  0.00     0.025 C
ENDBRANCH  10  12
ENDBRANCH   2  10
TORSDOF 4
ENDMDL