MODEL 4
REMARK VINA RESULT: -6.178676573      2.392      3.440
REMARK  2 active torsions:
REMARK  status: ('A' for Active; 'I' for Inactive)
REMARK    1  A    between atoms: C2_2  and  C3_4
REMARK    2  A    between atoms: C13_14  and  O1_15
ROOT
HETATM    1  C3  UNL     1      47.670 -28.382 -97.072  1.00  0.00    -0.027 C
HETATM    2  C4  UNL     1      47.496 -27.231 -98.075  1.00  0.00     0.016 C
HETATM    3  C5  UNL     1      46.542 -28.340 -96.143  1.00  0.00     0.018 C
HETATM    4  C6  UNL     1      46.866 -28.493 -94.679  1.00  0.00     0.015 C
HETATM    5  C7  UNL     1      47.428 -27.308 -94.026  1.00  0.00     0.007 C
HETATM    6  C8  UNL     1      48.804 -26.886 -94.328  1.00  0.00     0.001 C
HETATM    7  C9  UNL     1      49.220 -26.921 -95.748  1.00  0.00     0.005 C
HETATM    8  C10 UNL     1      49.038 -28.209 -96.471  1.00  0.00    -0.005 C
HETATM    9  C11 UNL     1      49.591 -29.413 -95.809  1.00  0.00     0.008 C
HETATM   10  C12 UNL     1      48.912 -29.997 -94.666  1.00  0.00     0.032 C
HETATM   11  C13 UNL     1      47.487 -29.799 -94.445  1.00  0.00     0.122 C
ENDROOT
BRANCH   1  12
HETATM   12  C2  UNL     1      47.702 -29.647 -97.925  1.00  0.00     0.063 C
HETATM   13  C1  UNL     1      46.296 -29.833 -98.488  1.00  0.00     0.023 C
HETATM   14  S1  UNL     1      48.851 -29.426 -99.322  1.00  0.00    -0.092 SA
ENDBRANCH   1  12
BRANCH  11  15
HETATM   15  O1  UNL     1      47.189 -30.185 -93.112  1.00  0.00    -0.395 OA
ATOM     16  H1  UNL     1      48.011 -30.265 -92.645  1.00  0.00     0.210 HD
ENDBRANCH  11  15
TORSDOF 2
ENDMDL