MODEL 4
REMARK VINA RESULT: -7.673889712      1.343      3.378
REMARK  3 active torsions:
REMARK  status: ('A' for Active; 'I' for Inactive)
REMARK    1  A    between atoms: C2_2  and  C3_3
REMARK    2  A    between atoms: C9_9  and  C10_10
REMARK    3  A    between atoms: C10_10  and  C11_11
ROOT
HETATM    1  C3  UNL     1      48.677 -27.289 -95.413  1.00  0.00    -0.006 C
HETATM    2  C4  UNL     1      49.548 -28.118 -94.515  1.00  0.00     0.038 C
HETATM    3  C5  UNL     1      49.272 -29.543 -94.457  1.00  0.00    -0.087 C
HETATM    4  C6  UNL     1      50.387 -30.528 -94.209  1.00  0.00     0.043 C
HETATM    5  C7  UNL     1      48.033 -29.994 -94.622  1.00  0.00    -0.024 C
HETATM    6  C8  UNL     1      47.001 -28.974 -94.859  1.00  0.00     0.033 C
HETATM    7  C9  UNL     1      47.405 -27.904 -95.841  1.00  0.00     0.003 C
ENDROOT
BRANCH   7   8
HETATM    8  C10 UNL     1      47.280 -28.258 -97.280  1.00  0.00    -0.011 C
HETATM    9  C13 UNL     1      48.714 -28.285 -97.841  1.00  0.00     0.039 C
HETATM   10  C14 UNL     1      48.799 -29.495 -98.731  1.00  0.00     0.233 C
HETATM   11  N1  UNL     1      47.501 -30.059 -98.801  1.00  0.00    -0.074 N
HETATM   12  C15 UNL     1      46.742 -29.560 -97.661  1.00  0.00     0.242 C
ATOM     13  H12 UNL     1      47.039 -29.882 -99.693  1.00  0.00     0.277 HD
ATOM     14  H11 UNL     1      47.513 -31.077 -98.854  1.00  0.00     0.277 HD
BRANCH   8  15
HETATM   15  C11 UNL     1      46.599 -27.131 -98.030  1.00  0.00     0.007 C
HETATM   16  C12 UNL     1      46.029 -26.075 -97.112  1.00  0.00     0.006 C
ENDBRANCH   8  15
ENDBRANCH   7   8
BRANCH   1  17
HETATM   17  C2  UNL     1      48.411 -26.000 -94.621  1.00  0.00     0.001 C
HETATM   18  C1  UNL     1      49.608 -25.575 -93.829  1.00  0.00     0.005 C
ENDBRANCH   1  17
TORSDOF 3
ENDMDL