MODEL 3
REMARK VINA RESULT: -8.613531404      1.250      2.136
REMARK  8 active torsions:
REMARK  status: ('A' for Active; 'I' for Inactive)
REMARK    1  A    between atoms: C3_3  and  C5_5
REMARK    2  A    between atoms: C3_3  and  C7_7
REMARK    3  A    between atoms: C8_8  and  C9_9
REMARK    4  A    between atoms: C10_10  and  C11_11
REMARK    5  A    between atoms: C11_11  and  C12_12
REMARK    6  A    between atoms: C17_20  and  C18_21
REMARK       I    between atoms: C18_21  and  N2_23
REMARK    7  A    between atoms: N2_23  and  C19_25
REMARK    8  A    between atoms: C19_25  and  C20_26
ROOT
HETATM    1  C1  UNL     1      47.485 -32.106 -86.418  1.00  0.00     0.013 C
HETATM    2  C2  UNL     1      47.533 -32.669 -87.493  1.00  0.00    -0.100 C
HETATM    3  C3  UNL     1      47.591 -33.346 -88.779  1.00  0.00     0.054 C
HETATM    4  C4  UNL     1      48.978 -33.932 -89.003  1.00  0.00     0.038 C
ENDROOT
BRANCH   3   5
HETATM    5  C5  UNL     1      46.609 -34.459 -88.868  1.00  0.00    -0.011 C
HETATM    6  C6  UNL     1      45.323 -34.203 -88.973  1.00  0.00     0.009 C
ENDBRANCH   3   5
BRANCH   3   7
HETATM    7  C7  UNL     1      47.280 -32.363 -89.848  1.00  0.00    -0.001 C
HETATM    8  C8  UNL     1      48.069 -32.258 -90.894  1.00  0.00    -0.002 C
BRANCH   8   9
HETATM    9  C9  UNL     1      47.770 -31.307 -91.930  1.00  0.00    -0.004 C
HETATM   10  C10 UNL     1      47.941 -31.595 -93.206  1.00  0.00    -0.026 C
BRANCH  10  11
HETATM   11  C11 UNL     1      47.624 -30.591 -94.283  1.00  0.00     0.032 C
BRANCH  11  12
HETATM   12  C12 UNL     1      48.520 -30.942 -95.453  1.00  0.00     0.006 C
HETATM   13  C13 UNL     1      48.726 -32.434 -95.566  1.00  0.00     0.033 C
HETATM   14  C14 UNL     1      49.320 -32.738 -96.911  1.00  0.00     0.233 C
HETATM   15  N1  UNL     1      50.127 -31.621 -97.364  1.00  0.00    -0.070 N
HETATM   16  C15 UNL     1      50.819 -30.975 -96.293  1.00  0.00     0.195 C
ATOM     17  H12 UNL     1      50.774 -31.911 -98.097  1.00  0.00     0.277 HD
ATOM     18  H11 UNL     1      49.567 -30.954 -97.893  1.00  0.00     0.277 HD
HETATM   19  C16 UNL     1      51.791 -31.874 -95.570  1.00  0.00     0.041 C
HETATM   20  C17 UNL     1      49.850 -30.271 -95.384  1.00  0.00     0.112 C
BRANCH  20  21
HETATM   21  C18 UNL     1      49.794 -28.832 -95.722  1.00  0.00     0.224 C
HETATM   22  O1  UNL     1      49.859 -28.473 -96.908  1.00  0.00    -0.273 OA
HETATM   23  N2  UNL     1      49.669 -27.875 -94.695  1.00  0.00    -0.360 N
ATOM     24  H2  UNL     1      49.619 -28.206 -93.731  1.00  0.00     0.162 HD
BRANCH  23  25
HETATM   25  C19 UNL     1      49.609 -26.460 -94.932  1.00  0.00     0.127 C
BRANCH  25  26
HETATM   26  C20 UNL     1      48.190 -25.911 -94.892  1.00  0.00     0.003 C
HETATM   27  C21 UNL     1      47.204 -26.901 -95.454  1.00  0.00     0.006 C
HETATM   28  C22 UNL     1      46.900 -26.615 -96.928  1.00  0.00     0.000 C
HETATM   29  C23 UNL     1      46.168 -25.310 -97.043  1.00  0.00     0.000 C
HETATM   30  C24 UNL     1      46.802 -24.281 -96.136  1.00  0.00     0.000 C
HETATM   31  C25 UNL     1      48.213 -24.687 -95.809  1.00  0.00     0.006 C
ENDBRANCH  25  26
ENDBRANCH  23  25
ENDBRANCH  20  21
ENDBRANCH  11  12
ENDBRANCH  10  11
ENDBRANCH   8   9
ENDBRANCH   3   7
TORSDOF 8
ENDMDL