MODEL 5
REMARK VINA RESULT: -7.427202812      3.454      7.460
REMARK  10 active torsions:
REMARK  status: ('A' for Active; 'I' for Inactive)
REMARK    1  A    between atoms: C2_2  and  C3_3
REMARK    2  A    between atoms: C3_3  and  C4_4
REMARK    3  A    between atoms: C4_4  and  N1_5
REMARK    4  A    between atoms: N1_5  and  C5_7
REMARK    5  A    between atoms: C5_7  and  C6_8
REMARK    6  A    between atoms: C6_8  and  C7_9
REMARK    7  A    between atoms: C7_9  and  N2_10
REMARK    8  A    between atoms: N2_10  and  C8_11
REMARK    9  A    between atoms: N2_10  and  C10_16
REMARK   10  A    between atoms: C8_11  and  N3_13
ROOT
HETATM    1  N2  UNL     1      49.486 -32.234 -96.600  1.00  0.00    -0.353 N
ENDROOT
BRANCH   1   2
HETATM    2  C7  UNL     1      49.176 -32.648 -95.243  1.00  0.00     0.131 C
BRANCH   2   3
HETATM    3  C6  UNL     1      50.254 -32.324 -94.247  1.00  0.00     0.064 C
BRANCH   3   4
HETATM    4  C5  UNL     1      49.887 -31.295 -93.221  1.00  0.00     0.057 C
BRANCH   4   5
HETATM    5  N1  UNL     1      49.357 -31.752 -92.008  1.00  0.00    -0.402 N
ATOM      6  H1  UNL     1      49.975 -32.115 -91.281  1.00  0.00     0.158 HD
BRANCH   5   7
HETATM    7  C4  UNL     1      47.956 -31.706 -91.798  1.00  0.00     0.118 C
BRANCH   7   8
HETATM    8  C3  UNL     1      47.626 -31.567 -90.305  1.00  0.00     0.019 C
BRANCH   8   9
HETATM    9  C2  UNL     1      47.100 -32.885 -89.816  1.00  0.00    -0.003 C
HETATM   10  C1  UNL     1      47.423 -33.090 -88.339  1.00  0.00     0.005 C
ENDBRANCH   8   9
ENDBRANCH   7   8
ENDBRANCH   5   7
ENDBRANCH   4   5
ENDBRANCH   3   4
ENDBRANCH   2   3
ENDBRANCH   1   2
BRANCH   1  11
HETATM   11  C8  UNL     1      50.237 -33.075 -97.453  1.00  0.00     0.169 C
HETATM   12  S1  UNL     1      51.830 -32.609 -97.699  1.00  0.00    -0.041 SA
BRANCH  11  13
HETATM   13  N3  UNL     1      49.761 -34.205 -98.153  1.00  0.00    -0.371 N
HETATM   14  C9  UNL     1      48.757 -33.995 -99.202  1.00  0.00     0.148 C
ATOM     15  H3  UNL     1      50.105 -35.140 -97.936  1.00  0.00     0.161 HD
ENDBRANCH  11  13
ENDBRANCH   1  11
BRANCH   1  16
HETATM   16  C10 UNL     1      49.104 -30.930 -97.107  1.00  0.00     0.087 C
HETATM   17  C11 UNL     1      50.089 -29.835 -96.663  1.00  0.00     0.031 C
HETATM   18  C12 UNL     1      49.310 -28.805 -95.899  1.00  0.00     0.001 C
HETATM   19  C13 UNL     1      49.657 -27.387 -96.372  1.00  0.00    -0.005 C
HETATM   20  C20 UNL     1      47.939 -29.012 -96.479  1.00  0.00    -0.034 C
HETATM   21  C14 UNL     1      49.863 -26.510 -95.177  1.00  0.00     0.006 C
HETATM   22  C22 UNL     1      48.422 -26.926 -97.152  1.00  0.00    -0.005 C
HETATM   23  C15 UNL     1      48.894 -25.331 -95.178  1.00  0.00     0.005 C
HETATM   24  C16 UNL     1      47.446 -25.825 -95.120  1.00  0.00    -0.014 C
HETATM   25  C17 UNL     1      46.590 -24.599 -95.403  1.00  0.00     0.010 C
HETATM   26  C18 UNL     1      47.218 -26.785 -96.243  1.00  0.00    -0.006 C
HETATM   27  C19 UNL     1      46.903 -28.206 -95.778  1.00  0.00     0.015 C
HETATM   28  C21 UNL     1      48.065 -28.265 -97.812  1.00  0.00     0.015 C
HETATM   29  C23 UNL     1      47.752 -30.454 -96.637  1.00  0.00     0.035 C
ENDBRANCH   1  16
TORSDOF 10
ENDMDL