MODEL 4
REMARK VINA RESULT: -8.576114954      1.452      4.146
REMARK  8 active torsions:
REMARK  status: ('A' for Active; 'I' for Inactive)
REMARK    1  A    between atoms: C3_3  and  N1_4
REMARK    2  A    between atoms: C3_3  and  C9_12
REMARK       I    between atoms: N1_4  and  C4_6
REMARK    3  A    between atoms: C4_6  and  C5_8
REMARK    4  A    between atoms: C9_12  and  C12_15
REMARK    5  A    between atoms: C12_15  and  N2_16
REMARK    6  A    between atoms: N2_16  and  C13_19
REMARK    7  A    between atoms: C13_19  and  C15_21
REMARK    8  A    between atoms: C15_21  and  C16_22
ROOT
HETATM    1  C1  UNL     1      46.943 -24.285 -95.586  1.00  0.00     0.099 C
HETATM    2  C2  UNL     1      47.229 -25.456 -95.791  1.00  0.00    -0.162 C
HETATM    3  C3  UNL     1      47.548 -26.858 -96.049  1.00  0.00     0.160 C
ENDROOT
BRANCH   3   4
HETATM    4  N1  UNL     1      47.586 -27.056 -97.473  1.00  0.00    -0.346 N
HETATM    5  C4  UNL     1      46.808 -28.047 -98.136  1.00  0.00     0.222 C
HETATM    6  O1  UNL     1      46.066 -28.769 -97.432  1.00  0.00    -0.273 OA
ATOM      7  H1  UNL     1      48.197 -26.461 -98.031  1.00  0.00     0.163 HD
BRANCH   5   8
HETATM    8  C5  UNL     1      46.821 -28.278 -99.595  1.00  0.00     0.078 C
HETATM    9  C6  UNL     1      48.165 -28.649-100.188  1.00  0.00     0.014 C
HETATM   10  C7  UNL     1      47.411 -29.699-101.016  1.00  0.00     0.002 C
HETATM   11  C8  UNL     1      46.335 -29.666 -99.933  1.00  0.00     0.014 C
ENDBRANCH   5   8
ENDBRANCH   3   4
BRANCH   3  12
HETATM   12  C9  UNL     1      48.860 -27.170 -95.381  1.00  0.00     0.007 C
HETATM   13  C10 UNL     1      49.269 -26.062 -94.470  1.00  0.00     0.019 C
HETATM   14  C11 UNL     1      49.898 -27.480 -96.433  1.00  0.00     0.019 C
BRANCH  12  15
HETATM   15  C12 UNL     1      48.728 -28.426 -94.506  1.00  0.00     0.244 C
BRANCH  15  16
HETATM   16  N2  UNL     1      47.591 -29.196 -94.854  1.00  0.00    -0.070 N
ATOM     17  H22 UNL     1      46.772 -28.891 -94.329  1.00  0.00     0.277 HD
ATOM     18  H21 UNL     1      47.278 -28.972 -95.799  1.00  0.00     0.277 HD
BRANCH  16  19
HETATM   19  C13 UNL     1      47.801 -30.661 -94.701  1.00  0.00     0.182 C
HETATM   20  C14 UNL     1      47.692 -31.003 -93.239  1.00  0.00     0.040 C
BRANCH  19  21
HETATM   21  C15 UNL     1      49.179 -30.897 -95.196  1.00  0.00     0.042 C
BRANCH  21  22
HETATM   22  C16 UNL     1      49.409 -31.493 -96.525  1.00  0.00    -0.037 C
HETATM   23  C17 UNL     1      49.679 -32.994 -96.228  1.00  0.00     0.014 C
HETATM   24  C18 UNL     1      50.059 -33.756 -97.450  1.00  0.00    -0.013 C
HETATM   25  C19 UNL     1      48.916 -33.641 -98.445  1.00  0.00     0.009 C
HETATM   26  C23 UNL     1      51.330 -33.238 -98.046  1.00  0.00     0.009 C
HETATM   27  C20 UNL     1      48.807 -32.194 -98.807  1.00  0.00    -0.013 C
HETATM   28  C21 UNL     1      50.090 -31.605 -99.340  1.00  0.00     0.009 C
HETATM   29  C25 UNL     1      48.350 -31.433 -97.550  1.00  0.00     0.014 C
HETATM   30  C22 UNL     1      51.163 -31.752 -98.302  1.00  0.00    -0.013 C
HETATM   31  C24 UNL     1      50.763 -31.003 -97.074  1.00  0.00     0.014 C
ENDBRANCH  21  22
ENDBRANCH  19  21
ENDBRANCH  16  19
ENDBRANCH  15  16
ENDBRANCH  12  15
ENDBRANCH   3  12
TORSDOF 8
ENDMDL