MODEL 2
REMARK VINA RESULT: -8.079226206      1.441      3.914
REMARK  9 active torsions:
REMARK  status: ('A' for Active; 'I' for Inactive)
REMARK    1  A    between atoms: C2_2  and  N1_4
REMARK    2  A    between atoms: N1_4  and  C4_7
REMARK    3  A    between atoms: C4_7  and  C5_8
REMARK    4  A    between atoms: C5_8  and  N2_9
REMARK       I    between atoms: N2_9  and  C7_11
REMARK    5  A    between atoms: C7_11  and  C8_13
REMARK    6  A    between atoms: C8_13  and  N3_15
REMARK       I    between atoms: N3_15  and  C10_17
REMARK    7  A    between atoms: C10_17  and  C11_19
REMARK    8  A    between atoms: C11_19  and  C12_20
REMARK    9  A    between atoms: C11_19  and  C18_26
ROOT
HETATM    1  N3  UNL     1      49.049 -30.622 -94.740  1.00  0.00    -0.348 N
ATOM      2  H3  UNL     1      48.043 -30.530 -94.890  1.00  0.00     0.163 HD
HETATM    3  C10 UNL     1      49.952 -30.059 -95.682  1.00  0.00     0.223 C
HETATM    4  O2  UNL     1      51.202 -30.198 -95.450  1.00  0.00    -0.273 OA
ENDROOT
BRANCH   1   5
HETATM    5  C8  UNL     1      49.536 -31.325 -93.568  1.00  0.00     0.172 C
HETATM    6  C9  UNL     1      50.035 -32.699 -93.955  1.00  0.00     0.042 C
BRANCH   5   7
HETATM    7  C7  UNL     1      48.440 -31.395 -92.584  1.00  0.00     0.241 C
HETATM    8  N2  UNL     1      48.703 -31.793 -91.249  1.00  0.00    -0.353 N
HETATM    9  C6  UNL     1      50.027 -32.130 -90.812  1.00  0.00     0.152 C
HETATM   10  O1  UNL     1      47.259 -31.096 -92.937  1.00  0.00    -0.271 OA
BRANCH   8  11
HETATM   11  C5  UNL     1      47.580 -31.853 -90.308  1.00  0.00     0.152 C
BRANCH  11  12
HETATM   12  C4  UNL     1      47.845 -33.023 -89.388  1.00  0.00     0.252 C
BRANCH  12  13
HETATM   13  N1  UNL     1      46.710 -33.137 -88.502  1.00  0.00    -0.070 N
ATOM     14  H12 UNL     1      46.392 -32.215 -88.204  1.00  0.00     0.277 HD
ATOM     15  H11 UNL     1      46.995 -33.519 -87.600  1.00  0.00     0.277 HD
BRANCH  13  16
HETATM   16  C2  UNL     1      45.626 -33.893 -89.049  1.00  0.00     0.178 C
HETATM   17  C1  UNL     1      44.333 -33.258 -88.562  1.00  0.00     0.039 C
HETATM   18  C3  UNL     1      45.610 -35.336 -88.622  1.00  0.00     0.039 C
ENDBRANCH  13  16
ENDBRANCH  12  13
ENDBRANCH  11  12
ENDBRANCH   8  11
ENDBRANCH   5   7
ENDBRANCH   1   5
BRANCH   3  19
HETATM   19  C11 UNL     1      49.472 -29.339 -96.888  1.00  0.00     0.086 C
BRANCH  19  20
HETATM   20  C12 UNL     1      50.441 -29.447 -98.028  1.00  0.00    -0.001 C
HETATM   21  C13 UNL     1      50.483 -30.888 -98.471  1.00  0.00     0.005 C
HETATM   22  C14 UNL     1      49.306 -31.279 -99.306  1.00  0.00     0.000 C
HETATM   23  C15 UNL     1      49.250 -30.378-100.508  1.00  0.00     0.000 C
HETATM   24  C16 UNL     1      49.196 -28.918-100.149  1.00  0.00     0.000 C
HETATM   25  C17 UNL     1      50.228 -28.511 -99.142  1.00  0.00     0.005 C
ENDBRANCH  19  20
BRANCH  19  26
HETATM   26  C18 UNL     1      49.037 -27.976 -96.528  1.00  0.00    -0.001 C
HETATM   27  C19 UNL     1      49.532 -27.433 -95.231  1.00  0.00     0.005 C
HETATM   28  C20 UNL     1      49.169 -25.939 -95.239  1.00  0.00     0.000 C
HETATM   29  C21 UNL     1      47.699 -25.747 -95.331  1.00  0.00     0.000 C
HETATM   30  C22 UNL     1      47.021 -26.591 -96.369  1.00  0.00     0.000 C
HETATM   31  C23 UNL     1      47.503 -28.015 -96.396  1.00  0.00     0.005 C
ENDBRANCH  19  26
ENDBRANCH   3  19
TORSDOF 9
ENDMDL