MODEL 4
REMARK VINA RESULT: -8.451016114      2.044      3.066
REMARK  9 active torsions:
REMARK  status: ('A' for Active; 'I' for Inactive)
REMARK    1  A    between atoms: C1_2  and  C2_3
REMARK    2  A    between atoms: C2_3  and  C3_4
REMARK    3  A    between atoms: C3_4  and  C4_5
REMARK    4  A    between atoms: C4_5  and  C5_6
REMARK    5  A    between atoms: C5_6  and  C6_7
REMARK    6  A    between atoms: C6_7  and  C7_8
REMARK    7  A    between atoms: C7_8  and  N2_9
REMARK       I    between atoms: N2_9  and  C8_11
REMARK    8  A    between atoms: C8_11  and  C9_13
REMARK    9  A    between atoms: C10_14  and  C11_15
REMARK       I    between atoms: N3_21  and  C17_23
REMARK       I    between atoms: C17_23  and  N4_25
ROOT
HETATM    1  C4  UNL     1      52.015 -31.156 -97.313  1.00  0.00     0.000 C
ENDROOT
BRANCH   1   2
HETATM    2  C3  UNL     1      51.388 -32.179 -98.194  1.00  0.00     0.007 C
BRANCH   2   3
HETATM    3  C2  UNL     1      50.493 -33.167 -97.549  1.00  0.00     0.073 C
BRANCH   3   4
HETATM    4  C1  UNL     1      49.254 -33.504 -98.233  1.00  0.00     0.097 C
HETATM    5  N1  UNL     1      49.156 -34.489 -99.247  1.00  0.00    -0.087 NA
HETATM    6  N3  UNL     1      48.166 -32.890 -97.926  1.00  0.00    -0.300 N
HETATM    7  C17 UNL     1      48.023 -31.887 -96.963  1.00  0.00     0.323 C
ATOM      8  H3  UNL     1      47.326 -33.163 -98.435  1.00  0.00     0.171 HD
HETATM    9  O2  UNL     1      47.740 -32.181 -95.768  1.00  0.00    -0.247 OA
HETATM   10  N4  UNL     1      48.199 -30.529 -97.342  1.00  0.00    -0.334 N
HETATM   11  C18 UNL     1      48.046 -29.484 -96.329  1.00  0.00     0.127 C
HETATM   12  C22 UNL     1      48.522 -30.116 -98.672  1.00  0.00     0.127 C
HETATM   13  C19 UNL     1      49.358 -28.735 -96.283  1.00  0.00     0.020 C
HETATM   14  C20 UNL     1      49.521 -28.057 -97.635  1.00  0.00     0.003 C
HETATM   15  C21 UNL     1      49.584 -29.050 -98.749  1.00  0.00     0.020 C
ENDBRANCH   3   4
ENDBRANCH   2   3
ENDBRANCH   1   2
BRANCH   1  16
HETATM   16  C5  UNL     1      52.126 -31.756 -95.927  1.00  0.00     0.002 C
BRANCH  16  17
HETATM   17  C6  UNL     1      51.164 -31.152 -94.940  1.00  0.00     0.020 C
BRANCH  17  18
HETATM   18  C7  UNL     1      50.479 -32.187 -94.091  1.00  0.00     0.123 C
BRANCH  18  19
HETATM   19  N2  UNL     1      49.460 -31.619 -93.257  1.00  0.00    -0.358 N
HETATM   20  C8  UNL     1      49.380 -31.964 -91.849  1.00  0.00     0.240 C
HETATM   21  O1  UNL     1      50.236 -32.752 -91.468  1.00  0.00    -0.269 OA
ATOM     22  H2  UNL     1      48.784 -30.968 -93.657  1.00  0.00     0.162 HD
BRANCH  20  23
HETATM   23  C9  UNL     1      48.350 -31.380 -91.057  1.00  0.00     0.070 C
HETATM   24  C10 UNL     1      47.469 -31.855 -90.281  1.00  0.00    -0.017 C
BRANCH  24  25
HETATM   25  C11 UNL     1      46.992 -33.079 -89.761  1.00  0.00     0.008 C
HETATM   26  C12 UNL     1      45.673 -33.174 -89.126  1.00  0.00     0.008 C
HETATM   27  C13 UNL     1      45.259 -34.663 -88.946  1.00  0.00     0.001 C
HETATM   28  C14 UNL     1      46.328 -35.351 -88.166  1.00  0.00     0.000 C
HETATM   29  C15 UNL     1      47.386 -34.379 -87.687  1.00  0.00     0.001 C
HETATM   30  C16 UNL     1      48.051 -33.712 -88.842  1.00  0.00     0.008 C
ENDBRANCH  24  25
ENDBRANCH  20  23
ENDBRANCH  18  19
ENDBRANCH  17  18
ENDBRANCH  16  17
ENDBRANCH   1  16
TORSDOF 9
ENDMDL