MODEL 5
REMARK VINA RESULT: -7.475520205      2.684      6.265
REMARK  10 active torsions:
REMARK  status: ('A' for Active; 'I' for Inactive)
REMARK    1  A    between atoms: C2_2  and  C3_3
REMARK    2  A    between atoms: C3_3  and  C4_4
REMARK    3  A    between atoms: C4_4  and  C5_5
REMARK    4  A    between atoms: C5_5  and  C6_6
REMARK    5  A    between atoms: N1_9  and  C9_10
REMARK    6  A    between atoms: C9_10  and  C10_11
REMARK    7  A    between atoms: C10_11  and  N2_12
REMARK    8  A    between atoms: N2_12  and  C11_14
REMARK    9  A    between atoms: C11_14  and  N3_16
REMARK   10  A    between atoms: N3_16  and  C12_18
ROOT
HETATM    1  N2  UNL     1      48.991 -27.847 -97.088  1.00  0.00    -0.366 N
ATOM      2  H2  UNL     1      49.665 -27.098 -97.246  1.00  0.00     0.161 HD
ENDROOT
BRANCH   1   3
HETATM    3  C10 UNL     1      48.670 -28.174 -95.726  1.00  0.00     0.141 C
BRANCH   3   4
HETATM    4  C9  UNL     1      49.620 -29.187 -95.176  1.00  0.00     0.136 C
BRANCH   4   5
HETATM    5  N1  UNL     1      49.128 -29.909 -94.063  1.00  0.00    -0.411 N
HETATM    6  C8  UNL     1      50.067 -30.606 -93.256  1.00  0.00     0.117 C
HETATM    7  C7  UNL     1      49.639 -32.061 -93.057  1.00  0.00     0.024 C
HETATM    8  C6  UNL     1      48.285 -32.092 -92.350  1.00  0.00    -0.012 C
HETATM    9  C23 UNL     1      47.393 -30.951 -92.775  1.00  0.00     0.024 C
HETATM   10  C22 UNL     1      47.854 -30.506 -94.155  1.00  0.00     0.117 C
BRANCH   8  11
HETATM   11  C5  UNL     1      48.563 -31.983 -90.868  1.00  0.00     0.005 C
BRANCH  11  12
HETATM   12  C4  UNL     1      47.254 -31.948 -90.138  1.00  0.00     0.000 C
BRANCH  12  13
HETATM   13  C3  UNL     1      47.158 -33.007 -89.078  1.00  0.00    -0.000 C
BRANCH  13  14
HETATM   14  C2  UNL     1      45.965 -33.922 -89.245  1.00  0.00    -0.005 C
HETATM   15  C1  UNL     1      44.723 -33.281 -88.679  1.00  0.00     0.005 C
ENDBRANCH  13  14
ENDBRANCH  12  13
ENDBRANCH  11  12
ENDBRANCH   8  11
ENDBRANCH   4   5
ENDBRANCH   3   4
ENDBRANCH   1   3
BRANCH   1  16
HETATM   16  C11 UNL     1      48.443 -28.486 -98.227  1.00  0.00     0.168 C
HETATM   17  S1  UNL     1      46.937 -28.057 -98.689  1.00  0.00    -0.041 SA
BRANCH  16  18
HETATM   18  N3  UNL     1      49.196 -29.483 -98.891  1.00  0.00    -0.358 N
ATOM     19  H3  UNL     1      49.618 -29.200 -99.776  1.00  0.00     0.162 HD
BRANCH  18  20
HETATM   20  C12 UNL     1      49.443 -30.822 -98.496  1.00  0.00     0.033 C
HETATM   21  C13 UNL     1      48.305 -31.372 -97.709  1.00  0.00     0.035 C
HETATM   22  C14 UNL     1      48.625 -32.769 -97.162  1.00  0.00    -0.012 C
HETATM   23  C15 UNL     1      49.926 -32.725 -96.429  1.00  0.00     0.009 C
HETATM   24  C19 UNL     1      48.694 -33.667 -98.397  1.00  0.00     0.009 C
HETATM   25  C16 UNL     1      51.047 -32.367 -97.392  1.00  0.00    -0.012 C
HETATM   26  C17 UNL     1      51.088 -33.294 -98.576  1.00  0.00     0.009 C
HETATM   27  C21 UNL     1      50.797 -30.958 -97.832  1.00  0.00     0.035 C
HETATM   28  C18 UNL     1      49.769 -33.130 -99.306  1.00  0.00    -0.012 C
HETATM   29  C20 UNL     1      49.549 -31.718 -99.749  1.00  0.00     0.035 C
ENDBRANCH  18  20
ENDBRANCH  16  18
ENDBRANCH   1  16
TORSDOF 10
ENDMDL