MODEL 2
REMARK VINA RESULT: -8.996749059      1.154      4.527
REMARK  8 active torsions:
REMARK  status: ('A' for Active; 'I' for Inactive)
REMARK    1  A    between atoms: C9_9  and  C10_10
REMARK       I    between atoms: C10_10  and  N1_12
REMARK    2  A    between atoms: N1_12  and  C11_14
REMARK    3  A    between atoms: C11_14  and  C12_15
REMARK    4  A    between atoms: C12_15  and  C13_16
REMARK    5  A    between atoms: C13_16  and  C14_17
REMARK    6  A    between atoms: C14_17  and  C15_18
REMARK    7  A    between atoms: C15_18  and  C16_19
REMARK       I    between atoms: C16_19  and  N2_21
REMARK    8  A    between atoms: N2_21  and  C17_23
ROOT
HETATM    1  C10 UNL     1      48.866 -28.398 -95.311  1.00  0.00     0.226 C
HETATM    2  O1  UNL     1      49.909 -27.884 -95.736  1.00  0.00    -0.273 OA
HETATM    3  N1  UNL     1      47.618 -27.764 -95.200  1.00  0.00    -0.360 N
ATOM      4  H1  UNL     1      46.818 -28.278 -94.829  1.00  0.00     0.162 HD
ENDROOT
BRANCH   3   5
HETATM    5  C11 UNL     1      47.460 -26.372 -95.616  1.00  0.00     0.122 C
BRANCH   5   6
HETATM    6  C12 UNL     1      46.459 -26.296 -96.708  1.00  0.00     0.020 C
BRANCH   6   7
HETATM    7  C13 UNL     1      46.293 -27.522 -97.499  1.00  0.00     0.002 C
BRANCH   7   8
HETATM    8  C14 UNL     1      46.838 -27.577 -98.856  1.00  0.00     0.009 C
BRANCH   8   9
HETATM    9  C15 UNL     1      46.571 -28.785 -99.660  1.00  0.00     0.103 C
BRANCH   9  10
HETATM   10  C16 UNL     1      47.898 -29.503 -99.912  1.00  0.00     0.217 C
HETATM   11  O2  UNL     1      48.640 -29.041-100.804  1.00  0.00    -0.274 OA
HETATM   12  N2  UNL     1      48.253 -30.633 -99.165  1.00  0.00    -0.356 N
ATOM     13  H2  UNL     1      47.597 -30.956 -98.454  1.00  0.00     0.162 HD
BRANCH  12  14
HETATM   14  C17 UNL     1      49.474 -31.369 -99.328  1.00  0.00     0.084 C
HETATM   15  C18 UNL     1      50.487 -30.752 -98.373  1.00  0.00     0.025 C
HETATM   16  C19 UNL     1      51.810 -31.472 -98.527  1.00  0.00     0.002 C
HETATM   17  C20 UNL     1      51.587 -32.887 -98.075  1.00  0.00     0.000 C
HETATM   18  C21 UNL     1      50.560 -33.589 -98.944  1.00  0.00     0.002 C
HETATM   19  C22 UNL     1      49.277 -32.831 -99.056  1.00  0.00     0.025 C
ENDBRANCH  12  14
ENDBRANCH   9  10
ENDBRANCH   8   9
ENDBRANCH   7   8
ENDBRANCH   6   7
ENDBRANCH   5   6
ENDBRANCH   3   5
BRANCH   1  20
HETATM   20  C9  UNL     1      48.933 -29.842 -94.865  1.00  0.00     0.042 C
HETATM   21  C8  UNL     1      48.072 -30.624 -95.816  1.00  0.00     0.024 C
HETATM   22  C6  UNL     1      48.086 -32.065 -95.359  1.00  0.00    -0.012 C
HETATM   23  C5  UNL     1      49.518 -32.545 -95.416  1.00  0.00     0.009 C
HETATM   24  C7  UNL     1      47.589 -32.198 -93.933  1.00  0.00     0.014 C
HETATM   25  C4  UNL     1      50.355 -31.771 -94.429  1.00  0.00    -0.012 C
HETATM   26  C3  UNL     1      49.822 -31.857 -93.027  1.00  0.00     0.014 C
HETATM   27  C23 UNL     1      50.364 -30.332 -94.854  1.00  0.00     0.024 C
HETATM   28  C2  UNL     1      48.407 -31.337 -93.002  1.00  0.00    -0.042 C
HETATM   29  C1  UNL     1      47.811 -31.443 -91.616  1.00  0.00     0.015 C
HETATM   30  C24 UNL     1      48.331 -29.905 -93.493  1.00  0.00     0.028 C
ENDBRANCH   1  20
TORSDOF 8
ENDMDL