MODEL 5
REMARK VINA RESULT: -8.686132385      3.381      8.083
REMARK  8 active torsions:
REMARK  status: ('A' for Active; 'I' for Inactive)
REMARK    1  A    between atoms: N1_4  and  C4_5
REMARK    2  A    between atoms: C4_5  and  C5_6
REMARK    3  A    between atoms: C5_6  and  C6_7
REMARK    4  A    between atoms: C13_15  and  C14_16
REMARK    5  A    between atoms: C14_16  and  C15_17
REMARK       I    between atoms: C15_17  and  N2_19
REMARK    6  A    between atoms: N2_19  and  C16_21
REMARK    7  A    between atoms: C16_21  and  C17_22
REMARK    8  A    between atoms: C17_22  and  C18_23
ROOT
HETATM    1  C1  UNL     1      47.316 -28.589 -95.592  1.00  0.00     0.033 C
HETATM    2  C2  UNL     1      48.302 -29.414 -94.755  1.00  0.00     0.091 C
HETATM    3  C3  UNL     1      49.602 -29.439 -95.513  1.00  0.00     0.150 C
HETATM    4  N1  UNL     1      50.092 -30.765 -95.751  1.00  0.00    -0.348 N
HETATM    5  C12 UNL     1      49.687 -31.894 -94.990  1.00  0.00     0.242 C
HETATM    6  O1  UNL     1      50.234 -33.021 -95.111  1.00  0.00    -0.271 OA
HETATM    7  C13 UNL     1      48.582 -31.706 -94.031  1.00  0.00     0.178 C
HETATM    8  N3  UNL     1      47.711 -30.690 -94.547  1.00  0.00    -0.404 N
ATOM      9  H3  UNL     1      46.729 -30.872 -94.753  1.00  0.00     0.154 HD
ENDROOT
BRANCH   7  10
HETATM   10  C14 UNL     1      49.105 -31.322 -92.663  1.00  0.00     0.137 C
BRANCH  10  11
HETATM   11  C15 UNL     1      48.010 -31.431 -91.635  1.00  0.00     0.220 C
HETATM   12  O2  UNL     1      47.033 -30.646 -91.710  1.00  0.00    -0.274 OA
HETATM   13  N2  UNL     1      48.061 -32.381 -90.607  1.00  0.00    -0.361 N
ATOM     14  H2  UNL     1      48.866 -33.005 -90.559  1.00  0.00     0.162 HD
BRANCH  13  15
HETATM   15  C16 UNL     1      47.036 -32.513 -89.625  1.00  0.00     0.127 C
BRANCH  15  16
HETATM   16  C17 UNL     1      46.848 -33.946 -89.226  1.00  0.00     0.053 C
BRANCH  16  17
HETATM   17  C18 UNL     1      45.399 -34.162 -88.867  1.00  0.00    -0.082 C
HETATM   18  C19 UNL     1      44.661 -33.143 -88.515  1.00  0.00    -0.024 C
HETATM   19  C20 UNL     1      43.215 -33.263 -88.143  1.00  0.00     0.027 C
HETATM   20  C21 UNL     1      43.001 -34.716 -87.703  1.00  0.00     0.004 C
HETATM   21  C22 UNL     1      43.403 -35.584 -88.854  1.00  0.00     0.005 C
HETATM   22  C23 UNL     1      44.907 -35.573 -88.947  1.00  0.00     0.034 C
ENDBRANCH  16  17
ENDBRANCH  15  16
ENDBRANCH  13  15
ENDBRANCH  10  11
ENDBRANCH   7  10
BRANCH   4  23
HETATM   23  C4  UNL     1      51.047 -30.971 -96.819  1.00  0.00     0.126 C
BRANCH  23  24
HETATM   24  C5  UNL     1      50.722 -30.167 -98.049  1.00  0.00     0.024 C
BRANCH  24  25
HETATM   25  C6  UNL     1      50.083 -31.132 -99.046  1.00  0.00    -0.013 C
HETATM   26  C7  UNL     1      48.608 -30.914 -99.167  1.00  0.00     0.005 C
HETATM   27  C8  UNL     1      47.793 -31.724 -98.204  1.00  0.00     0.000 C
HETATM   28  C9  UNL     1      48.150 -33.191 -98.219  1.00  0.00     0.000 C
HETATM   29  C10 UNL     1      49.356 -33.467 -99.094  1.00  0.00     0.000 C
HETATM   30  C11 UNL     1      50.454 -32.536 -98.644  1.00  0.00     0.005 C
ENDBRANCH  24  25
ENDBRANCH  23  24
ENDBRANCH   4  23
TORSDOF 8
ENDMDL