MODEL 3
REMARK VINA RESULT: -8.113179741      1.875      4.146
REMARK  8 active torsions:
REMARK  status: ('A' for Active; 'I' for Inactive)
REMARK    1  A    between atoms: N1_2  and  C2_3
REMARK    2  A    between atoms: C2_3  and  C3_4
REMARK    3  A    between atoms: C3_4  and  C4_5
REMARK    4  A    between atoms: C4_5  and  C5_6
REMARK    5  A    between atoms: C5_6  and  C6_7
REMARK    6  A    between atoms: C6_7  and  C7_8
REMARK    7  A    between atoms: C7_8  and  C8_9
REMARK    8  A    between atoms: C8_9  and  C9_10
ROOT
HETATM    1  C3  UNL     1      50.293 -31.509 -93.737  1.00  0.00     0.028 C
ENDROOT
BRANCH   1   2
HETATM    2  C2  UNL     1      50.671 -30.858 -95.004  1.00  0.00     0.238 C
BRANCH   2   3
HETATM    3  N1  UNL     1      50.878 -31.624 -96.179  1.00  0.00    -0.062 N
HETATM    4  C1  UNL     1      52.296 -31.848 -96.483  1.00  0.00     0.273 C
HETATM    5  C12 UNL     1      50.301 -32.941 -96.030  1.00  0.00     0.238 C
HETATM    6  C13 UNL     1      49.486 -33.509 -97.143  1.00  0.00     0.032 C
HETATM    7  C14 UNL     1      48.587 -32.575 -97.863  1.00  0.00    -0.010 C
HETATM    8  C15 UNL     1      48.835 -32.365 -99.318  1.00  0.00     0.009 C
HETATM    9  C22 UNL     1      48.787 -31.247 -97.179  1.00  0.00     0.044 C
HETATM   10  C16 UNL     1      49.883 -31.379 -99.651  1.00  0.00    -0.012 C
HETATM   11  C17 UNL     1      49.487 -29.942 -99.740  1.00  0.00     0.005 C
HETATM   12  C21 UNL     1      50.929 -31.426 -98.551  1.00  0.00     0.044 C
HETATM   13  C18 UNL     1      50.180 -29.018 -98.800  1.00  0.00     0.003 C
HETATM   14  C19 UNL     1      50.338 -29.470 -97.370  1.00  0.00     0.039 C
HETATM   15  C20 UNL     1      50.268 -30.966 -97.302  1.00  0.00     0.130 C
ENDBRANCH   2   3
ENDBRANCH   1   2
BRANCH   1  16
HETATM   16  C4  UNL     1      49.075 -30.991 -93.046  1.00  0.00     0.002 C
BRANCH  16  17
HETATM   17  C5  UNL     1      47.798 -31.464 -93.739  1.00  0.00     0.000 C
BRANCH  17  18
HETATM   18  C6  UNL     1      46.991 -30.218 -94.020  1.00  0.00     0.000 C
BRANCH  18  19
HETATM   19  C7  UNL     1      47.845 -29.093 -94.565  1.00  0.00     0.002 C
BRANCH  19  20
HETATM   20  C8  UNL     1      46.957 -28.312 -95.513  1.00  0.00     0.032 C
BRANCH  20  21
HETATM   21  C9  UNL     1      47.746 -27.425 -96.444  1.00  0.00     0.145 C
HETATM   22  N2  UNL     1      47.965 -26.168 -95.742  1.00  0.00    -0.354 N
HETATM   23  C10 UNL     1      46.991 -25.235 -96.156  1.00  0.00     0.189 C
ATOM     24  H2  UNL     1      48.704 -25.990 -95.060  1.00  0.00     0.163 HD
HETATM   25  N3  UNL     1      46.670 -23.956 -95.597  1.00  0.00    -0.063 NA
HETATM   26  N4  UNL     1      46.338 -25.681 -97.199  1.00  0.00    -0.323 N
HETATM   27  C11 UNL     1      46.845 -26.956 -97.547  1.00  0.00     0.102 C
ATOM     28  H4  UNL     1      45.585 -25.191 -97.682  1.00  0.00     0.169 HD
HETATM   29  S1  UNL     1      46.475 -27.731 -98.933  1.00  0.00    -0.063 SA
ENDBRANCH  20  21
ENDBRANCH  19  20
ENDBRANCH  18  19
ENDBRANCH  17  18
ENDBRANCH  16  17
ENDBRANCH   1  16
TORSDOF 8
ENDMDL