MODEL 5
REMARK VINA RESULT: -8.697558253      2.408      6.160
REMARK  9 active torsions:
REMARK  status: ('A' for Active; 'I' for Inactive)
REMARK    1  A    between atoms: C2_2  and  N1_4
REMARK    2  A    between atoms: C2_2  and  C19_25
REMARK       I    between atoms: N1_4  and  C4_6
REMARK    3  A    between atoms: C4_6  and  C5_8
REMARK    4  A    between atoms: C5_8  and  C6_9
REMARK    5  A    between atoms: C5_8  and  C10_15
REMARK    6  A    between atoms: C6_9  and  C7_10
REMARK    7  A    between atoms: C7_10  and  C8_11
REMARK    8  A    between atoms: C8_11  and  C9_12
REMARK    9  A    between atoms: C10_15  and  C11_17
ROOT
HETATM    1  C5  UNL     1      48.013 -27.865 -95.762  1.00  0.00     0.148 C
ENDROOT
BRANCH   1   2
HETATM    2  C4  UNL     1      48.111 -29.164 -95.063  1.00  0.00     0.229 C
HETATM    3  N1  UNL     1      49.277 -29.957 -95.082  1.00  0.00    -0.352 N
ATOM      4  H1  UNL     1      50.071 -29.595 -95.611  1.00  0.00     0.163 HD
HETATM    5  O1  UNL     1      47.114 -29.570 -94.429  1.00  0.00    -0.273 OA
BRANCH   3   6
HETATM    6  C2  UNL     1      49.458 -31.233 -94.425  1.00  0.00     0.029 C
HETATM    7  C1  UNL     1      49.721 -30.949 -92.958  1.00  0.00     0.038 C
HETATM    8  C3  UNL     1      48.101 -31.905 -94.413  1.00  0.00     0.038 C
BRANCH   6   9
HETATM    9  C19 UNL     1      50.533 -32.089 -95.050  1.00  0.00     0.013 C
HETATM   10  C20 UNL     1      51.759 -31.348 -95.429  1.00  0.00     0.007 C
HETATM   11  C21 UNL     1      52.366 -31.715 -96.749  1.00  0.00     0.000 C
HETATM   12  C22 UNL     1      51.417 -31.895 -97.872  1.00  0.00     0.000 C
HETATM   13  C23 UNL     1      50.106 -32.512 -97.501  1.00  0.00     0.000 C
HETATM   14  C24 UNL     1      50.033 -33.019 -96.101  1.00  0.00     0.007 C
ENDBRANCH   6   9
ENDBRANCH   3   6
ENDBRANCH   1   2
BRANCH   1  15
HETATM   15  C6  UNL     1      49.400 -27.219 -95.902  1.00  0.00     0.022 C
BRANCH  15  16
HETATM   16  C7  UNL     1      49.479 -25.948 -95.103  1.00  0.00     0.010 C
BRANCH  16  17
HETATM   17  C8  UNL     1      48.116 -25.379 -94.802  1.00  0.00     0.099 C
BRANCH  17  18
HETATM   18  C9  UNL     1      47.872 -24.126 -95.556  1.00  0.00     0.231 C
HETATM   19  N2  UNL     1      46.681 -23.877 -96.267  1.00  0.00    -0.062 NA
HETATM   20  O2  UNL     1      48.773 -23.254 -95.555  1.00  0.00    -0.277 OA
ENDBRANCH  17  18
ENDBRANCH  16  17
ENDBRANCH  15  16
ENDBRANCH   1  15
BRANCH   1  21
HETATM   21  C10 UNL     1      47.299 -27.895 -97.046  1.00  0.00     0.148 C
HETATM   22  O3  UNL     1      46.342 -27.102 -97.143  1.00  0.00    -0.296 OA
BRANCH  21  23
HETATM   23  C11 UNL     1      47.557 -28.714 -98.199  1.00  0.00     0.022 C
HETATM   24  C12 UNL     1      46.760 -28.353 -99.433  1.00  0.00     0.022 C
HETATM   25  C13 UNL     1      47.111 -29.506-100.371  1.00  0.00    -0.009 C
HETATM   26  C14 UNL     1      48.497 -29.257-100.989  1.00  0.00     0.010 C
HETATM   27  C17 UNL     1      47.756 -30.554 -99.531  1.00  0.00    -0.005 C
HETATM   28  C15 UNL     1      49.048 -29.801 -99.663  1.00  0.00    -0.009 C
HETATM   29  C16 UNL     1      49.027 -28.687 -98.645  1.00  0.00     0.022 C
HETATM   30  C18 UNL     1      47.334 -30.185 -98.101  1.00  0.00     0.022 C
ENDBRANCH  21  23
ENDBRANCH   1  21
TORSDOF 9
ENDMDL