MODEL 3
REMARK VINA RESULT: -8.836234039      0.302      1.961
REMARK  7 active torsions:
REMARK  status: ('A' for Active; 'I' for Inactive)
REMARK    1  A    between atoms: C2_2  and  C3_3
REMARK    2  A    between atoms: C6_6  and  N1_7
REMARK    3  A    between atoms: N1_7  and  C7_9
REMARK    4  A    between atoms: C8_12  and  N3_13
REMARK    5  A    between atoms: N3_13  and  C9_15
REMARK    6  A    between atoms: C10_18  and  C11_19
REMARK    7  A    between atoms: C18_31  and  O1_32
ROOT
HETATM    1  C7  UNL     1       6.422  43.076  58.380  1.00  0.00     0.684 A
HETATM    2  N2  UNL     1       7.277  43.750  59.143  1.00  0.00    -0.174 N
ATOM      3  H2  UNL     1       7.726  43.273  59.925  1.00  0.00     0.186 HD
HETATM    4  C8  UNL     1       7.569  45.047  58.913  1.00  0.00     0.155 A
HETATM    5  C16 UNL     1       6.970  45.715  57.854  1.00  0.00     0.072 A
HETATM    6 BR1  UNL     1       7.414  47.527  57.581  1.00  0.00    -0.046 Br
HETATM    7  C17 UNL     1       6.087  45.011  57.072  1.00  0.00     0.129 A
HETATM    8  N6  UNL     1       5.841  43.722  57.354  1.00  0.00    -0.200 N
ATOM      9  H6  UNL     1       5.184  43.211  56.764  1.00  0.00     0.183 HD
ENDROOT
BRANCH   4  10
HETATM   10  N3  UNL     1       8.479  45.688  59.762  1.00  0.00    -0.174 N
ATOM     11  H3  UNL     1       9.213  46.262  59.345  1.00  0.00     0.186 HD
BRANCH  10  12
HETATM   12  C9  UNL     1       8.430  45.584  61.066  1.00  0.00     0.684 A
HETATM   13  N4  UNL     1       7.263  45.594  61.727  1.00  0.00    -0.195 N
HETATM   14  C10 UNL     1       7.191  45.489  63.065  1.00  0.00     0.028 A
ATOM     15  H4  UNL     1       6.397  45.684  61.194  1.00  0.00     0.184 HD
HETATM   16  C13 UNL     1       8.353  45.368  63.768  1.00  0.00     0.050 A
HETATM   17  C14 UNL     1       9.584  45.353  63.127  1.00  0.00     0.024 A
HETATM   18  C15 UNL     1      10.865  45.222  63.881  1.00  0.00     0.068 C
HETATM   19  N5  UNL     1       9.559  45.464  61.787  1.00  0.00    -0.196 N
ATOM     20  H5  UNL     1      10.449  45.457  61.288  1.00  0.00     0.184 HD
BRANCH  14  21
HETATM   21  C11 UNL     1       5.844  45.512  63.669  1.00  0.00     0.053 C
HETATM   22  C12 UNL     1       5.079  44.232  63.411  1.00  0.00     0.011 C
ENDBRANCH  14  21
ENDBRANCH  10  12
ENDBRANCH   4  10
BRANCH   1  23
HETATM   23  N1  UNL     1       6.135  41.834  58.589  1.00  0.00    -0.189 N
ATOM     24  H1  UNL     1       5.230  41.578  58.984  1.00  0.00     0.184 HD
BRANCH  23  25
HETATM   25  C6  UNL     1       7.088  40.821  58.266  1.00  0.00     0.082 A
HETATM   26  C5  UNL     1       8.271  41.101  57.609  1.00  0.00     0.033 A
HETATM   27  C4  UNL     1       9.128  40.063  57.340  1.00  0.00     0.009 A
HETATM   28  C3  UNL     1       8.855  38.762  57.699  1.00  0.00    -0.056 A
HETATM   29  C20 UNL     1       7.675  38.491  58.352  1.00  0.00     0.046 A
HETATM   30  C18 UNL     1       6.785  39.517  58.640  1.00  0.00     0.096 A
BRANCH  28  31
HETATM   31  C2  UNL     1       9.846  37.679  57.368  1.00  0.00     0.034 C
HETATM   32  C1  UNL     1       9.509  37.177  55.978  1.00  0.00     0.010 C
ENDBRANCH  28  31
BRANCH  30  33
HETATM   33  O1  UNL     1       5.587  39.258  59.302  1.00  0.00    -0.354 OA
HETATM   34  C19 UNL     1       5.635  38.758  60.626  1.00  0.00     0.210 C
ENDBRANCH  30  33
ENDBRANCH  23  25
ENDBRANCH   1  23
TORSDOF 7
ENDMDL