MODEL 2
REMARK VINA RESULT: -8.072734555      2.374      3.464
REMARK  6 active torsions:
REMARK  status: ('A' for Active; 'I' for Inactive)
REMARK    1  A    between atoms: C2_2  and  C3_3
REMARK    2  A    between atoms: C4_6  and  N2_7
REMARK    3  A    between atoms: N4_15  and  C7_16
REMARK    4  A    between atoms: C7_16  and  C8_17
REMARK    5  A    between atoms: C9_18  and  C10_19
REMARK    6  A    between atoms: C15_25  and  O1_26
ROOT
HETATM    1  C3  UNL     1       9.161  44.322  64.692  1.00  0.00     0.083 A
HETATM    2  N1  UNL     1      10.019  45.331  64.511  1.00  0.00    -0.330 N
ATOM      3  H1  UNL     1      10.689  45.520  65.257  1.00  0.00     0.168 HD
HETATM    4  C4  UNL     1      10.065  46.110  63.428  1.00  0.00     0.131 A
HETATM    5  C5  UNL     1       9.151  45.846  62.417  1.00  0.00     0.123 A
HETATM    6  N3  UNL     1       8.882  46.382  61.211  1.00  0.00    -0.330 N
ATOM      7  H3  UNL     1       9.371  47.172  60.789  1.00  0.00     0.168 HD
HETATM    8  C6  UNL     1       7.857  45.700  60.651  1.00  0.00     0.158 A
HETATM    9 BR1  UNL     1       7.106  46.070  58.950  1.00  0.00    -0.010 Br
HETATM   10  N4  UNL     1       7.456  44.722  61.485  1.00  0.00    -0.308 N
HETATM   11  C17 UNL     1       8.260  44.815  62.579  1.00  0.00     0.142 A
HETATM   12  N5  UNL     1       8.280  44.079  63.702  1.00  0.00    -0.330 N
ATOM     13  H5  UNL     1       7.611  43.316  63.808  1.00  0.00     0.168 HD
ENDROOT
BRANCH  10  14
HETATM   14  C7  UNL     1       6.393  43.760  61.280  1.00  0.00     0.160 C
BRANCH  14  15
HETATM   15  C8  UNL     1       6.698  42.898  60.092  1.00  0.00    -0.006 C
HETATM   16  C9  UNL     1       7.319  41.770  60.286  1.00  0.00     0.012 C
BRANCH  16  17
HETATM   17  C10 UNL     1       7.723  40.774  59.317  1.00  0.00    -0.003 A
HETATM   18  C11 UNL     1       8.443  41.133  58.173  1.00  0.00     0.015 A
HETATM   19  C12 UNL     1       8.851  40.224  57.223  1.00  0.00     0.020 A
HETATM   20  C13 UNL     1       8.567  38.897  57.350  1.00  0.00     0.013 A
HETATM   21 BR2  UNL     1       9.107  37.595  56.062  1.00  0.00    -0.051 Br
HETATM   22  C14 UNL     1       7.860  38.501  58.459  1.00  0.00     0.056 A
HETATM   23  C15 UNL     1       7.447  39.434  59.425  1.00  0.00     0.079 A
BRANCH  23  24
HETATM   24  O1  UNL     1       6.754  38.926  60.482  1.00  0.00    -0.355 OA
HETATM   25  C16 UNL     1       5.381  38.669  60.505  1.00  0.00     0.210 C
ENDBRANCH  23  24
ENDBRANCH  16  17
ENDBRANCH  14  15
ENDBRANCH  10  14
BRANCH   4  26
HETATM   26  N2  UNL     1      10.906  47.069  63.295  1.00  0.00    -0.383 N
ATOM     27  H22 UNL     1      10.593  47.974  62.946  1.00  0.00     0.157 HD
ATOM     28  H21 UNL     1      11.896  46.973  63.523  1.00  0.00     0.157 HD
ENDBRANCH   4  26
BRANCH   1  29
HETATM   29  C2  UNL     1       9.121  43.466  65.900  1.00  0.00     0.072 C
HETATM   30  C1  UNL     1      10.533  43.117  66.332  1.00  0.00     0.013 C
ENDBRANCH   1  29
TORSDOF 6
ENDMDL