MODEL 5
REMARK VINA RESULT: -6.805106946      5.153      9.588
REMARK  6 active torsions:
REMARK  status: ('A' for Active; 'I' for Inactive)
REMARK    1  A    between atoms: O1_2  and  C2_3
REMARK    2  A    between atoms: C5_7  and  C6_8
REMARK    3  A    between atoms: C14_19  and  C15_20
REMARK    4  A    between atoms: C15_20  and  C16_21
REMARK    5  A    between atoms: C16_21  and  O3_22
REMARK    6  A    between atoms: C20_28  and  O4_29
ROOT
HETATM    1  C6  UNL     1       6.810  42.145  57.368  1.00  0.00     0.022 C
HETATM    2  C7  UNL     1       7.439  41.134  56.861  1.00  0.00    -0.030 C
HETATM    3  C8  UNL     1       8.702  40.547  57.388  1.00  0.00     0.041 C
HETATM    4  C9  UNL     1       8.948  39.155  56.930  1.00  0.00     0.009 C
HETATM    5  C10 UNL     1       7.665  38.435  56.621  1.00  0.00     0.043 C
HETATM    6  C11 UNL     1       6.981  39.125  55.520  1.00  0.00    -0.009 A
HETATM    7  C12 UNL     1       6.851  40.509  55.654  1.00  0.00     0.049 A
HETATM    8  N1  UNL     1       6.225  41.217  54.710  1.00  0.00    -0.322 N
ATOM      9  H1  UNL     1       6.136  42.227  54.822  1.00  0.00     0.169 HD
HETATM   10  C13 UNL     1       5.712  40.630  53.618  1.00  0.00     0.253 A
HETATM   11  O2  UNL     1       5.114  41.257  52.702  1.00  0.00    -0.268 OA
HETATM   12  C14 UNL     1       5.838  39.243  53.470  1.00  0.00     0.033 A
HETATM   13  C17 UNL     1       6.479  38.464  54.425  1.00  0.00     0.065 A
HETATM   14  C18 UNL     1       6.614  37.044  54.288  1.00  0.00     0.101 C
HETATM   15  N2  UNL     1       6.708  35.919  54.180  1.00  0.00    -0.191 NA
ENDROOT
BRANCH  12  16
HETATM   16  C15 UNL     1       5.297  38.535  52.293  1.00  0.00     0.072 C
BRANCH  16  17
HETATM   17  C16 UNL     1       3.829  38.200  52.467  1.00  0.00     0.169 C
BRANCH  17  18
HETATM   18  O3  UNL     1       3.027  39.202  51.910  1.00  0.00    -0.401 OA
ATOM     19  H3  UNL     1       3.371  40.061  52.123  1.00  0.00     0.209 HD
ENDBRANCH  17  18
ENDBRANCH  16  17
ENDBRANCH  12  16
BRANCH   1  20
HETATM   20  C5  UNL     1       7.252  42.877  58.562  1.00  0.00    -0.015 A
HETATM   21  C4  UNL     1       6.972  42.375  59.809  1.00  0.00     0.024 A
HETATM   22  C3  UNL     1       7.424  43.060  60.928  1.00  0.00     0.059 A
HETATM   23 BR1  UNL     1       5.929  40.775  59.997  1.00  0.00    -0.050 Br
HETATM   24  C2  UNL     1       8.139  44.219  60.798  1.00  0.00     0.102 A
HETATM   25  C20 UNL     1       8.437  44.752  59.530  1.00  0.00     0.102 A
HETATM   26  C19 UNL     1       7.977  44.055  58.443  1.00  0.00     0.052 A
BRANCH  24  27
HETATM   27  O1  UNL     1       8.627  44.966  61.848  1.00  0.00    -0.353 OA
HETATM   28  C1  UNL     1       7.813  45.736  62.670  1.00  0.00     0.210 C
ENDBRANCH  24  27
BRANCH  25  29
HETATM   29  O4  UNL     1       9.163  45.929  59.417  1.00  0.00    -0.353 OA
HETATM   30  C21 UNL     1       8.454  47.121  59.169  1.00  0.00     0.210 C
ENDBRANCH  25  29
ENDBRANCH   1  20
TORSDOF 6
ENDMDL