MODEL 1
REMARK VINA RESULT: -8.041998758      0.000      0.000
REMARK  7 active torsions:
REMARK  status: ('A' for Active; 'I' for Inactive)
REMARK    1  A    between atoms: C2_2  and  C3_3
REMARK    2  A    between atoms: N1_6  and  C6_7
REMARK    3  A    between atoms: C9_11  and  O1_12
REMARK    4  A    between atoms: C10_14  and  O2_16
REMARK    5  A    between atoms: O2_16  and  C12_17
REMARK    6  A    between atoms: C14_19  and  O3_20
REMARK    7  A    between atoms: C16_23  and  O4_24
ROOT
HETATM    1  C6  UNL     1       5.679  44.407  59.768  1.00  0.00     0.090 C
HETATM    2  C7  UNL     1       6.653  45.118  60.297  1.00  0.00    -0.041 C
HETATM    3  C8  UNL     1       7.889  45.610  59.634  1.00  0.00     0.120 C
HETATM    4 BR1  UNL     1       7.501  46.928  58.271  1.00  0.00    -0.084 Br
HETATM    5  C9  UNL     1       8.694  46.256  60.771  1.00  0.00     0.172 C
HETATM    6  C10 UNL     1       8.192  45.484  61.969  1.00  0.00     0.098 C
HETATM    7  C11 UNL     1       8.626  44.046  61.781  1.00  0.00     0.050 C
HETATM    8  C19 UNL     1       6.691  45.568  61.737  1.00  0.00     0.050 C
HETATM    9  C20 UNL     1       5.919  44.626  62.603  1.00  0.00     0.018 C
ENDROOT
BRANCH   6  10
HETATM   10  O2  UNL     1       8.590  45.988  63.203  1.00  0.00    -0.337 OA
BRANCH  10  11
HETATM   11  C12 UNL     1       9.428  45.232  64.009  1.00  0.00     0.075 A
HETATM   12  C13 UNL     1       8.834  44.591  65.102  1.00  0.00     0.073 A
HETATM   13  C14 UNL     1       9.652  43.838  65.911  1.00  0.00     0.070 A
HETATM   14  C15 UNL     1      11.001  43.695  65.690  1.00  0.00     0.073 A
HETATM   15  C16 UNL     1      11.600  44.319  64.619  1.00  0.00     0.073 A
HETATM   16  C18 UNL     1      10.781  45.086  63.791  1.00  0.00     0.073 A
BRANCH  13  17
HETATM   17  O3  UNL     1       9.048  43.201  67.000  1.00  0.00    -0.361 OA
ATOM     18  H3  UNL     1       8.653  42.353  66.835  1.00  0.00     0.217 HD
ENDBRANCH  13  17
BRANCH  15  19
HETATM   19  O4  UNL     1      12.940  44.224  64.334  1.00  0.00    -0.356 OA
HETATM   20  C17 UNL     1      13.810  43.802  65.391  1.00  0.00     0.210 C
ENDBRANCH  15  19
ENDBRANCH  10  11
ENDBRANCH   6  10
BRANCH   5  21
HETATM   21  O1  UNL     1       8.232  47.588  60.806  1.00  0.00    -0.391 OA
ATOM     22  H1  UNL     1       8.557  47.967  59.998  1.00  0.00     0.210 HD
ENDBRANCH   5  21
BRANCH   1  23
HETATM   23  N1  UNL     1       5.635  43.968  58.417  1.00  0.00    -0.389 N
HETATM   24  C5  UNL     1       4.604  44.270  57.450  1.00  0.00     0.122 C
HETATM   25  C4  UNL     1       4.629  43.042  56.566  1.00  0.00     0.026 C
HETATM   26  C3  UNL     1       6.109  42.786  56.422  1.00  0.00     0.005 C
HETATM   27  C21 UNL     1       6.642  43.144  57.786  1.00  0.00     0.126 C
BRANCH  26  28
HETATM   28  C2  UNL     1       6.347  41.347  56.054  1.00  0.00     0.002 C
HETATM   29  C1  UNL     1       7.513  40.784  56.827  1.00  0.00     0.005 C
ENDBRANCH  26  28
ENDBRANCH   1  23
TORSDOF 7
ENDMDL