MODEL 1
REMARK VINA RESULT: -7.355957206      0.000      0.000
REMARK  7 active torsions:
REMARK  status: ('A' for Active; 'I' for Inactive)
REMARK    1  A    between atoms: C2_2  and  C3_3
REMARK    2  A    between atoms: C3_3  and  N1_4
REMARK    3  A    between atoms: N1_4  and  C4_6
REMARK    4  A    between atoms: N3_10  and  C6_12
REMARK    5  A    between atoms: C6_12  and  C7_13
REMARK    6  A    between atoms: C14_23  and  S2_24
REMARK    7  A    between atoms: S2_24  and  N5_25
ROOT
HETATM    1  C4  UNL     1       7.976  37.952  54.974  1.00  0.00     0.117 A
HETATM    2  N2  UNL     1       8.639  36.785  54.781  1.00  0.00    -0.322 N
ATOM      3  H2  UNL     1       8.292  36.203  54.019  1.00  0.00     0.169 HD
HETATM    4  C5  UNL     1       9.667  36.299  55.441  1.00  0.00     0.148 A
HETATM    5  N3  UNL     1      10.235  35.172  55.183  1.00  0.00    -0.370 N
ATOM      6  H3  UNL     1      11.030  34.868  55.745  1.00  0.00     0.161 HD
HETATM    7  S1  UNL     1      10.222  37.286  56.702  1.00  0.00    -0.035 SA
HETATM    8  C11 UNL     1       9.309  38.728  56.850  1.00  0.00     0.093 A
HETATM    9  N4  UNL     1       9.381  39.777  57.681  1.00  0.00    -0.349 N
ATOM     10  H4  UNL     1      10.061  39.892  58.433  1.00  0.00     0.166 HD
HETATM   11  C12 UNL     1       8.417  40.647  57.363  1.00  0.00     0.047 A
HETATM   12  C13 UNL     1       8.066  41.866  57.903  1.00  0.00     0.055 A
HETATM   13  C14 UNL     1       7.020  42.609  57.411  1.00  0.00     0.083 A
HETATM   14  C15 UNL     1       6.343  42.085  56.363  1.00  0.00     0.050 A
HETATM   15  C16 UNL     1       6.643  40.853  55.768  1.00  0.00     0.049 A
HETATM   16 CL1  UNL     1       5.661  40.344  54.431  1.00  0.00    -0.083 Cl
HETATM   17  C17 UNL     1       7.688  40.124  56.267  1.00  0.00     0.029 A
HETATM   18  C18 UNL     1       8.262  38.882  55.932  1.00  0.00     0.056 A
ENDROOT
BRANCH   5  19
HETATM   19  C6  UNL     1       9.760  34.329  54.104  1.00  0.00     0.130 C
BRANCH  19  20
HETATM   20  C7  UNL     1      10.560  33.063  53.977  1.00  0.00    -0.035 C
HETATM   21  C8  UNL     1      10.599  32.555  52.549  1.00  0.00     0.016 C
HETATM   22  C9  UNL     1      11.982  33.367  54.402  1.00  0.00     0.016 C
HETATM   23  C10 UNL     1      10.012  31.975  54.850  1.00  0.00     0.016 C
ENDBRANCH  19  20
ENDBRANCH   5  19
BRANCH   1  24
HETATM   24  N1  UNL     1       7.013  38.102  54.135  1.00  0.00    -0.372 N
ATOM     25  H1  UNL     1       6.635  39.044  54.042  1.00  0.00     0.161 HD
BRANCH  24  26
HETATM   26  C3  UNL     1       6.409  37.084  53.312  1.00  0.00     0.147 C
BRANCH  26  27
HETATM   27  C2  UNL     1       4.990  36.931  53.662  1.00  0.00    -0.018 C
HETATM   28  C1  UNL     1       4.552  36.892  54.934  1.00  0.00     0.008 C
ENDBRANCH  26  27
ENDBRANCH  24  26
ENDBRANCH   1  24
BRANCH  13  29
HETATM   29  S2  UNL     1       6.639  44.128  58.138  1.00  0.00     0.256 S
HETATM   30  O1  UNL     1       6.551  43.989  59.646  1.00  0.00    -0.201 OA
HETATM   31  O2  UNL     1       5.283  44.627  57.695  1.00  0.00    -0.201 OA
BRANCH  29  32
HETATM   32  N5  UNL     1       7.790  45.354  57.769  1.00  0.00    -0.324 N
ATOM     33  H52 UNL     1       8.286  45.394  56.878  1.00  0.00     0.169 HD
ATOM     34  H51 UNL     1       7.916  46.021  58.530  1.00  0.00     0.169 HD
ENDBRANCH  29  32
ENDBRANCH  13  29
TORSDOF 7
ENDMDL