MODEL 4
REMARK VINA RESULT: -6.986355657      1.987      2.735
REMARK  7 active torsions:
REMARK  status: ('A' for Active; 'I' for Inactive)
REMARK    1  A    between atoms: C5_5  and  C6_6
REMARK    2  A    between atoms: C7_7  and  C8_8
REMARK    3  A    between atoms: N3_21  and  C16_22
REMARK    4  A    between atoms: C16_22  and  C17_23
REMARK    5  A    between atoms: C21_28  and  N4_29
REMARK    6  A    between atoms: N4_29  and  C22_31
REMARK    7  A    between atoms: C22_31  and  C23_32
ROOT
HETATM    1  C1  UNL     1       9.835  36.299  55.413  1.00  0.00     0.103 C
HETATM    2  C2  UNL     1       8.959  37.148  55.453  1.00  0.00    -0.146 C
HETATM    3  C3  UNL     1       7.923  38.148  55.478  1.00  0.00     0.032 A
HETATM    4  C4  UNL     1       7.804  38.994  56.565  1.00  0.00     0.044 A
HETATM    5  C5  UNL     1       6.815  39.938  56.571  1.00  0.00     0.041 A
HETATM    6  C19 UNL     1       5.963  40.009  55.479  1.00  0.00     0.055 A
HETATM    7 CL1  UNL     1       4.686  41.207  55.455  1.00  0.00    -0.083 Cl
HETATM    8  C20 UNL     1       6.085  39.161  54.395  1.00  0.00     0.056 A
HETATM    9  C21 UNL     1       7.090  38.203  54.387  1.00  0.00     0.047 A
ENDROOT
BRANCH   9  10
HETATM   10  N4  UNL     1       7.210  37.336  53.271  1.00  0.00    -0.389 N
ATOM     11  H4  UNL     1       8.119  36.928  53.052  1.00  0.00     0.159 HD
BRANCH  10  12
HETATM   12  C22 UNL     1       6.083  37.020  52.445  1.00  0.00     0.119 C
BRANCH  12  13
HETATM   13  C23 UNL     1       5.793  35.552  52.370  1.00  0.00     0.015 C
HETATM   14  C24 UNL     1       6.452  34.772  53.484  1.00  0.00     0.006 C
ENDBRANCH  12  13
ENDBRANCH  10  12
ENDBRANCH   9  10
BRANCH   5  15
HETATM   15  C6  UNL     1       6.686  40.824  57.703  1.00  0.00    -0.058 C
HETATM   16  C7  UNL     1       6.563  41.555  58.656  1.00  0.00    -0.043 C
BRANCH  16  17
HETATM   17  C8  UNL     1       6.390  42.433  59.792  1.00  0.00     0.095 A
HETATM   18  N1  UNL     1       7.298  42.869  60.674  1.00  0.00    -0.334 N
HETATM   19  C9  UNL     1       6.731  43.679  61.592  1.00  0.00     0.129 A
ATOM     20  H1  UNL     1       8.287  42.622  60.654  1.00  0.00     0.168 HD
HETATM   21  C10 UNL     1       5.400  43.772  61.292  1.00  0.00     0.085 A
HETATM   22  N3  UNL     1       7.233  44.352  62.664  1.00  0.00    -0.284 N
HETATM   23  C11 UNL     1       5.185  42.992  60.167  1.00  0.00    -0.007 A
HETATM   24  C13 UNL     1       4.549  44.533  62.054  1.00  0.00     0.265 A
HETATM   25  C12 UNL     1       3.861  42.825  59.515  1.00  0.00     0.052 C
HETATM   26  O1  UNL     1       3.339  44.588  61.740  1.00  0.00    -0.267 OA
HETATM   27  N2  UNL     1       5.068  45.189  63.109  1.00  0.00    -0.270 N
HETATM   28  C14 UNL     1       4.212  46.008  63.946  1.00  0.00     0.164 C
HETATM   29  C15 UNL     1       6.379  45.087  63.391  1.00  0.00     0.332 A
HETATM   30  O2  UNL     1       6.818  45.715  64.384  1.00  0.00    -0.246 OA
BRANCH  22  31
HETATM   31  C16 UNL     1       8.641  44.243  62.986  1.00  0.00     0.135 C
BRANCH  31  32
HETATM   32  C17 UNL     1       9.486  45.331  62.416  1.00  0.00     0.016 C
HETATM   33  C18 UNL     1      10.676  45.709  63.230  1.00  0.00     0.006 C
ENDBRANCH  31  32
ENDBRANCH  22  31
ENDBRANCH  16  17
ENDBRANCH   5  15
TORSDOF 7
ENDMDL