MODEL 1
REMARK VINA RESULT: -7.170379464      0.000      0.000
REMARK  8 active torsions:
REMARK  status: ('A' for Active; 'I' for Inactive)
REMARK    1  A    between atoms: C3_3  and  C4_4
REMARK    2  A    between atoms: C5_5  and  C6_6
REMARK    3  A    between atoms: C6_6  and  N1_7
REMARK    4  A    between atoms: N1_7  and  C7_10
REMARK    5  A    between atoms: C7_10  and  C8_11
REMARK    6  A    between atoms: C8_11  and  O1_12
REMARK    7  A    between atoms: C12_21  and  N4_22
REMARK    8  A    between atoms: N4_22  and  C13_24
ROOT
HETATM    1  C1  UNL     1       7.804  46.482  57.492  1.00  0.00     0.112 C
HETATM    2  C2  UNL     1       7.522  45.883  58.779  1.00  0.00    -0.105 C
HETATM    3  C3  UNL     1       7.282  45.427  59.867  1.00  0.00    -0.065 C
ENDROOT
BRANCH   3   4
HETATM    4  C4  UNL     1       6.948  44.925  61.217  1.00  0.00     0.049 A
HETATM    5  C5  UNL     1       7.612  45.379  62.283  1.00  0.00     0.030 A
HETATM    6  S1  UNL     1       6.849  44.561  63.603  1.00  0.00    -0.073 SA
HETATM    7  C10 UNL     1       5.701  43.659  62.717  1.00  0.00     0.091 A
HETATM    8  N2  UNL     1       4.777  42.707  63.091  1.00  0.00    -0.346 N
HETATM    9  C20 UNL     1       5.949  44.022  61.426  1.00  0.00     0.062 A
HETATM   10  C11 UNL     1       4.054  42.061  62.157  1.00  0.00     0.182 A
ATOM     11  H2  UNL     1       4.641  42.491  64.078  1.00  0.00     0.167 HD
HETATM   12  N3  UNL     1       4.297  42.395  60.897  1.00  0.00    -0.338 N
HETATM   13  C12 UNL     1       5.177  43.315  60.467  1.00  0.00     0.121 A
ATOM     14  H3  UNL     1       3.761  41.904  60.182  1.00  0.00     0.168 HD
BRANCH   5  15
HETATM   15  C6  UNL     1       8.725  46.352  62.534  1.00  0.00     0.280 C
BRANCH  15  16
HETATM   16  N1  UNL     1       9.992  45.706  62.301  1.00  0.00    -0.069 N
ATOM     17  H12 UNL     1       9.849  44.771  61.919  1.00  0.00     0.277 HD
ATOM     18  H11 UNL     1      10.475  46.145  61.517  1.00  0.00     0.277 HD
BRANCH  16  19
HETATM   19  C7  UNL     1      10.828  45.651  63.415  1.00  0.00     0.258 C
BRANCH  19  20
HETATM   20  C8  UNL     1      10.419  45.212  64.763  1.00  0.00     0.194 C
BRANCH  20  21
HETATM   21  O1  UNL     1      10.251  43.876  64.997  1.00  0.00    -0.394 OA
HETATM   22  C9  UNL     1      11.166  43.386  65.915  1.00  0.00     0.201 C
ENDBRANCH  20  21
ENDBRANCH  19  20
ENDBRANCH  16  19
ENDBRANCH  15  16
ENDBRANCH   5  15
BRANCH  13  23
HETATM   23  N4  UNL     1       5.501  43.387  59.215  1.00  0.00    -0.341 N
ATOM     24  H4  UNL     1       5.146  44.133  58.618  1.00  0.00     0.167 HD
BRANCH  23  25
HETATM   25  C13 UNL     1       6.362  42.391  58.713  1.00  0.00     0.039 A
HETATM   26  C14 UNL     1       6.980  41.506  59.617  1.00  0.00     0.031 A
HETATM   27  C15 UNL     1       7.819  40.514  59.216  1.00  0.00     0.021 A
HETATM   28  C16 UNL     1       8.098  40.340  57.878  1.00  0.00     0.011 A
HETATM   29 BR1  UNL     1       9.268  38.938  57.258  1.00  0.00    -0.051 Br
HETATM   30  C17 UNL     1       7.500  41.201  56.967  1.00  0.00     0.028 A
HETATM   31  C18 UNL     1       6.630  42.227  57.394  1.00  0.00    -0.034 A
HETATM   32  C19 UNL     1       6.041  43.087  56.363  1.00  0.00     0.050 C
ENDBRANCH  23  25
ENDBRANCH  13  23
ENDBRANCH   3   4
TORSDOF 8
ENDMDL