MODEL 4
REMARK VINA RESULT: -6.571907302      3.454      7.113
REMARK  9 active torsions:
REMARK  status: ('A' for Active; 'I' for Inactive)
REMARK    1  A    between atoms: C3_3  and  C4_4
REMARK    2  A    between atoms: C4_4  and  C5_5
REMARK    3  A    between atoms: C4_4  and  C9_10
REMARK    4  A    between atoms: C5_5  and  O1_7
REMARK    5  A    between atoms: O1_7  and  C7_8
REMARK    6  A    between atoms: C12_14  and  C13_15
REMARK    7  A    between atoms: C19_22  and  O3_23
REMARK    8  A    between atoms: C19_22  and  C20_25
REMARK    9  A    between atoms: C22_27  and  O4_28
ROOT
HETATM    1  C1  UNL     1      10.299  37.168  57.137  1.00  0.00     0.112 C
HETATM    2  C2  UNL     1       9.458  38.382  57.023  1.00  0.00    -0.111 C
HETATM    3  C3  UNL     1       8.760  39.356  56.918  1.00  0.00    -0.097 C
ENDROOT
BRANCH   3   4
HETATM    4  C4  UNL     1       7.857  40.528  56.748  1.00  0.00     0.125 C
BRANCH   4   5
HETATM    5  C5  UNL     1       7.039  40.314  55.488  1.00  0.00     0.135 C
HETATM    6  C6  UNL     1       6.150  41.474  55.171  1.00  0.00     0.041 C
BRANCH   5   7
HETATM    7  O1  UNL     1       6.239  39.180  55.742  1.00  0.00    -0.385 OA
BRANCH   7   8
HETATM    8  C7  UNL     1       6.030  38.470  54.560  1.00  0.00     0.163 C
HETATM    9  C8  UNL     1       6.883  37.235  54.524  1.00  0.00     0.033 C
ENDBRANCH   7   8
ENDBRANCH   5   7
ENDBRANCH   4   5
BRANCH   4  10
HETATM   10  C9  UNL     1       7.227  40.969  57.947  1.00  0.00     0.179 C
HETATM   11  O2  UNL     1       7.225  39.896  58.959  1.00  0.00    -0.341 OA
HETATM   12  C10 UNL     1       6.070  39.999  59.755  1.00  0.00     0.079 A
HETATM   13  C11 UNL     1       5.349  38.904  60.164  1.00  0.00     0.050 A
HETATM   14  C18 UNL     1       5.708  41.332  60.066  1.00  0.00     0.013 A
HETATM   15  C12 UNL     1       4.176  39.040  60.922  1.00  0.00    -0.015 A
HETATM   16  C16 UNL     1       3.813  40.319  61.228  1.00  0.00     0.022 A
HETATM   17 BR1  UNL     1       2.280  40.651  62.349  1.00  0.00    -0.050 Br
HETATM   18  C17 UNL     1       4.572  41.417  60.802  1.00  0.00     0.033 A
HETATM   19  C19 UNL     1       6.500  42.479  59.679  1.00  0.00     0.115 C
HETATM   20  C22 UNL     1       7.696  42.150  58.743  1.00  0.00     0.188 C
BRANCH  15  21
HETATM   21  C13 UNL     1       3.286  37.893  61.156  1.00  0.00    -0.076 C
HETATM   22  C14 UNL     1       2.166  37.678  60.201  1.00  0.00     0.044 C
HETATM   23  C15 UNL     1       3.885  36.639  61.688  1.00  0.00     0.044 C
ENDBRANCH  15  21
BRANCH  19  24
HETATM   24  O3  UNL     1       5.653  43.255  58.814  1.00  0.00    -0.382 OA
ATOM     25  H3  UNL     1       4.806  42.826  58.837  1.00  0.00     0.211 HD
ENDBRANCH  19  24
BRANCH  19  26
HETATM   26  C20 UNL     1       6.984  43.395  60.741  1.00  0.00     0.041 C
HETATM   27  C21 UNL     1       6.340  44.739  60.885  1.00  0.00     0.009 C
ENDBRANCH  19  26
BRANCH  20  28
HETATM   28  O4  UNL     1       7.923  43.286  58.006  1.00  0.00    -0.390 OA
ATOM     29  H4  UNL     1       7.755  43.197  57.076  1.00  0.00     0.210 HD
ENDBRANCH  20  28
ENDBRANCH   4  10
ENDBRANCH   3   4
TORSDOF 9
ENDMDL