MODEL 4
REMARK VINA RESULT: -7.441220293      3.861      9.442
REMARK  6 active torsions:
REMARK  status: ('A' for Active; 'I' for Inactive)
REMARK    1  A    between atoms: C5_7  and  O1_8
REMARK    2  A    between atoms: C9_14  and  C10_15
REMARK    3  A    between atoms: C12_17  and  O2_18
REMARK    4  A    between atoms: O2_18  and  C13_19
REMARK    5  A    between atoms: C13_19  and  C14_20
REMARK    6  A    between atoms: C14_20  and  N2_21
ROOT
HETATM    1  C10 UNL     1       6.100  44.346  61.473  1.00  0.00     0.047 A
HETATM    2  C11 UNL     1       5.910  43.052  61.067  1.00  0.00     0.067 A
HETATM    3  C12 UNL     1       4.640  42.437  61.093  1.00  0.00     0.072 A
HETATM    4  C20 UNL     1       3.578  43.182  61.543  1.00  0.00     0.053 A
HETATM    5  C21 UNL     1       3.797  44.481  61.946  1.00  0.00     0.091 A
HETATM    6  N4  UNL     1       5.015  45.005  61.899  1.00  0.00    -0.365 N
ATOM      7  H4  UNL     1       5.132  45.970  62.208  1.00  0.00     0.165 HD
ENDROOT
BRANCH   1   8
HETATM    8  C9  UNL     1       7.427  44.947  61.429  1.00  0.00     0.025 A
HETATM    9  C2  UNL     1       8.004  45.685  60.420  1.00  0.00     0.019 A
HETATM   10  C1  UNL     1       7.371  46.038  59.098  1.00  0.00     0.069 C
HETATM   11  N1  UNL     1       9.234  46.023  60.844  1.00  0.00    -0.358 N
HETATM   12  C3  UNL     1       9.495  45.553  62.067  1.00  0.00     0.046 A
ATOM     13  H1  UNL     1       9.893  46.576  60.295  1.00  0.00     0.166 HD
HETATM   14  C4  UNL     1      10.591  45.623  62.929  1.00  0.00     0.068 A
HETATM   15  C8  UNL     1       8.355  44.870  62.445  1.00  0.00     0.006 A
HETATM   16  C5  UNL     1      10.559  45.017  64.166  1.00  0.00     0.085 A
HETATM   17  C6  UNL     1       9.427  44.333  64.555  1.00  0.00     0.045 A
HETATM   18 BR1  UNL     1       9.290  43.465  66.247  1.00  0.00    -0.048 Br
HETATM   19  C7  UNL     1       8.335  44.259  63.704  1.00  0.00     0.036 A
BRANCH  16  20
HETATM   20  O1  UNL     1      11.634  45.067  65.048  1.00  0.00    -0.359 OA
ATOM     21  H1  UNL     1      11.987  45.887  65.373  1.00  0.00     0.217 HD
ENDBRANCH  16  20
ENDBRANCH   1   8
BRANCH   3  22
HETATM   22  O2  UNL     1       4.497  41.157  60.680  1.00  0.00    -0.349 OA
BRANCH  22  23
HETATM   23  C13 UNL     1       4.909  40.431  59.604  1.00  0.00     0.206 C
BRANCH  23  24
HETATM   24  C14 UNL     1       6.047  39.511  59.877  1.00  0.00     0.299 C
BRANCH  24  25
HETATM   25  N2  UNL     1       6.960  39.393  58.756  1.00  0.00     0.093 N
HETATM   26  C15 UNL     1       7.914  40.458  58.674  1.00  0.00     0.302 C
HETATM   27  C16 UNL     1       8.828  40.202  57.495  1.00  0.00     0.302 C
HETATM   28  N3  UNL     1       8.605  38.936  56.865  1.00  0.00     0.087 N
HETATM   29  C17 UNL     1       9.248  37.871  57.601  1.00  0.00     0.310 C
HETATM   30  C18 UNL     1       7.247  38.652  56.520  1.00  0.00     0.302 C
HETATM   31  C19 UNL     1       6.266  39.304  57.483  1.00  0.00     0.302 C
ENDBRANCH  24  25
ENDBRANCH  23  24
ENDBRANCH  22  23
ENDBRANCH   3  22
TORSDOF 6
ENDMDL