MODEL 4
REMARK VINA RESULT: -7.688413798      2.499      7.597
REMARK  8 active torsions:
REMARK  status: ('A' for Active; 'I' for Inactive)
REMARK    1  A    between atoms: N2_8  and  C6_10
REMARK    2  A    between atoms: C6_10  and  C7_11
REMARK    3  A    between atoms: C7_11  and  C8_12
REMARK    4  A    between atoms: C8_12  and  C9_13
REMARK    5  A    between atoms: C9_13  and  N3_14
REMARK    6  A    between atoms: N5_21  and  C11_23
REMARK    7  A    between atoms: C11_23  and  C12_24
REMARK    8  A    between atoms: C12_24  and  C13_25
ROOT
HETATM    1  C1  UNL     1      -4.309 -33.391  75.866  1.00  0.00     0.102 C
HETATM    2  C2  UNL     1      -4.626 -33.474  77.043  1.00  0.00    -0.157 C
HETATM    3  C3  UNL     1      -5.001 -33.547  78.423  1.00  0.00     0.099 C
HETATM    4  C4  UNL     1      -4.122 -33.957  79.318  1.00  0.00     0.143 A
HETATM    5  N1  UNL     1      -2.792 -34.329  78.906  1.00  0.00    -0.175 N
ATOM      6  H1  UNL     1      -2.517 -34.279  77.925  1.00  0.00     0.186 HD
HETATM    7  C5  UNL     1      -1.874 -34.766  79.892  1.00  0.00     0.694 A
HETATM    8  N2  UNL     1      -0.695 -35.095  79.522  1.00  0.00    -0.226 N
ATOM      9  H2  UNL     1      -0.041 -35.407  80.240  1.00  0.00     0.177 HD
HETATM   10  N4  UNL     1      -2.241 -34.840  81.260  1.00  0.00    -0.022 N
ATOM     11  H4  UNL     1      -1.554 -35.159  81.943  1.00  0.00     0.203 HD
HETATM   12  C10 UNL     1      -3.553 -34.478  81.705  1.00  0.00     0.694 A
HETATM   13  N5  UNL     1      -3.923 -34.529  82.917  1.00  0.00    -0.225 N
ATOM     14  H5  UNL     1      -3.221 -34.849  83.583  1.00  0.00     0.177 HD
HETATM   15  N6  UNL     1      -4.459 -34.045  80.707  1.00  0.00    -0.175 N
ATOM     16  H6  UNL     1      -5.402 -33.781  80.992  1.00  0.00     0.186 HD
ENDROOT
BRANCH   8  17
HETATM   17  C6  UNL     1      -0.229 -35.054  78.159  1.00  0.00     0.138 C
BRANCH  17  18
HETATM   18  C7  UNL     1       0.046 -36.456  77.683  1.00  0.00     0.022 C
BRANCH  18  19
HETATM   19  C8  UNL     1      -1.208 -37.236  77.407  1.00  0.00     0.029 C
BRANCH  19  20
HETATM   20  C9  UNL     1      -0.987 -38.452  76.570  1.00  0.00     0.229 C
BRANCH  20  21
HETATM   21  N3  UNL     1       0.247 -38.371  75.808  1.00  0.00    -0.079 N
ATOM     22  H33 UNL     1       0.341 -39.160  75.169  1.00  0.00     0.274 HD
ATOM     23  H32 UNL     1       0.212 -37.614  75.125  1.00  0.00     0.274 HD
ATOM     24  H31 UNL     1       1.064 -38.286  76.413  1.00  0.00     0.274 HD
ENDBRANCH  20  21
ENDBRANCH  19  20
ENDBRANCH  18  19
ENDBRANCH  17  18
ENDBRANCH   8  17
BRANCH  13  25
HETATM   25  C11 UNL     1      -5.189 -34.196  83.463  1.00  0.00     0.142 C
BRANCH  25  26
HETATM   26  C12 UNL     1      -5.296 -32.747  83.886  1.00  0.00     0.058 C
BRANCH  26  27
HETATM   27  C13 UNL     1      -6.511 -32.116  83.277  1.00  0.00    -0.057 A
HETATM   28  C14 UNL     1      -6.480 -31.512  82.050  1.00  0.00     0.007 A
HETATM   29  C15 UNL     1      -7.607 -30.947  81.525  1.00  0.00     0.001 A
HETATM   30  C16 UNL     1      -8.802 -30.968  82.212  1.00  0.00     0.000 A
HETATM   31  C17 UNL     1      -8.842 -31.579  83.456  1.00  0.00     0.001 A
HETATM   32  C18 UNL     1      -7.697 -32.145  83.974  1.00  0.00     0.007 A
ENDBRANCH  26  27
ENDBRANCH  25  26
ENDBRANCH  13  25
TORSDOF 8
ENDMDL