MODEL 4
REMARK VINA RESULT: -7.721911203      2.060      6.143
REMARK  7 active torsions:
REMARK  status: ('A' for Active; 'I' for Inactive)
REMARK    1  A    between atoms: N2_4  and  C3_5
REMARK    2  A    between atoms: C3_5  and  C4_6
REMARK    3  A    between atoms: C4_6  and  C5_7
REMARK    4  A    between atoms: C5_7  and  C6_8
REMARK    5  A    between atoms: C6_8  and  C7_9
REMARK    6  A    between atoms: C7_9  and  N3_10
REMARK    7  A    between atoms: C12_16  and  C13_17
ROOT
HETATM    1  C7  UNL     1      -2.664 -36.111  76.876  1.00  0.00     0.129 C
ENDROOT
BRANCH   1   2
HETATM    2  C6  UNL     1      -3.905 -35.833  76.076  1.00  0.00     0.020 C
BRANCH   2   3
HETATM    3  C5  UNL     1      -4.181 -34.383  75.826  1.00  0.00     0.003 C
BRANCH   3   4
HETATM    4  C4  UNL     1      -3.967 -33.472  76.986  1.00  0.00     0.020 C
BRANCH   4   5
HETATM    5  C3  UNL     1      -5.188 -33.184  77.789  1.00  0.00     0.129 C
BRANCH   5   6
HETATM    6  N2  UNL     1      -5.100 -33.527  79.173  1.00  0.00    -0.353 N
HETATM    7  C2  UNL     1      -6.136 -33.235  79.985  1.00  0.00     0.186 A
HETATM    8  N1  UNL     1      -6.147 -33.517  81.301  1.00  0.00    -0.336 N
HETATM    9  C1  UNL     1      -7.275 -33.185  82.120  1.00  0.00     0.158 C
HETATM   10  C16 UNL     1      -5.054 -34.126  81.809  1.00  0.00     0.120 A
HETATM   11  C15 UNL     1      -3.981 -34.436  81.003  1.00  0.00     0.062 A
HETATM   12  N7  UNL     1      -5.028 -34.442  83.201  1.00  0.00    -0.083 NA
HETATM   13  C14 UNL     1      -3.981 -34.141  79.657  1.00  0.00     0.095 A
ENDBRANCH   5   6
ENDBRANCH   4   5
ENDBRANCH   3   4
ENDBRANCH   2   3
ENDBRANCH   1   2
BRANCH   1  14
HETATM   14  N3  UNL     1      -2.419 -37.515  77.089  1.00  0.00    -0.352 N
HETATM   15  C8  UNL     1      -3.508 -38.331  77.330  1.00  0.00     0.117 A
HETATM   16  C9  UNL     1      -3.391 -39.675  77.569  1.00  0.00     0.061 A
HETATM   17  N4  UNL     1      -4.554 -40.471  77.812  1.00  0.00    -0.101 NA
HETATM   18  C10 UNL     1      -2.154 -40.274  77.579  1.00  0.00     0.030 A
HETATM   19  C11 UNL     1      -1.080 -39.470  77.342  1.00  0.00     0.035 A
HETATM   20  C12 UNL     1      -1.226 -38.078  77.096  1.00  0.00     0.075 A
BRANCH  20  21
HETATM   21  C13 UNL     1       0.005 -37.372  76.841  1.00  0.00     0.137 C
HETATM   22  N5  UNL     1       0.523 -37.236  75.702  1.00  0.00    -0.386 N
ATOM     23  H52 UNL     1       0.018 -37.665  74.926  1.00  0.00     0.157 HD
ATOM     24  H51 UNL     1       1.394 -36.736  75.522  1.00  0.00     0.157 HD
HETATM   25  N6  UNL     1       0.708 -36.774  77.920  1.00  0.00    -0.081 NA
ENDBRANCH  20  21
ENDBRANCH   1  14
TORSDOF 7
ENDMDL