MODEL 2
REMARK VINA RESULT: -7.523098797      0.760      1.089
REMARK  10 active torsions:
REMARK  status: ('A' for Active; 'I' for Inactive)
REMARK    1  A    between atoms: N1_2  and  C2_4
REMARK    2  A    between atoms: C5_7  and  C6_8
REMARK    3  A    between atoms: C6_8  and  C7_9
REMARK    4  A    between atoms: C7_9  and  N2_10
REMARK    5  A    between atoms: N2_10  and  C8_12
REMARK    6  A    between atoms: C9_17  and  N5_18
REMARK    7  A    between atoms: N5_18  and  C10_20
REMARK    8  A    between atoms: C10_20  and  C11_21
REMARK    9  A    between atoms: C11_21  and  C12_22
REMARK   10  A    between atoms: C12_22  and  O1_23
ROOT
HETATM    1  C8  UNL     1       0.165 -37.515  76.763  1.00  0.00     0.707 A
HETATM    2  N3  UNL     1       0.552 -38.630  77.440  1.00  0.00    -0.117 N
ATOM      3  H3  UNL     1       1.448 -38.753  77.911  1.00  0.00     0.206 HD
HETATM    4  N4  UNL     1      -0.415 -39.532  77.393  1.00  0.00    -0.117 N
ATOM      5  H4  UNL     1      -0.389 -40.459  77.818  1.00  0.00     0.206 HD
HETATM    6  C9  UNL     1      -1.438 -39.016  76.689  1.00  0.00     0.707 A
HETATM    7  N6  UNL     1      -1.071 -37.783  76.310  1.00  0.00    -0.020 N
ATOM      8  H6  UNL     1      -1.644 -37.144  75.759  1.00  0.00     0.203 HD
ENDROOT
BRANCH   1   9
HETATM    9  N2  UNL     1       0.857 -36.428  76.600  1.00  0.00    -0.224 N
ATOM     10  H2  UNL     1       1.646 -36.390  75.954  1.00  0.00     0.177 HD
BRANCH   9  11
HETATM   11  C7  UNL     1       0.458 -35.274  77.377  1.00  0.00     0.142 C
BRANCH  11  12
HETATM   12  C6  UNL     1      -0.312 -34.356  76.434  1.00  0.00     0.060 C
BRANCH  12  13
HETATM   13  C5  UNL     1      -1.664 -34.129  76.976  1.00  0.00    -0.041 A
HETATM   14  C4  UNL     1      -2.022 -34.580  78.217  1.00  0.00     0.012 A
HETATM   15  C3  UNL     1      -3.294 -34.341  78.674  1.00  0.00     0.049 A
HETATM   16  C2  UNL     1      -4.225 -33.659  77.919  1.00  0.00     0.100 A
HETATM   17  N7  UNL     1      -3.815 -33.243  76.712  1.00  0.00    -0.352 N
HETATM   18  C14 UNL     1      -2.582 -33.452  76.220  1.00  0.00     0.096 A
ATOM     19  H7  UNL     1      -4.482 -32.735  76.130  1.00  0.00     0.166 HD
BRANCH  16  20
HETATM   20  N1  UNL     1      -5.406 -33.451  78.373  1.00  0.00    -0.381 N
HETATM   21  C1  UNL     1      -5.675 -33.109  79.751  1.00  0.00     0.147 C
ATOM     22  H1  UNL     1      -6.193 -33.531  77.730  1.00  0.00     0.160 HD
ENDBRANCH  16  20
ENDBRANCH  12  13
ENDBRANCH  11  12
ENDBRANCH   9  11
ENDBRANCH   1   9
BRANCH   6  23
HETATM   23  N5  UNL     1      -2.590 -39.556  76.395  1.00  0.00    -0.224 N
ATOM     24  H5  UNL     1      -3.001 -39.496  75.463  1.00  0.00     0.177 HD
BRANCH  23  25
HETATM   25  C10 UNL     1      -3.262 -40.271  77.528  1.00  0.00     0.140 C
BRANCH  25  26
HETATM   26  C11 UNL     1      -4.581 -39.619  77.661  1.00  0.00     0.046 C
BRANCH  26  27
HETATM   27  C12 UNL     1      -4.736 -38.173  77.481  1.00  0.00     0.168 C
BRANCH  27  28
HETATM   28  O1  UNL     1      -5.048 -37.652  76.302  1.00  0.00    -0.396 OA
HETATM   29  C13 UNL     1      -4.425 -36.605  75.726  1.00  0.00     0.201 C
ENDBRANCH  27  28
ENDBRANCH  26  27
ENDBRANCH  25  26
ENDBRANCH  23  25
ENDBRANCH   6  23
TORSDOF 10
ENDMDL