MODEL 2
REMARK VINA RESULT: -8.301213025      2.117      4.310
REMARK  10 active torsions:
REMARK  status: ('A' for Active; 'I' for Inactive)
REMARK    1  A    between atoms: N1_3  and  C3_5
REMARK    2  A    between atoms: C3_5  and  C4_6
REMARK    3  A    between atoms: C3_5  and  N2_14
REMARK    4  A    between atoms: C4_6  and  C5_7
REMARK    5  A    between atoms: C5_7  and  C6_8
REMARK    6  A    between atoms: N2_14  and  C12_16
REMARK    7  A    between atoms: C12_16  and  C13_17
REMARK    8  A    between atoms: C13_17  and  C14_18
REMARK    9  A    between atoms: C14_18  and  N3_19
REMARK   10  A    between atoms: N3_19  and  C15_21
ROOT
HETATM    1  C1  UNL     1      -3.582 -40.580  77.392  1.00  0.00     0.037 C
HETATM    2  C2  UNL     1      -2.742 -39.806  77.006  1.00  0.00     0.000 C
HETATM    3  N1  UNL     1      -1.783 -38.933  76.543  1.00  0.00    -0.306 N
ATOM      4  H1  UNL     1      -1.312 -39.136  75.661  1.00  0.00     0.177 HD
ENDROOT
BRANCH   3   5
HETATM    5  C3  UNL     1      -1.470 -37.878  77.187  1.00  0.00     0.084 C
BRANCH   5   6
HETATM    6  C4  UNL     1      -2.063 -37.468  78.455  1.00  0.00     0.081 C
BRANCH   6   7
HETATM    7  C5  UNL     1      -3.128 -36.447  78.464  1.00  0.00     0.046 C
BRANCH   7   8
HETATM    8  C6  UNL     1      -3.203 -35.563  79.629  1.00  0.00    -0.058 A
HETATM    9  C7  UNL     1      -2.147 -35.507  80.548  1.00  0.00     0.007 A
HETATM   10  C8  UNL     1      -2.217 -34.717  81.671  1.00  0.00     0.001 A
HETATM   11  C9  UNL     1      -3.347 -33.952  81.916  1.00  0.00     0.000 A
HETATM   12  C10 UNL     1      -4.396 -33.987  81.030  1.00  0.00     0.001 A
HETATM   13  C11 UNL     1      -4.307 -34.795  79.899  1.00  0.00     0.007 A
ENDBRANCH   7   8
ENDBRANCH   6   7
ENDBRANCH   5   6
BRANCH   5  14
HETATM   14  N2  UNL     1      -0.434 -37.084  76.570  1.00  0.00    -0.379 N
ATOM     15  H2  UNL     1      -0.400 -36.966  75.558  1.00  0.00     0.160 HD
BRANCH  14  16
HETATM   16  C12 UNL     1       0.540 -36.468  77.409  1.00  0.00     0.122 C
BRANCH  16  17
HETATM   17  C13 UNL     1       0.336 -34.959  77.490  1.00  0.00     0.040 C
BRANCH  17  18
HETATM   18  C14 UNL     1      -0.183 -34.454  76.161  1.00  0.00     0.139 C
BRANCH  18  19
HETATM   19  N3  UNL     1      -1.316 -33.606  76.453  1.00  0.00    -0.225 N
ATOM     20  H3  UNL     1      -1.150 -32.760  76.999  1.00  0.00     0.177 HD
BRANCH  19  21
HETATM   21  C15 UNL     1      -2.509 -33.846  76.072  1.00  0.00     0.696 A
HETATM   22  N4  UNL     1      -2.990 -34.571  75.071  1.00  0.00    -0.128 N
HETATM   23  N5  UNL     1      -4.309 -34.510  75.097  1.00  0.00    -0.237 N
ATOM     24  H4  UNL     1      -2.432 -35.089  74.391  1.00  0.00     0.205 HD
HETATM   25  C16 UNL     1      -4.715 -33.738  76.125  1.00  0.00     0.353 A
ATOM     26  H5  UNL     1      -4.929 -34.978  74.437  1.00  0.00     0.192 HD
HETATM   27  O1  UNL     1      -5.918 -33.463  76.447  1.00  0.00    -0.245 OA
HETATM   28  N6  UNL     1      -3.581 -33.334  76.723  1.00  0.00    -0.139 N
ATOM     29  H6  UNL     1      -3.534 -32.731  77.544  1.00  0.00     0.189 HD
ENDBRANCH  19  21
ENDBRANCH  18  19
ENDBRANCH  17  18
ENDBRANCH  16  17
ENDBRANCH  14  16
ENDBRANCH   5  14
ENDBRANCH   3   5
TORSDOF 10
ENDMDL