MODEL 3
REMARK VINA RESULT: -7.357546084      1.418      4.804
REMARK  10 active torsions:
REMARK  status: ('A' for Active; 'I' for Inactive)
REMARK    1  A    between atoms: C3_3  and  C4_4
REMARK    2  A    between atoms: C4_4  and  N1_5
REMARK    3  A    between atoms: N1_5  and  C5_7
REMARK    4  A    between atoms: C6_10  and  N3_11
REMARK    5  A    between atoms: C7_16  and  N5_17
REMARK    6  A    between atoms: N5_17  and  C8_19
REMARK    7  A    between atoms: C8_19  and  C9_20
REMARK    8  A    between atoms: C9_20  and  C10_21
REMARK    9  A    between atoms: C10_21  and  C11_22
REMARK   10  A    between atoms: C11_22  and  N6_23
ROOT
HETATM    1  C1  UNL     1      -4.763 -38.105  77.568  1.00  0.00     0.012 C
HETATM    2  C2  UNL     1      -4.017 -39.040  77.379  1.00  0.00    -0.116 C
HETATM    3  C3  UNL     1      -3.126 -40.168  77.149  1.00  0.00     0.113 C
ENDROOT
BRANCH   3   4
HETATM    4  C4  UNL     1      -1.678 -39.745  77.379  1.00  0.00     0.150 C
BRANCH   4   5
HETATM    5  N1  UNL     1      -1.336 -38.683  76.487  1.00  0.00    -0.224 N
ATOM      6  H1  UNL     1      -1.681 -38.728  75.528  1.00  0.00     0.177 HD
BRANCH   5   7
HETATM    7  C5  UNL     1      -0.624 -37.681  76.825  1.00  0.00     0.707 A
HETATM    8  N2  UNL     1       0.614 -37.826  77.312  1.00  0.00    -0.022 N
HETATM    9  C6  UNL     1       1.312 -36.701  77.651  1.00  0.00     0.705 A
ATOM     10  H2  UNL     1       1.025 -38.752  77.427  1.00  0.00     0.203 HD
HETATM   11  N4  UNL     1       0.764 -35.485  77.495  1.00  0.00    -0.022 N
HETATM   12  C7  UNL     1      -0.489 -35.327  77.002  1.00  0.00     0.707 A
ATOM     13  H4  UNL     1       1.305 -34.659  77.754  1.00  0.00     0.203 HD
HETATM   14  N7  UNL     1      -1.154 -36.431  76.678  1.00  0.00    -0.022 N
ATOM     15  H7  UNL     1      -2.099 -36.341  76.304  1.00  0.00     0.203 HD
BRANCH   9  16
HETATM   16  N3  UNL     1       2.497 -36.836  78.118  1.00  0.00    -0.234 N
ATOM     17  H32 UNL     1       3.067 -37.647  77.878  1.00  0.00     0.174 HD
ATOM     18  H31 UNL     1       2.860 -36.112  78.737  1.00  0.00     0.174 HD
ENDBRANCH   9  16
BRANCH  12  19
HETATM   19  N5  UNL     1      -1.037 -34.171  76.842  1.00  0.00    -0.225 N
ATOM     20  H5  UNL     1      -0.561 -33.318  77.136  1.00  0.00     0.177 HD
BRANCH  19  21
HETATM   21  C8  UNL     1      -2.326 -34.121  76.244  1.00  0.00     0.138 C
BRANCH  21  22
HETATM   22  C9  UNL     1      -3.458 -33.591  77.040  1.00  0.00     0.022 C
BRANCH  22  23
HETATM   23  C10 UNL     1      -4.130 -34.505  77.978  1.00  0.00     0.022 C
BRANCH  23  24
HETATM   24  C11 UNL     1      -4.354 -34.098  79.383  1.00  0.00     0.128 C
BRANCH  24  25
HETATM   25  N6  UNL     1      -3.412 -34.637  80.340  1.00  0.00    -0.366 N
HETATM   26  C12 UNL     1      -2.596 -35.662  79.924  1.00  0.00     0.090 A
HETATM   27  C13 UNL     1      -1.676 -36.264  80.734  1.00  0.00     0.017 A
HETATM   28  C14 UNL     1      -1.524 -35.856  82.041  1.00  0.00     0.003 A
HETATM   29  C15 UNL     1      -2.333 -34.833  82.465  1.00  0.00     0.017 A
HETATM   30  C16 UNL     1      -3.256 -34.257  81.590  1.00  0.00     0.090 A
ENDBRANCH  24  25
ENDBRANCH  23  24
ENDBRANCH  22  23
ENDBRANCH  21  22
ENDBRANCH  19  21
ENDBRANCH  12  19
ENDBRANCH   5   7
ENDBRANCH   4   5
ENDBRANCH   3   4
TORSDOF 10
ENDMDL