MODEL 3
REMARK VINA RESULT: -8.293395096      3.582      4.899
REMARK  8 active torsions:
REMARK  status: ('A' for Active; 'I' for Inactive)
REMARK    1  A    between atoms: N3_8  and  C4_10
REMARK    2  A    between atoms: C4_10  and  C5_11
REMARK    3  A    between atoms: C5_11  and  N4_12
REMARK    4  A    between atoms: C6_16  and  S1_17
REMARK    5  A    between atoms: S1_17  and  C7_19
REMARK    6  A    between atoms: C7_19  and  C8_20
REMARK    7  A    between atoms: C8_20  and  C9_21
REMARK    8  A    between atoms: C9_21  and  C10_22
ROOT
HETATM    1  C1  UNL     1      -0.214 -34.318  76.038  1.00  0.00     0.071 C
HETATM    2  C2  UNL     1       0.973 -35.093  76.553  1.00  0.00     0.045 A
HETATM    3  N1  UNL     1       2.230 -34.996  76.115  1.00  0.00    -0.302 N
ATOM      4  H1  UNL     1       2.543 -34.374  75.369  1.00  0.00     0.186 HD
HETATM    5  N2  UNL     1       3.007 -35.822  76.786  1.00  0.00    -0.284 N
ATOM      6  H2  UNL     1       4.010 -35.930  76.633  1.00  0.00     0.188 HD
HETATM    7  C3  UNL     1       2.300 -36.502  77.697  1.00  0.00     0.137 A
HETATM    8  N3  UNL     1       2.726 -37.399  78.536  1.00  0.00    -0.372 N
ATOM      9  H3  UNL     1       2.085 -37.852  79.189  1.00  0.00     0.161 HD
HETATM   10  C6  UNL     1       0.977 -36.052  77.572  1.00  0.00     0.100 A
ENDROOT
BRANCH  10  11
HETATM   11  S1  UNL     1      -0.355 -36.564  78.481  1.00  0.00     0.055 S
HETATM   12  O1  UNL     1      -1.043 -37.976  78.238  1.00  0.00    -0.253 OA
BRANCH  11  13
HETATM   13  C7  UNL     1      -1.080 -35.385  79.495  1.00  0.00     0.114 C
BRANCH  13  14
HETATM   14  C8  UNL     1      -2.555 -35.605  79.727  1.00  0.00     0.017 C
BRANCH  14  15
HETATM   15  C9  UNL     1      -3.346 -34.443  79.237  1.00  0.00     0.039 C
BRANCH  15  16
HETATM   16  C10 UNL     1      -3.649 -34.529  77.803  1.00  0.00    -0.052 A
HETATM   17  C11 UNL     1      -3.860 -35.760  77.209  1.00  0.00     0.024 A
HETATM   18  C12 UNL     1      -4.113 -35.807  75.860  1.00  0.00     0.092 A
HETATM   19  N5  UNL     1      -4.157 -34.692  75.130  1.00  0.00    -0.334 N
HETATM   20  C13 UNL     1      -3.952 -33.468  75.685  1.00  0.00     0.245 A
ATOM     21  H5  UNL     1      -4.348 -34.758  74.131  1.00  0.00     0.168 HD
HETATM   22  O2  UNL     1      -4.005 -32.454  74.950  1.00  0.00    -0.268 OA
HETATM   23  C14 UNL     1      -3.702 -33.409  77.015  1.00  0.00     0.081 A
ENDBRANCH  15  16
ENDBRANCH  14  15
ENDBRANCH  13  14
ENDBRANCH  11  13
ENDBRANCH  10  11
BRANCH   8  24
HETATM   24  C4  UNL     1       4.121 -37.734  78.520  1.00  0.00     0.148 C
BRANCH  24  25
HETATM   25  C5  UNL     1       4.631 -37.684  79.947  1.00  0.00     0.249 C
BRANCH  25  26
HETATM   26  N4  UNL     1       5.367 -36.456  80.150  1.00  0.00    -0.078 N
ATOM     27  H43 UNL     1       6.117 -36.563  80.833  1.00  0.00     0.274 HD
ATOM     28  H42 UNL     1       5.941 -36.212  79.342  1.00  0.00     0.274 HD
ATOM     29  H41 UNL     1       4.718 -35.711  80.401  1.00  0.00     0.274 HD
ENDBRANCH  25  26
ENDBRANCH  24  25
ENDBRANCH   8  24
TORSDOF 8
ENDMDL