MODEL 1
REMARK VINA RESULT: -8.343785081      0.000      0.000
REMARK  8 active torsions:
REMARK  status: ('A' for Active; 'I' for Inactive)
REMARK       I    between atoms: C1_2  and  N6_19
REMARK    1  A    between atoms: N2_3  and  C2_5
REMARK    2  A    between atoms: C2_5  and  C3_6
REMARK    3  A    between atoms: C3_6  and  C4_7
REMARK    4  A    between atoms: C4_7  and  N3_8
REMARK    5  A    between atoms: N3_8  and  C5_10
REMARK    6  A    between atoms: N6_19  and  C9_21
REMARK    7  A    between atoms: C9_21  and  C10_22
REMARK    8  A    between atoms: C10_22  and  C11_23
ROOT
HETATM    1  N1  UNL     1      -4.683 -37.247  75.500  1.00  0.00    -0.064 NA
HETATM    2  C1  UNL     1      -4.337 -36.755  76.776  1.00  0.00     0.187 C
HETATM    3  N2  UNL     1      -4.003 -37.618  77.690  1.00  0.00    -0.364 N
ATOM      4  H2  UNL     1      -3.749 -37.283  78.620  1.00  0.00     0.162 HD
HETATM    5  N6  UNL     1      -4.364 -35.402  77.150  1.00  0.00    -0.344 N
ATOM      6  H6  UNL     1      -5.095 -34.822  76.739  1.00  0.00     0.167 HD
ENDROOT
BRANCH   3   7
HETATM    7  C2  UNL     1      -3.983 -39.009  77.430  1.00  0.00     0.127 C
BRANCH   7   8
HETATM    8  C3  UNL     1      -2.596 -39.626  77.643  1.00  0.00     0.065 C
BRANCH   8   9
HETATM    9  C4  UNL     1      -1.767 -39.267  76.444  1.00  0.00     0.080 C
BRANCH   9  10
HETATM   10  N3  UNL     1      -0.518 -38.695  76.717  1.00  0.00    -0.205 N
ATOM     11  H3  UNL     1       0.234 -39.383  76.747  1.00  0.00     0.183 HD
BRANCH  10  12
HETATM   12  C5  UNL     1      -0.116 -37.526  76.932  1.00  0.00     0.684 A
HETATM   13  N4  UNL     1      -0.401 -36.762  77.984  1.00  0.00    -0.201 N
HETATM   14  C6  UNL     1       0.108 -35.497  78.095  1.00  0.00     0.111 A
ATOM     15  H4  UNL     1      -1.008 -37.125  78.720  1.00  0.00     0.183 HD
HETATM   16  C7  UNL     1       0.924 -34.979  77.130  1.00  0.00     0.092 A
HETATM   17  C8  UNL     1       1.211 -35.773  76.047  1.00  0.00     0.260 A
HETATM   18  O1  UNL     1       1.974 -35.313  75.127  1.00  0.00    -0.268 OA
HETATM   19  N5  UNL     1       0.697 -37.004  75.972  1.00  0.00    -0.156 N
ATOM     20  H5  UNL     1       0.922 -37.579  75.159  1.00  0.00     0.187 HD
ENDBRANCH  10  12
ENDBRANCH   9  10
ENDBRANCH   8   9
ENDBRANCH   7   8
ENDBRANCH   3   7
BRANCH   5  21
HETATM   21  C9  UNL     1      -3.473 -34.772  78.042  1.00  0.00     0.068 C
BRANCH  21  22
HETATM   22  C10 UNL     1      -4.079 -34.148  79.232  1.00  0.00     0.083 C
BRANCH  22  23
HETATM   23  C11 UNL     1      -3.562 -34.471  80.538  1.00  0.00    -0.053 A
HETATM   24  C12 UNL     1      -4.121 -33.961  81.713  1.00  0.00     0.007 A
HETATM   25  C13 UNL     1      -3.530 -34.280  82.918  1.00  0.00     0.001 A
HETATM   26  C14 UNL     1      -2.413 -35.079  83.014  1.00  0.00     0.000 A
HETATM   27  C15 UNL     1      -1.860 -35.584  81.848  1.00  0.00     0.001 A
HETATM   28  C16 UNL     1      -2.432 -35.277  80.658  1.00  0.00     0.007 A
ENDBRANCH  22  23
ENDBRANCH  21  22
ENDBRANCH   5  21
TORSDOF 8
ENDMDL