MODEL 4
REMARK VINA RESULT: -7.241244132      1.426      2.788
REMARK  10 active torsions:
REMARK  status: ('A' for Active; 'I' for Inactive)
REMARK    1  A    between atoms: C1_4  and  C2_5
REMARK    2  A    between atoms: C1_4  and  N3_12
REMARK    3  A    between atoms: C2_5  and  C3_6
REMARK    4  A    between atoms: C3_6  and  C4_7
REMARK    5  A    between atoms: C4_7  and  N2_8
REMARK    6  A    between atoms: N3_12  and  C5_14
REMARK    7  A    between atoms: C5_14  and  C6_15
REMARK    8  A    between atoms: C9_18  and  C10_19
REMARK    9  A    between atoms: C10_19  and  C11_20
REMARK   10  A    between atoms: N4_21  and  N5_23
ROOT
HETATM    1  C6  UNL     1      -1.409 -34.896  77.764  1.00  0.00     0.001 A
HETATM    2  C7  UNL     1      -1.605 -34.159  76.626  1.00  0.00     0.017 A
HETATM    3  C8  UNL     1      -2.809 -33.611  76.446  1.00  0.00     0.016 A
HETATM    4  C9  UNL     1      -3.755 -33.826  77.411  1.00  0.00    -0.012 A
HETATM    5  S1  UNL     1      -2.920 -34.794  78.544  1.00  0.00    -0.097 SA
ENDROOT
BRANCH   1   6
HETATM    6  C5  UNL     1      -0.179 -35.606  78.214  1.00  0.00     0.167 C
BRANCH   6   7
HETATM    7  N3  UNL     1      -0.435 -37.022  78.167  1.00  0.00    -0.375 N
ATOM      8  H3  UNL     1      -0.650 -37.544  79.016  1.00  0.00     0.161 HD
BRANCH   7   9
HETATM    9  C1  UNL     1      -0.380 -37.677  76.893  1.00  0.00     0.070 C
HETATM   10  N1  UNL     1       0.464 -37.301  76.017  1.00  0.00    -0.389 N
ATOM     11  H12 UNL     1       0.504 -37.768  75.110  1.00  0.00     0.157 HD
ATOM     12  H11 UNL     1       1.129 -36.549  76.192  1.00  0.00     0.157 HD
BRANCH   9  13
HETATM   13  C2  UNL     1      -1.336 -38.758  76.641  1.00  0.00     0.077 C
BRANCH  13  14
HETATM   14  C3  UNL     1      -2.745 -38.308  76.647  1.00  0.00     0.034 C
BRANCH  14  15
HETATM   15  C4  UNL     1      -3.716 -39.152  77.395  1.00  0.00     0.230 C
BRANCH  15  16
HETATM   16  N2  UNL     1      -3.605 -40.558  77.017  1.00  0.00    -0.079 N
ATOM     17  H23 UNL     1      -3.167 -41.109  77.755  1.00  0.00     0.274 HD
ATOM     18  H22 UNL     1      -4.517 -41.013  77.001  1.00  0.00     0.274 HD
ATOM     19  H21 UNL     1      -3.116 -40.668  76.129  1.00  0.00     0.274 HD
ENDBRANCH  15  16
ENDBRANCH  14  15
ENDBRANCH  13  14
ENDBRANCH   9  13
ENDBRANCH   7   9
ENDBRANCH   6   7
ENDBRANCH   1   6
BRANCH   4  20
HETATM   20  C10 UNL     1      -5.177 -33.321  77.445  1.00  0.00     0.092 C
BRANCH  20  21
HETATM   21  C11 UNL     1      -5.512 -33.164  78.891  1.00  0.00     0.085 C
HETATM   22  N4  UNL     1      -6.674 -32.790  79.277  1.00  0.00    -0.310 N
ATOM     23  H4  UNL     1      -7.408 -32.589  78.597  1.00  0.00     0.186 HD
BRANCH  22  24
HETATM   24  N5  UNL     1      -6.918 -32.663  80.646  1.00  0.00    -0.279 N
HETATM   25  C12 UNL     1      -7.466 -31.539  81.139  1.00  0.00     0.115 A
HETATM   26  C13 UNL     1      -7.740 -31.326  82.465  1.00  0.00     0.019 A
HETATM   27  C14 UNL     1      -7.428 -32.344  83.344  1.00  0.00     0.003 A
HETATM   28  C15 UNL     1      -6.863 -33.505  82.835  1.00  0.00     0.019 A
HETATM   29  C16 UNL     1      -6.601 -33.682  81.494  1.00  0.00     0.115 A
ENDBRANCH  22  24
ENDBRANCH  20  21
ENDBRANCH   4  20
TORSDOF 10
ENDMDL