MODEL 2
REMARK VINA RESULT: -8.264663159      1.741      2.643
REMARK  7 active torsions:
REMARK  status: ('A' for Active; 'I' for Inactive)
REMARK    1  A    between atoms: C1_4  and  C2_6
REMARK    2  A    between atoms: C5_9  and  O1_10
REMARK    3  A    between atoms: O1_10  and  C6_11
REMARK    4  A    between atoms: C6_11  and  C7_12
REMARK    5  A    between atoms: C7_12  and  C8_13
REMARK    6  A    between atoms: C8_13  and  C9_14
REMARK    7  A    between atoms: C9_14  and  N3_15
REMARK       I    between atoms: N4_19  and  C13_20
ROOT
HETATM    1  C7  UNL     1      -1.661 -34.949  82.630  1.00  0.00     0.028 C
ENDROOT
BRANCH   1   2
HETATM    2  C6  UNL     1      -1.745 -35.959  81.523  1.00  0.00     0.175 C
BRANCH   2   3
HETATM    3  O1  UNL     1      -1.262 -35.487  80.330  1.00  0.00    -0.351 OA
BRANCH   3   4
HETATM    4  C5  UNL     1      -1.985 -34.935  79.321  1.00  0.00     0.068 A
HETATM    5  C4  UNL     1      -3.302 -34.604  79.447  1.00  0.00     0.037 A
HETATM    6  C3  UNL     1      -3.988 -34.035  78.376  1.00  0.00     0.017 A
HETATM    7  C2  UNL     1      -3.335 -33.805  77.179  1.00  0.00     0.005 A
HETATM    8  C16 UNL     1      -2.005 -34.150  77.080  1.00  0.00     0.017 A
HETATM    9  C15 UNL     1      -1.314 -34.707  78.115  1.00  0.00     0.037 A
BRANCH   7  10
HETATM   10  C1  UNL     1      -4.101 -33.211  76.102  1.00  0.00     0.120 C
HETATM   11  N1  UNL     1      -3.518 -32.593  75.152  1.00  0.00    -0.387 N
ATOM     12  H12 UNL     1      -4.058 -32.175  74.394  1.00  0.00     0.157 HD
ATOM     13  H11 UNL     1      -2.501 -32.520  75.159  1.00  0.00     0.157 HD
HETATM   14  N2  UNL     1      -5.507 -33.311  76.094  1.00  0.00    -0.082 NA
ENDBRANCH   7  10
ENDBRANCH   3   4
ENDBRANCH   2   3
ENDBRANCH   1   2
BRANCH   1  15
HETATM   15  C8  UNL     1      -3.046 -34.556  83.063  1.00  0.00     0.022 C
BRANCH  15  16
HETATM   16  C9  UNL     1      -3.309 -33.128  82.748  1.00  0.00     0.129 C
BRANCH  16  17
HETATM   17  N3  UNL     1      -4.714 -32.788  83.080  1.00  0.00    -0.352 N
HETATM   18  C10 UNL     1      -5.222 -33.208  84.244  1.00  0.00     0.093 A
HETATM   19  C11 UNL     1      -6.531 -32.897  84.564  1.00  0.00     0.035 A
HETATM   20  C12 UNL     1      -7.290 -32.154  83.669  1.00  0.00     0.102 A
HETATM   21  N4  UNL     1      -6.754 -31.746  82.509  1.00  0.00    -0.293 N
HETATM   22  C13 UNL     1      -7.536 -30.985  81.597  1.00  0.00     0.193 C
HETATM   23  C14 UNL     1      -5.478 -32.077  82.250  1.00  0.00     0.192 A
HETATM   24  N5  UNL     1      -8.459 -30.218  82.012  1.00  0.00    -0.373 N
HETATM   25  N6  UNL     1      -7.305 -31.065  80.198  1.00  0.00    -0.063 NA
ATOM     26  H52 UNL     1      -8.624 -30.160  83.017  1.00  0.00     0.158 HD
ATOM     27  H51 UNL     1      -9.020 -29.672  81.357  1.00  0.00     0.158 HD
ENDBRANCH  16  17
ENDBRANCH  15  16
ENDBRANCH   1  15
TORSDOF 7
ENDMDL