MODEL 1
REMARK VINA RESULT: -7.894101102      0.000      0.000
REMARK  10 active torsions:
REMARK  status: ('A' for Active; 'I' for Inactive)
REMARK    1  A    between atoms: N1_1  and  C1_5
REMARK    2  A    between atoms: C1_5  and  C2_6
REMARK    3  A    between atoms: C2_6  and  N2_7
REMARK    4  A    between atoms: N2_7  and  C3_9
REMARK    5  A    between atoms: C6_14  and  N4_15
REMARK    6  A    between atoms: N4_15  and  C7_17
REMARK    7  A    between atoms: C7_17  and  C8_18
REMARK       I    between atoms: C8_18  and  N5_20
REMARK    8  A    between atoms: N5_20  and  C9_22
REMARK    9  A    between atoms: C9_22  and  C10_23
REMARK   10  A    between atoms: C10_23  and  C11_24
ROOT
HETATM    1  C3  UNL     1      -1.916 -37.322  77.606  1.00  0.00     0.679 A
HETATM    2  N3  UNL     1      -2.709 -38.371  77.835  1.00  0.00    -0.202 N
ATOM      3  H3  UNL     1      -2.374 -39.120  78.442  1.00  0.00     0.183 HD
HETATM    4  C4  UNL     1      -3.946 -38.476  77.284  1.00  0.00     0.110 A
HETATM    5  C5  UNL     1      -4.356 -37.443  76.471  1.00  0.00     0.066 A
HETATM    6  C6  UNL     1      -3.561 -36.347  76.216  1.00  0.00     0.118 A
HETATM    7  N6  UNL     1      -2.345 -36.308  76.795  1.00  0.00    -0.177 N
ATOM      8  H6  UNL     1      -1.734 -35.508  76.625  1.00  0.00     0.185 HD
ENDROOT
BRANCH   6   9
HETATM    9  N4  UNL     1      -3.973 -35.400  75.453  1.00  0.00    -0.367 N
ATOM     10  H4  UNL     1      -4.366 -35.640  74.543  1.00  0.00     0.161 HD
BRANCH   9  11
HETATM   11  C7  UNL     1      -3.902 -34.017  75.832  1.00  0.00     0.224 C
BRANCH  11  12
HETATM   12  C8  UNL     1      -4.926 -33.653  76.844  1.00  0.00     0.235 C
HETATM   13  O1  UNL     1      -6.123 -33.454  76.523  1.00  0.00    -0.272 OA
HETATM   14  N5  UNL     1      -4.560 -33.523  78.205  1.00  0.00    -0.359 N
ATOM     15  H5  UNL     1      -3.590 -33.683  78.476  1.00  0.00     0.162 HD
BRANCH  14  16
HETATM   16  C9  UNL     1      -5.526 -33.169  79.223  1.00  0.00     0.127 C
BRANCH  16  17
HETATM   17  C10 UNL     1      -5.459 -34.113  80.382  1.00  0.00     0.058 C
BRANCH  17  18
HETATM   18  C11 UNL     1      -4.696 -33.469  81.464  1.00  0.00    -0.057 A
HETATM   19  C12 UNL     1      -3.474 -33.991  81.825  1.00  0.00     0.007 A
HETATM   20  C13 UNL     1      -2.700 -33.455  82.818  1.00  0.00     0.001 A
HETATM   21  C14 UNL     1      -3.144 -32.346  83.498  1.00  0.00     0.000 A
HETATM   22  C15 UNL     1      -4.381 -31.790  83.157  1.00  0.00     0.001 A
HETATM   23  C16 UNL     1      -5.146 -32.360  82.140  1.00  0.00     0.007 A
ENDBRANCH  17  18
ENDBRANCH  16  17
ENDBRANCH  14  16
ENDBRANCH  11  12
ENDBRANCH   9  11
ENDBRANCH   6   9
BRANCH   1  24
HETATM   24  N2  UNL     1      -0.755 -37.202  78.111  1.00  0.00    -0.224 N
ATOM     25  H2  UNL     1      -0.333 -38.033  78.526  1.00  0.00     0.177 HD
BRANCH  24  26
HETATM   26  C2  UNL     1      -0.007 -36.008  78.140  1.00  0.00     0.165 C
BRANCH  26  27
HETATM   27  C1  UNL     1       1.318 -36.120  77.377  1.00  0.00     0.249 C
BRANCH  27  28
HETATM   28  N1  UNL     1       2.258 -36.932  78.084  1.00  0.00    -0.078 N
ATOM     29  H13 UNL     1       2.564 -36.484  78.948  1.00  0.00     0.274 HD
ATOM     30  H12 UNL     1       1.812 -37.757  78.485  1.00  0.00     0.274 HD
ATOM     31  H11 UNL     1       3.049 -37.185  77.493  1.00  0.00     0.274 HD
ENDBRANCH  27  28
ENDBRANCH  26  27
ENDBRANCH  24  26
ENDBRANCH   1  24
TORSDOF 10
ENDMDL