MODEL 3
REMARK VINA RESULT: -8.115297556      1.847      2.666
REMARK  3 active torsions:
REMARK  status: ('A' for Active; 'I' for Inactive)
REMARK    1  A    between atoms: C4_4  and  C5_5
REMARK    2  A    between atoms: C5_5  and  C7_7
REMARK    3  A    between atoms: C7_7  and  N1_8
ROOT
HETATM    1  C1  UNL     1      -6.574 -31.733 -15.711  1.00  0.00     0.027 C
HETATM    2  C2  UNL     1      -6.640 -30.591 -15.322  1.00  0.00    -0.026 C
HETATM    3  C3  UNL     1      -6.722 -29.253 -14.840  1.00  0.00    -0.011 C
HETATM    4  C4  UNL     1      -6.810 -28.118 -14.427  1.00  0.00    -0.056 C
ENDROOT
BRANCH   4   5
HETATM    5  C5  UNL     1      -6.938 -26.773 -13.940  1.00  0.00     0.005 C
HETATM    6  C6  UNL     1      -6.276 -26.325 -12.894  1.00  0.00     0.030 C
BRANCH   5   7
HETATM    7  C7  UNL     1      -7.861 -25.869 -14.663  1.00  0.00     0.174 C
BRANCH   7   8
HETATM    8  N1  UNL     1      -9.114 -26.515 -14.995  1.00  0.00    -0.359 N
HETATM    9  C8  UNL     1      -9.692 -26.370 -16.207  1.00  0.00     0.092 A
HETATM   10  C9  UNL     1     -10.879 -27.014 -16.448  1.00  0.00     0.031 A
HETATM   11  C10 UNL     1     -11.482 -27.790 -15.502  1.00  0.00     0.001 A
HETATM   12  C11 UNL     1     -12.645 -28.521 -15.500  1.00  0.00    -0.027 A
HETATM   13  C15 UNL     1     -10.881 -27.937 -14.252  1.00  0.00     0.059 A
HETATM   14  C12 UNL     1     -13.595 -28.639 -16.641  1.00  0.00     0.051 C
HETATM   15  C13 UNL     1     -12.746 -29.103 -14.266  1.00  0.00     0.012 A
HETATM   16  C14 UNL     1     -13.830 -29.989 -13.777  1.00  0.00     0.068 C
HETATM   17  N2  UNL     1     -11.673 -28.742 -13.520  1.00  0.00    -0.358 N
ATOM     18  H2  UNL     1     -11.495 -29.034 -12.560  1.00  0.00     0.166 HD
HETATM   19  C16 UNL     1      -9.696 -27.277 -14.054  1.00  0.00     0.121 A
ENDBRANCH   7   8
ENDBRANCH   5   7
ENDBRANCH   4   5
TORSDOF 3
ENDMDL