MODEL 3
REMARK VINA RESULT: -7.655913693      1.942      7.957
REMARK  4 active torsions:
REMARK  status: ('A' for Active; 'I' for Inactive)
REMARK    1  A    between atoms: C3_3  and  C4_4
REMARK    2  A    between atoms: C4_4  and  C5_5
REMARK    3  A    between atoms: C6_6  and  C7_7
REMARK    4  A    between atoms: N1_11  and  C11_12
ROOT
HETATM    1  C1  UNL     1      -4.478 -25.713 -13.444  1.00  0.00     0.012 C
HETATM    2  C2  UNL     1      -5.636 -25.363 -13.414  1.00  0.00    -0.117 C
HETATM    3  C3  UNL     1      -7.034 -24.934 -13.391  1.00  0.00     0.105 C
ENDROOT
BRANCH   3   4
HETATM    4  C4  UNL     1      -7.836 -25.774 -12.401  1.00  0.00     0.106 C
BRANCH   4   5
HETATM    5  C5  UNL     1      -8.915 -26.486 -13.071  1.00  0.00    -0.099 C
HETATM    6  C6  UNL     1      -9.816 -27.076 -13.610  1.00  0.00    -0.049 C
BRANCH   6   7
HETATM    7  C7  UNL     1     -10.913 -27.791 -14.242  1.00  0.00     0.088 A
HETATM    8  C8  UNL     1     -11.720 -27.320 -15.249  1.00  0.00     0.054 A
HETATM    9  C9  UNL     1     -12.617 -28.314 -15.543  1.00  0.00     0.009 A
HETATM   10  C10 UNL     1     -13.669 -28.445 -16.450  1.00  0.00     0.104 A
HETATM   11  C17 UNL     1     -12.322 -29.361 -14.700  1.00  0.00     0.052 A
HETATM   12  N1  UNL     1     -14.409 -29.563 -16.532  1.00  0.00    -0.361 N
HETATM   13  C14 UNL     1     -14.104 -30.578 -15.696  1.00  0.00     0.100 A
HETATM   14  C15 UNL     1     -13.075 -30.505 -14.780  1.00  0.00    -0.019 A
HETATM   15  C16 UNL     1     -12.763 -31.638 -13.874  1.00  0.00     0.052 C
HETATM   16  N2  UNL     1     -11.285 -29.032 -13.913  1.00  0.00    -0.348 N
ATOM     17  H2  UNL     1     -10.859 -29.620 -13.197  1.00  0.00     0.167 HD
BRANCH  12  18
HETATM   18  C11 UNL     1     -15.500 -29.665 -17.489  1.00  0.00     0.080 C
HETATM   19  C12 UNL     1     -15.872 -28.292 -17.955  1.00  0.00     0.032 C
HETATM   20  C13 UNL     1     -15.153 -30.534 -18.660  1.00  0.00     0.032 C
ENDBRANCH  12  18
ENDBRANCH   6   7
ENDBRANCH   4   5
ENDBRANCH   3   4
TORSDOF 4
ENDMDL