MODEL 5
REMARK VINA RESULT: -6.693784085      1.541      3.224
REMARK  3 active torsions:
REMARK  status: ('A' for Active; 'I' for Inactive)
REMARK    1  A    between atoms: C4_7  and  C5_8
REMARK    2  A    between atoms: C5_8  and  C6_9
REMARK    3  A    between atoms: C12_15  and  N2_16
ROOT
HETATM    1  C1  UNL     1      -6.820 -30.040 -15.300  1.00  0.00     0.048 C
HETATM    2  C2  UNL     1      -7.234 -28.824 -14.450  1.00  0.00     0.149 C
HETATM    3  C3  UNL     1      -6.058 -28.264 -13.782  1.00  0.00     0.048 C
HETATM    4  N1  UNL     1      -8.236 -29.291 -13.463  1.00  0.00    -0.059 N
ATOM      5  H11 UNL     1      -8.268 -28.912 -12.516  1.00  0.00     0.278 HD
ATOM      6  H12 UNL     1      -8.187 -30.224 -13.053  1.00  0.00     0.278 HD
HETATM    7  C4  UNL     1      -9.224 -28.952 -14.436  1.00  0.00     0.220 C
HETATM    8  C12 UNL     1      -8.270 -28.010 -15.084  1.00  0.00     0.254 C
ENDROOT
BRANCH   7   9
HETATM    9  C5  UNL     1     -10.521 -28.517 -13.984  1.00  0.00     0.040 C
BRANCH   9  10
HETATM   10  C6  UNL     1     -11.714 -28.961 -14.774  1.00  0.00    -0.009 C
HETATM   11  C7  UNL     1     -12.428 -27.687 -15.329  1.00  0.00     0.031 C
HETATM   12  C8  UNL     1     -13.335 -28.201 -16.392  1.00  0.00    -0.030 C
HETATM   13  C9  UNL     1     -13.918 -29.394 -16.277  1.00  0.00    -0.031 C
HETATM   14  C10 UNL     1     -13.720 -30.278 -15.121  1.00  0.00     0.027 C
HETATM   15  C11 UNL     1     -12.803 -29.665 -14.050  1.00  0.00     0.009 C
ENDBRANCH   9  10
ENDBRANCH   7   9
BRANCH   8  16
HETATM   16  N2  UNL     1      -8.331 -26.619 -14.913  1.00  0.00    -0.070 N
HETATM   17  C13 UNL     1      -9.322 -26.085 -15.867  1.00  0.00     0.272 C
HETATM   18  C14 UNL     1      -8.590 -26.053 -13.651  1.00  0.00     0.272 C
HETATM   19  C15 UNL     1      -7.041 -26.086 -15.396  1.00  0.00     0.272 C
ENDBRANCH   8  16
TORSDOF 3
ENDMDL