MODEL 3
REMARK VINA RESULT: -8.175552340      0.843      1.755
REMARK  3 active torsions:
REMARK  status: ('A' for Active; 'I' for Inactive)
REMARK    1  A    between atoms: C3_5  and  C4_6
REMARK    2  A    between atoms: C4_6  and  C5_7
REMARK    3  A    between atoms: C15_17  and  C16_18
ROOT
HETATM    1  C4  UNL     1     -10.741 -26.804 -13.557  1.00  0.00     0.062 C
ENDROOT
BRANCH   1   2
HETATM    2  C3  UNL     1     -11.657 -27.711 -14.293  1.00  0.00     0.011 A
HETATM    3  N1  UNL     1     -12.388 -27.416 -15.375  1.00  0.00    -0.360 N
HETATM    4  C2  UNL     1     -13.100 -28.481 -15.773  1.00  0.00     0.033 A
ATOM      5  H1  UNL     1     -12.402 -26.506 -15.834  1.00  0.00     0.166 HD
HETATM    6  C1  UNL     1     -13.921 -28.532 -16.802  1.00  0.00     0.044 C
HETATM    7  C15 UNL     1     -12.812 -29.511 -14.905  1.00  0.00    -0.013 A
HETATM    8  C14 UNL     1     -11.895 -29.027 -13.963  1.00  0.00     0.038 A
BRANCH   7   9
HETATM    9  C16 UNL     1     -13.325 -30.728 -14.974  1.00  0.00    -0.017 C
HETATM   10  C17 UNL     1     -12.571 -31.830 -14.319  1.00  0.00     0.037 C
ENDBRANCH   7   9
ENDBRANCH   1   2
BRANCH   1  11
HETATM   11  C5  UNL     1      -9.355 -27.243 -13.836  1.00  0.00    -0.004 C
HETATM   12  C6  UNL     1      -8.755 -26.754 -15.106  1.00  0.00     0.010 C
HETATM   13  C7  UNL     1      -7.264 -26.909 -14.879  1.00  0.00    -0.014 C
HETATM   14  C8  UNL     1      -6.678 -25.524 -14.796  1.00  0.00     0.005 C
HETATM   15  C13 UNL     1      -7.101 -27.490 -13.465  1.00  0.00     0.010 C
HETATM   16  C9  UNL     1      -7.051 -24.761 -13.587  1.00  0.00     0.005 C
HETATM   17  C10 UNL     1      -8.146 -25.330 -12.751  1.00  0.00    -0.014 C
HETATM   18  C11 UNL     1      -7.949 -24.934 -11.281  1.00  0.00     0.010 C
HETATM   19  C12 UNL     1      -8.319 -26.797 -12.818  1.00  0.00    -0.006 C
ENDBRANCH   1  11
TORSDOF 3
ENDMDL