MODEL 5
REMARK VINA RESULT: -7.551441357      3.392      4.860
REMARK  2 active torsions:
REMARK  status: ('A' for Active; 'I' for Inactive)
REMARK    1  A    between atoms: C2_2  and  C3_3
REMARK    2  A    between atoms: N2_8  and  C6_9
ROOT
HETATM    1  C3  UNL     1      -7.929 -30.609 -14.908  1.00  0.00    -0.011 A
HETATM    2  C4  UNL     1      -6.781 -30.884 -15.614  1.00  0.00     0.030 A
HETATM    3  C5  UNL     1      -6.552 -32.095 -16.447  1.00  0.00     0.070 C
HETATM    4  N1  UNL     1      -5.928 -29.868 -15.406  1.00  0.00    -0.298 N
ATOM      5  H1  UNL     1      -4.991 -29.796 -15.803  1.00  0.00     0.187 HD
HETATM    6  N2  UNL     1      -6.482 -28.982 -14.615  1.00  0.00    -0.260 N
HETATM    7  C15 UNL     1      -7.709 -29.401 -14.289  1.00  0.00     0.039 A
HETATM    8  C16 UNL     1      -8.736 -28.758 -13.420  1.00  0.00     0.071 C
ENDROOT
BRANCH   6   9
HETATM    9  C6  UNL     1      -5.915 -27.771 -14.155  1.00  0.00     0.063 A
HETATM   10  C7  UNL     1      -4.745 -27.819 -13.427  1.00  0.00     0.039 A
HETATM   11  C8  UNL     1      -4.171 -26.669 -12.966  1.00  0.00    -0.059 A
HETATM   12  C9  UNL     1      -2.901 -26.721 -12.176  1.00  0.00     0.048 C
HETATM   13  C10 UNL     1      -4.769 -25.437 -13.232  1.00  0.00     0.014 A
HETATM   14  C11 UNL     1      -5.940 -25.424 -13.965  1.00  0.00    -0.053 A
HETATM   15  C12 UNL     1      -6.603 -24.113 -14.265  1.00  0.00     0.049 C
HETATM   16  C13 UNL     1      -6.537 -26.576 -14.440  1.00  0.00    -0.027 A
HETATM   17  C14 UNL     1      -7.810 -26.515 -15.233  1.00  0.00     0.051 C
ENDBRANCH   6   9
BRANCH   1  18
HETATM   18  C2  UNL     1      -9.163 -31.449 -14.827  1.00  0.00     0.038 C
HETATM   19  C1  UNL     1      -9.098 -32.469 -13.735  1.00  0.00     0.010 C
ENDBRANCH   1  18
TORSDOF 2
ENDMDL