MODEL 5
REMARK VINA RESULT: -5.973819278      1.294      2.803
REMARK  3 active torsions:
REMARK  status: ('A' for Active; 'I' for Inactive)
REMARK    1  A    between atoms: N1_10  and  C11_12
REMARK    2  A    between atoms: C11_12  and  C12_13
REMARK    3  A    between atoms: C12_13  and  N2_14
ROOT
HETATM    1  C1  UNL     1     -10.742 -28.631 -16.030  1.00  0.00     0.011 C
HETATM    2  C2  UNL     1      -9.460 -28.205 -15.316  1.00  0.00    -0.001 C
HETATM    3  C3  UNL     1      -9.649 -28.460 -13.846  1.00  0.00     0.021 C
HETATM    4  C4  UNL     1     -10.843 -27.508 -13.617  1.00  0.00     0.015 C
HETATM    5  C5  UNL     1     -10.120 -26.296 -14.124  1.00  0.00     0.003 C
HETATM    6  C6  UNL     1      -8.961 -26.245 -13.102  1.00  0.00     0.021 C
HETATM    7  C7  UNL     1      -8.062 -25.377 -13.910  1.00  0.00     0.016 C
HETATM    8  C8  UNL     1      -7.924 -26.192 -15.160  1.00  0.00     0.022 C
HETATM    9  C9  UNL     1      -6.808 -27.125 -15.223  1.00  0.00     0.248 C
HETATM   10  N1  UNL     1      -6.330 -27.782 -14.044  1.00  0.00    -0.049 N
HETATM   11  C10 UNL     1      -5.747 -29.032 -14.593  1.00  0.00     0.278 C
HETATM   12  C13 UNL     1      -7.268 -28.157 -13.061  1.00  0.00     0.205 C
HETATM   13  C14 UNL     1      -8.632 -27.671 -12.998  1.00  0.00    -0.047 C
HETATM   14  C15 UNL     1      -9.307 -26.735 -15.352  1.00  0.00    -0.031 C
HETATM   15  C16 UNL     1     -10.032 -26.109 -16.546  1.00  0.00     0.016 C
ENDROOT
BRANCH  10  16
HETATM   16  C11 UNL     1      -5.278 -26.979 -13.446  1.00  0.00     0.269 C
BRANCH  16  17
HETATM   17  C12 UNL     1      -4.019 -27.645 -13.067  1.00  0.00     0.257 C
BRANCH  17  18
HETATM   18  N2  UNL     1      -2.798 -26.953 -13.439  1.00  0.00    -0.078 N
ATOM     19  H23 UNL     1      -2.051 -27.629 -13.595  1.00  0.00     0.274 HD
ATOM     20  H22 UNL     1      -2.893 -26.563 -14.377  1.00  0.00     0.274 HD
ATOM     21  H21 UNL     1      -2.481 -26.230 -12.793  1.00  0.00     0.274 HD
ENDBRANCH  17  18
ENDBRANCH  16  17
ENDBRANCH  10  16
TORSDOF 3
ENDMDL