MODEL 4
REMARK VINA RESULT: -6.216389600      2.431      4.734
REMARK  5 active torsions:
REMARK  status: ('A' for Active; 'I' for Inactive)
REMARK    1  A    between atoms: C2_2  and  C3_3
REMARK    2  A    between atoms: C4_4  and  C5_5
REMARK    3  A    between atoms: C6_6  and  C7_7
REMARK    4  A    between atoms: C13_13  and  C14_14
REMARK    5  A    between atoms: C14_14  and  S1_15
ROOT
HETATM    1  C7  UNL     1      -7.702 -27.837 -13.709  1.00  0.00     0.026 A
HETATM    2  C8  UNL     1      -6.323 -27.672 -13.604  1.00  0.00     0.028 A
HETATM    3  C9  UNL     1      -5.739 -26.447 -13.385  1.00  0.00    -0.061 A
HETATM    4  C10 UNL     1      -4.274 -26.358 -13.287  1.00  0.00     0.048 C
HETATM    5  C11 UNL     1      -6.589 -25.360 -13.268  1.00  0.00     0.007 A
HETATM    6  C12 UNL     1      -7.954 -25.482 -13.366  1.00  0.00     0.010 A
HETATM    7  C13 UNL     1      -8.532 -26.711 -13.586  1.00  0.00    -0.031 A
ENDROOT
BRANCH   1   8
HETATM    8  C6  UNL     1      -8.253 -29.142 -13.938  1.00  0.00    -0.052 C
HETATM    9  C5  UNL     1      -8.714 -30.243 -14.112  1.00  0.00    -0.009 C
BRANCH   9  10
HETATM   10  C4  UNL     1      -9.254 -31.549 -14.293  1.00  0.00    -0.015 C
HETATM   11  C3  UNL     1      -9.730 -32.647 -14.444  1.00  0.00    -0.093 C
BRANCH  11  12
HETATM   12  C2  UNL     1     -10.329 -33.968 -14.615  1.00  0.00     0.090 C
HETATM   13  C1  UNL     1     -11.830 -33.925 -14.627  1.00  0.00     0.018 C
ENDBRANCH  11  12
ENDBRANCH   9  10
ENDBRANCH   1   8
BRANCH   7  14
HETATM   14  C14 UNL     1      -9.968 -26.970 -13.709  1.00  0.00     0.102 C
BRANCH  14  15
HETATM   15  S1  UNL     1     -10.527 -27.317 -15.325  1.00  0.00    -0.224 SA
HETATM   16  C15 UNL     1     -12.293 -26.979 -15.365  1.00  0.00     0.078 C
HETATM   17  C16 UNL     1      -9.800 -26.243 -16.542  1.00  0.00     0.078 C
ENDBRANCH  14  15
ENDBRANCH   7  14
TORSDOF 5
ENDMDL