MODEL 1
REMARK VINA RESULT: -6.311618923      0.000      0.000
REMARK  2 active torsions:
REMARK  status: ('A' for Active; 'I' for Inactive)
REMARK    1  A    between atoms: C3_3  and  C4_4
REMARK    2  A    between atoms: C4_4  and  N1_5
ROOT
HETATM    1  C1  UNL     1      -5.989 -30.149 -15.546  1.00  0.00     0.012 C
HETATM    2  C2  UNL     1      -6.933 -29.716 -14.939  1.00  0.00    -0.115 C
HETATM    3  C3  UNL     1      -8.068 -29.233 -14.220  1.00  0.00     0.133 C
ENDROOT
BRANCH   3   4
HETATM    4  C4  UNL     1      -8.307 -27.725 -14.322  1.00  0.00     0.144 C
HETATM    5  C8  UNL     1      -7.197 -27.249 -15.228  1.00  0.00     0.051 C
HETATM    6  C9  UNL     1      -6.289 -26.221 -14.565  1.00  0.00     0.034 C
HETATM    7  C10 UNL     1      -5.544 -27.051 -13.498  1.00  0.00     0.015 C
HETATM    8  C15 UNL     1      -7.047 -25.255 -13.734  1.00  0.00    -0.007 C
HETATM    9  C11 UNL     1      -6.563 -27.524 -12.535  1.00  0.00    -0.005 C
HETATM   10  C12 UNL     1      -6.782 -26.351 -11.561  1.00  0.00     0.020 C
HETATM   11  C16 UNL     1      -8.015 -27.278 -12.920  1.00  0.00     0.041 C
HETATM   12  C13 UNL     1      -7.794 -25.865 -12.633  1.00  0.00     0.001 C
HETATM   13  C14 UNL     1      -8.801 -25.041 -11.914  1.00  0.00     0.022 C
HETATM   14  N2  UNL     1      -7.021 -24.033 -13.982  1.00  0.00    -0.405 N
ATOM     15  H22 UNL     1      -6.501 -23.608 -14.749  1.00  0.00     0.155 HD
ATOM     16  H21 UNL     1      -7.543 -23.369 -13.410  1.00  0.00     0.155 HD
BRANCH   4  17
HETATM   17  N1  UNL     1      -9.607 -27.422 -14.795  1.00  0.00    -0.068 N
HETATM   18  C5  UNL     1     -10.050 -28.616 -15.554  1.00  0.00     0.272 C
HETATM   19  C6  UNL     1      -9.730 -26.340 -15.739  1.00  0.00     0.272 C
HETATM   20  C7  UNL     1     -10.629 -27.178 -13.834  1.00  0.00     0.272 C
ENDBRANCH   4  17
ENDBRANCH   3   4
TORSDOF 2
ENDMDL