MODEL 4
REMARK VINA RESULT: -6.496628419      2.015      3.721
REMARK  8 active torsions:
REMARK  status: ('A' for Active; 'I' for Inactive)
REMARK    1  A    between atoms: N1_2  and  N2_3
REMARK       I    between atoms: N1_2  and  C8_32
REMARK    2  A    between atoms: N3_5  and  C2_7
REMARK    3  A    between atoms: C3_8  and  C4_9
REMARK    4  A    between atoms: C4_9  and  O1_10
REMARK    5  A    between atoms: C4_9  and  O2_12
REMARK    6  A    between atoms: C5_16  and  N5_17
REMARK       I    between atoms: N5_17  and  C6_19
REMARK       I    between atoms: C6_19  and  N6_20
REMARK       I    between atoms: C6_19  and  N7_24
REMARK    7  A    between atoms: C8_32  and  C9_34
REMARK       I    between atoms: C9_34  and  N9_36
REMARK    8  A    between atoms: N9_36  and  N10_38
ROOT
HETATM    1  C2  UNL     1      54.720 -13.625  19.484  1.00  0.00     0.146 A
HETATM    2  C3  UNL     1      55.671 -14.508  19.941  1.00  0.00     0.114 A
HETATM    3  N4  UNL     1      56.192 -14.273  21.168  1.00  0.00    -0.188 N
ATOM      4  H4  UNL     1      56.898 -14.916  21.523  1.00  0.00     0.184 HD
HETATM    5  C5  UNL     1      55.829 -13.238  21.943  1.00  0.00     0.684 A
HETATM    6  N8  UNL     1      54.896 -12.379  21.490  1.00  0.00    -0.154 N
ATOM      7  H8  UNL     1      54.609 -11.588  22.067  1.00  0.00     0.187 HD
HETATM    8  C7  UNL     1      54.346 -12.563  20.281  1.00  0.00     0.290 A
HETATM    9  O3  UNL     1      53.473 -11.725  19.900  1.00  0.00    -0.265 OA
ENDROOT
BRANCH   1  10
HETATM   10  N3  UNL     1      54.129 -13.801  18.215  1.00  0.00    -0.279 N
HETATM   11  N2  UNL     1      54.424 -12.994  17.294  1.00  0.00    -0.237 N
ATOM     12  H2  UNL     1      55.080 -12.239  17.490  1.00  0.00     0.208 HD
ATOM     13  H3  UNL     1      53.476 -14.566  18.048  1.00  0.00     0.189 HD
BRANCH  11  14
HETATM   14  N1  UNL     1      53.877 -13.101  16.001  1.00  0.00    -0.243 N
HETATM   15  C1  UNL     1      54.676 -13.733  14.992  1.00  0.00     0.183 C
HETATM   16  C8  UNL     1      52.606 -12.592  15.778  1.00  0.00     0.332 C
HETATM   17  O4  UNL     1      51.974 -12.054  16.716  1.00  0.00    -0.260 OA
BRANCH  16  18
HETATM   18  C9  UNL     1      51.971 -12.658  14.485  1.00  0.00     0.329 C
HETATM   19  O5  UNL     1      51.793 -11.588  13.851  1.00  0.00    -0.261 OA
HETATM   20  N9  UNL     1      51.541 -13.893  13.903  1.00  0.00    -0.268 N
ATOM     21  H9  UNL     1      51.691 -14.757  14.424  1.00  0.00     0.190 HD
BRANCH  20  22
HETATM   22  N10 UNL     1      50.930 -13.964  12.661  1.00  0.00    -0.342 N
ATOM     23 2H10 UNL     1      50.653 -13.088  12.220  1.00  0.00     0.176 HD
ATOM     24 1H10 UNL     1      50.751 -14.848  12.183  1.00  0.00     0.176 HD
ENDBRANCH  20  22
ENDBRANCH  16  18
ENDBRANCH  11  14
ENDBRANCH   1  10
BRANCH   2  25
HETATM   25  C4  UNL     1      56.110 -15.678  19.112  1.00  0.00     0.308 C
BRANCH  25  26
HETATM   26  O1  UNL     1      56.531 -15.261  17.850  1.00  0.00    -0.366 OA
ATOM     27  H1  UNL     1      56.863 -15.994  17.346  1.00  0.00     0.213 HD
ENDBRANCH  25  26
BRANCH  25  28
HETATM   28  O2  UNL     1      55.086 -16.591  18.931  1.00  0.00    -0.366 OA
ATOM     29  H2  UNL     1      55.188 -17.079  18.122  1.00  0.00     0.213 HD
ENDBRANCH  25  28
ENDBRANCH   2  25
BRANCH   5  30
HETATM   30  N5  UNL     1      56.389 -13.111  23.092  1.00  0.00    -0.173 N
HETATM   31  C6  UNL     1      56.500 -14.181  24.033  1.00  0.00     0.494 C
HETATM   32  N6  UNL     1      57.461 -13.732  25.058  1.00  0.00    -0.032 N
HETATM   33  N7  UNL     1      55.250 -14.495  24.705  1.00  0.00    -0.032 N
ATOM     34  H63 UNL     1      58.357 -13.438  24.671  1.00  0.00     0.278 HD
ATOM     35  H62 UNL     1      57.210 -12.841  25.486  1.00  0.00     0.278 HD
ATOM     36  H61 UNL     1      57.540 -14.495  25.729  1.00  0.00     0.278 HD
ATOM     37  H73 UNL     1      54.860 -13.663  25.149  1.00  0.00     0.278 HD
ATOM     38  H72 UNL     1      54.514 -14.687  24.026  1.00  0.00     0.278 HD
ATOM     39  H71 UNL     1      55.329 -15.258  25.377  1.00  0.00     0.278 HD
ATOM     40  H5  UNL     1      56.774 -12.201  23.345  1.00  0.00     0.181 HD
ENDBRANCH   5  30
TORSDOF 8
ENDMDL