MODEL 5
REMARK VINA RESULT: -6.190646573      3.757      6.173
REMARK  7 active torsions:
REMARK  status: ('A' for Active; 'I' for Inactive)
REMARK    1  A    between atoms: C1_2  and  C2_7
REMARK    2  A    between atoms: N2_3  and  O1_5
REMARK       I    between atoms: C2_7  and  N3_9
REMARK    3  A    between atoms: N3_9  and  N4_11
REMARK    4  A    between atoms: C4_16  and  N6_17
REMARK    5  A    between atoms: C5_23  and  C6_24
REMARK    6  A    between atoms: C7_27  and  N8_28
REMARK    7  A    between atoms: N8_28  and  N9_30
ROOT
HETATM    1  N4  UNL     1      55.027 -13.323  17.413  1.00  0.00    -0.281 N
ATOM      2  H4  UNL     1      55.445 -14.067  16.855  1.00  0.00     0.188 HD
HETATM    3  C3  UNL     1      54.004 -12.688  16.930  1.00  0.00     0.149 C
HETATM    4  N5  UNL     1      53.450 -11.655  17.742  1.00  0.00    -0.330 N
ATOM      5  H5  UNL     1      53.993 -11.262  18.510  1.00  0.00     0.165 HD
HETATM    6  C4  UNL     1      52.100 -11.161  17.469  1.00  0.00     0.388 C
HETATM    7  N7  UNL     1      51.848 -11.248  16.065  1.00  0.00    -0.339 N
ATOM      8  H7  UNL     1      51.256 -10.536  15.636  1.00  0.00     0.163 HD
HETATM    9  C5  UNL     1      52.384 -12.283  15.224  1.00  0.00     0.140 C
HETATM   10  C7  UNL     1      53.443 -13.004  15.626  1.00  0.00     0.122 C
ENDROOT
BRANCH   1  11
HETATM   11  N3  UNL     1      55.575 -13.039  18.648  1.00  0.00    -0.262 N
HETATM   12  C2  UNL     1      54.965 -13.534  19.822  1.00  0.00     0.302 C
HETATM   13  O2  UNL     1      53.928 -14.228  19.736  1.00  0.00    -0.263 OA
ATOM     14  H3  UNL     1      56.421 -12.471  18.713  1.00  0.00     0.190 HD
BRANCH  12  15
HETATM   15  C1  UNL     1      55.574 -13.214  21.106  1.00  0.00     0.205 C
HETATM   16  N1  UNL     1      55.955 -14.226  22.023  1.00  0.00    -0.075 NA
HETATM   17  N2  UNL     1      55.765 -11.993  21.408  1.00  0.00    -0.251 N
ATOM     18  H2  UNL     1      56.193 -11.795  22.313  1.00  0.00     0.195 HD
BRANCH  17  19
HETATM   19  O1  UNL     1      55.446 -10.932  20.623  1.00  0.00    -0.288 OA
ATOM     20  H1  UNL     1      54.693 -10.366  20.745  1.00  0.00     0.244 HD
ENDBRANCH  17  19
ENDBRANCH  12  15
ENDBRANCH   1  11
BRANCH  10  21
HETATM   21  N8  UNL     1      54.004 -14.034  14.830  1.00  0.00    -0.312 N
ATOM     22  H8  UNL     1      53.439 -14.864  14.648  1.00  0.00     0.181 HD
BRANCH  21  23
HETATM   23  N9  UNL     1      55.274 -13.977  14.284  1.00  0.00    -0.204 NA
HETATM   24  C8  UNL     1      55.341 -13.417  12.970  1.00  0.00     0.143 A
HETATM   25  C9  UNL     1      56.157 -14.330  12.117  1.00  0.00     0.250 A
HETATM   26  N10 UNL     1      56.491 -15.445  12.944  1.00  0.00    -0.061 N
HETATM   27  C10 UNL     1      55.971 -15.220  14.252  1.00  0.00     0.345 A
ATOM     28 2H10 UNL     1      56.179 -16.331  12.548  1.00  0.00     0.278 HD
ATOM     29 1H10 UNL     1      57.493 -15.638  12.950  1.00  0.00     0.278 HD
ENDBRANCH  21  23
ENDBRANCH  10  21
BRANCH   6  30
HETATM   30  N6  UNL     1      51.144 -11.898  18.270  1.00  0.00    -0.041 N
ATOM     31  H63 UNL     1      51.566 -12.290  19.111  1.00  0.00     0.279 HD
ATOM     32  H62 UNL     1      50.464 -11.284  18.720  1.00  0.00     0.279 HD
ATOM     33  H61 UNL     1      50.696 -12.612  17.695  1.00  0.00     0.279 HD
ENDBRANCH   6  30
BRANCH   9  34
HETATM   34  C6  UNL     1      51.790 -12.556  13.939  1.00  0.00     0.229 C
HETATM   35  O3  UNL     1      51.492 -13.717  13.616  1.00  0.00    -0.643 OA
HETATM   36  O4  UNL     1      51.550 -11.526  13.063  1.00  0.00    -0.643 OA
ENDBRANCH   9  34
TORSDOF 7
ENDMDL