MODEL 3
REMARK VINA RESULT: -6.351963315      3.081      4.738
REMARK  9 active torsions:
REMARK  status: ('A' for Active; 'I' for Inactive)
REMARK    1  A    between atoms: N1_1  and  C1_4
REMARK    2  A    between atoms: C1_4  and  N2_5
REMARK    3  A    between atoms: C1_4  and  C3_11
REMARK    4  A    between atoms: N2_5  and  O1_7
REMARK    5  A    between atoms: O1_7  and  C2_8
REMARK       I    between atoms: N6_17  and  C6_19
REMARK    6  A    between atoms: C6_19  and  C7_21
REMARK    7  A    between atoms: C7_21  and  N7_22
REMARK    8  A    between atoms: C8_29  and  N11_30
REMARK    9  A    between atoms: N12_33  and  N13_34
ROOT
HETATM    1  C3  UNL     1      52.800 -12.482  14.820  1.00  0.00     0.160 A
HETATM    2  C4  UNL     1      52.244 -12.644  13.575  1.00  0.00     0.165 A
HETATM    3  N4  UNL     1      51.566 -11.727  12.733  1.00  0.00    -0.079 NA
HETATM    4  N5  UNL     1      52.446 -13.952  13.200  1.00  0.00    -0.174 N
ATOM      5  H5  UNL     1      52.141 -14.368  12.320  1.00  0.00     0.185 HD
HETATM    6  C5  UNL     1      53.106 -14.591  14.173  1.00  0.00     0.707 A
HETATM    7  N6  UNL     1      53.485 -15.819  14.252  1.00  0.00    -0.156 N
ATOM      8  H6  UNL     1      53.984 -16.108  15.094  1.00  0.00     0.187 HD
HETATM    9  C6  UNL     1      53.262 -16.778  13.271  1.00  0.00     0.256 C
HETATM   10  O3  UNL     1      52.230 -16.752  12.572  1.00  0.00    -0.271 OA
HETATM   11  N12 UNL     1      53.318 -13.675  15.163  1.00  0.00    -0.086 N
ENDROOT
BRANCH  11  12
HETATM   12  N13 UNL     1      53.983 -13.956  16.344  1.00  0.00    -0.324 N
ATOM     13 2H13 UNL     1      54.903 -13.585  16.579  1.00  0.00     0.178 HD
ATOM     14 1H13 UNL     1      53.633 -14.547  17.098  1.00  0.00     0.178 HD
ENDBRANCH  11  12
BRANCH   9  15
HETATM   15  C7  UNL     1      54.239 -17.896  12.998  1.00  0.00     0.273 C
BRANCH  15  16
HETATM   16  N7  UNL     1      53.541 -19.159  13.020  1.00  0.00    -0.098 N
HETATM   17  N8  UNL     1      52.915 -19.697  11.995  1.00  0.00    -0.211 N
HETATM   18  N9  UNL     1      52.398 -20.852  12.370  1.00  0.00    -0.213 N
ATOM     19  H8  UNL     1      52.842 -19.289  11.063  1.00  0.00     0.210 HD
HETATM   20  N10 UNL     1      52.693 -21.054  13.641  1.00  0.00    -0.115 N
ATOM     21  H9  UNL     1      51.859 -21.483  11.777  1.00  0.00     0.210 HD
HETATM   22  C8  UNL     1      53.411 -19.996  14.057  1.00  0.00     0.710 A
ATOM     23  H10 UNL     1      52.427 -21.862  14.203  1.00  0.00     0.207 HD
BRANCH  22  24
HETATM   24  N11 UNL     1      53.892 -19.820  15.255  1.00  0.00    -0.232 N
ATOM     25 2H11 UNL     1      53.434 -19.320  16.017  1.00  0.00     0.174 HD
ATOM     26 1H11 UNL     1      54.791 -20.156  15.599  1.00  0.00     0.174 HD
ENDBRANCH  22  24
ENDBRANCH  15  16
ENDBRANCH   9  15
BRANCH   1  27
HETATM   27  C1  UNL     1      52.822 -11.280  15.607  1.00  0.00     0.152 C
BRANCH  27  28
HETATM   28  N1  UNL     1      53.680 -10.359  15.481  1.00  0.00    -0.382 N
ATOM     29  H12 UNL     1      53.465  -9.363  15.521  1.00  0.00     0.157 HD
ATOM     30  H11 UNL     1      54.634 -10.690  15.338  1.00  0.00     0.157 HD
ENDBRANCH  27  28
BRANCH  27  31
HETATM   31  N2  UNL     1      51.821 -11.030  16.629  1.00  0.00    -0.238 N
ATOM     32  H2  UNL     1      51.106 -10.313  16.505  1.00  0.00     0.196 HD
BRANCH  31  33
HETATM   33  O1  UNL     1      51.874 -11.787  17.756  1.00  0.00    -0.182 OA
BRANCH  33  34
HETATM   34  C2  UNL     1      52.839 -11.558  18.756  1.00  0.00     0.394 C
HETATM   35  N3  UNL     1      54.228 -11.692  18.552  1.00  0.00    -0.031 NA
HETATM   36  O2  UNL     1      52.353 -11.212  19.882  1.00  0.00    -0.240 OA
ENDBRANCH  33  34
ENDBRANCH  31  33
ENDBRANCH  27  31
ENDBRANCH   1  27
TORSDOF 9
ENDMDL