MODEL 5
REMARK VINA RESULT: -6.456701042      1.968      3.934
REMARK  7 active torsions:
REMARK  status: ('A' for Active; 'I' for Inactive)
REMARK    1  A    between atoms: N1_1  and  C1_4
REMARK    2  A    between atoms: C2_7  and  N3_8
REMARK    3  A    between atoms: N6_16  and  C4_17
REMARK    4  A    between atoms: C4_17  and  C5_18
REMARK    5  A    between atoms: C6_20  and  N7_21
REMARK    6  A    between atoms: N7_21  and  N8_22
REMARK       I    between atoms: N8_22  and  C7_24
REMARK    7  A    between atoms: C9_31  and  O4_32
ROOT
HETATM    1  C1  UNL     1      54.547 -14.759  13.993  1.00  0.00     0.679 A
HETATM    2  N2  UNL     1      54.145 -14.056  12.925  1.00  0.00    -0.175 N
ATOM      3  H2  UNL     1      53.778 -14.568  12.123  1.00  0.00     0.186 HD
HETATM    4  C2  UNL     1      54.196 -12.716  12.850  1.00  0.00     0.147 A
HETATM    5  C3  UNL     1      54.696 -12.003  13.936  1.00  0.00     0.140 A
HETATM    6  N4  UNL     1      54.897 -10.725  14.218  1.00  0.00    -0.279 N
ATOM      7  H4  UNL     1      54.685  -9.946  13.595  1.00  0.00     0.189 HD
HETATM    8  N5  UNL     1      55.409 -10.613  15.423  1.00  0.00    -0.238 N
ATOM      9  H5  UNL     1      55.655  -9.733  15.876  1.00  0.00     0.208 HD
HETATM   10  N6  UNL     1      55.557 -11.798  15.957  1.00  0.00    -0.257 N
HETATM   11  C10 UNL     1      55.117 -12.702  15.046  1.00  0.00     0.171 A
HETATM   12  N11 UNL     1      55.034 -14.045  15.046  1.00  0.00    -0.173 N
ATOM     13  H11 UNL     1      55.350 -14.551  15.873  1.00  0.00     0.186 HD
ENDROOT
BRANCH  10  14
HETATM   14  C4  UNL     1      56.075 -12.201  17.231  1.00  0.00     0.187 C
BRANCH  14  15
HETATM   15  C5  UNL     1      55.323 -11.616  18.419  1.00  0.00     0.183 C
HETATM   16  O1  UNL     1      54.034 -11.380  17.961  1.00  0.00    -0.341 OA
HETATM   17  C6  UNL     1      53.054 -11.380  18.937  1.00  0.00     0.342 C
HETATM   18  N10 UNL     1      52.921 -12.734  19.444  1.00  0.00    -0.318 N
HETATM   19  C8  UNL     1      54.160 -13.423  19.663  1.00  0.00     0.252 C
ATOM     20  H10 UNL     1      52.015 -13.165  19.629  1.00  0.00     0.166 HD
HETATM   21  O3  UNL     1      54.249 -14.660  19.866  1.00  0.00    -0.270 OA
HETATM   22  C9  UNL     1      55.364 -12.513  19.630  1.00  0.00     0.240 C
BRANCH  17  23
HETATM   23  N7  UNL     1      51.823 -10.946  18.287  1.00  0.00    -0.084 NA
BRANCH  23  24
HETATM   24  N8  UNL     1      51.502 -11.864  17.292  1.00  0.00    -0.254 N
HETATM   25  C7  UNL     1      51.680 -11.543  15.926  1.00  0.00     0.344 C
HETATM   26  N9  UNL     1      51.360 -12.465  14.878  1.00  0.00    -0.039 NA
HETATM   27  O2  UNL     1      52.131 -10.416  15.626  1.00  0.00    -0.250 OA
ATOM     28  H8  UNL     1      51.134 -12.780  17.551  1.00  0.00     0.187 HD
ENDBRANCH  23  24
ENDBRANCH  17  23
BRANCH  22  29
HETATM   29  O4  UNL     1      55.249 -11.741  20.813  1.00  0.00    -0.383 OA
ATOM     30  H4  UNL     1      54.333 -11.602  21.025  1.00  0.00     0.210 HD
ENDBRANCH  22  29
ENDBRANCH  14  15
ENDBRANCH  10  14
BRANCH   4  31
HETATM   31  N3  UNL     1      53.809 -12.050  11.826  1.00  0.00    -0.383 N
ATOM     32  H32 UNL     1      53.324 -12.557  11.086  1.00  0.00     0.157 HD
ATOM     33  H31 UNL     1      53.959 -11.047  11.718  1.00  0.00     0.157 HD
ENDBRANCH   4  31
BRANCH   1  34
HETATM   34  N1  UNL     1      54.479 -16.049  14.024  1.00  0.00    -0.234 N
ATOM     35  H12 UNL     1      53.589 -16.539  13.928  1.00  0.00     0.174 HD
ATOM     36  H11 UNL     1      55.309 -16.629  14.146  1.00  0.00     0.174 HD
ENDBRANCH   1  34
TORSDOF 7
ENDMDL