MODEL 1
REMARK VINA RESULT: -6.580469383      0.000      0.000
REMARK  8 active torsions:
REMARK  status: ('A' for Active; 'I' for Inactive)
REMARK    1  A    between atoms: C1_2  and  C2_4
REMARK    2  A    between atoms: C4_6  and  C5_7
REMARK    3  A    between atoms: C6_11  and  N3_12
REMARK    4  A    between atoms: N3_12  and  C7_14
REMARK    5  A    between atoms: C8_17  and  O4_18
REMARK    6  A    between atoms: C9_20  and  O5_21
REMARK    7  A    between atoms: C9_20  and  C10_23
REMARK    8  A    between atoms: C10_23  and  O6_24
ROOT
HETATM    1  N3  UNL     1      55.460 -13.597  15.627  1.00  0.00    -0.154 N
ATOM      2  H3  UNL     1      56.184 -14.188  15.217  1.00  0.00     0.188 HD
ENDROOT
BRANCH   1   3
HETATM    3  C6  UNL     1      54.439 -13.102  14.786  1.00  0.00     0.254 C
HETATM    4  O3  UNL     1      53.145 -13.373  15.180  1.00  0.00    -0.302 OA
HETATM    5  C4  UNL     1      51.887 -12.860  14.910  1.00  0.00     0.246 C
HETATM    6  C3  UNL     1      51.695 -12.466  13.494  1.00  0.00     0.051 C
HETATM    7  C2  UNL     1      52.562 -12.052  12.606  1.00  0.00     0.112 C
HETATM    8  N7  UNL     1      53.967 -11.856  12.742  1.00  0.00    -0.293 N
HETATM    9  N6  UNL     1      54.762 -12.444  13.727  1.00  0.00    -0.264 N
ATOM     10  H7  UNL     1      54.426 -11.241  12.070  1.00  0.00     0.187 HD
ATOM     11  H6  UNL     1      55.765 -12.334  13.584  1.00  0.00     0.190 HD
BRANCH   5  12
HETATM   12  C5  UNL     1      51.615 -11.722  15.819  1.00  0.00     0.264 C
HETATM   13  N2  UNL     1      51.699 -11.833  17.235  1.00  0.00    -0.059 NA
HETATM   14  O2  UNL     1      51.298 -10.619  15.307  1.00  0.00    -0.274 OA
ENDBRANCH   5  12
BRANCH   7  15
HETATM   15  C1  UNL     1      52.035 -11.735  11.265  1.00  0.00     0.282 C
HETATM   16  N1  UNL     1      50.638 -11.535  11.113  1.00  0.00    -0.056 NA
HETATM   17  O1  UNL     1      52.765 -11.639  10.271  1.00  0.00    -0.269 OA
ENDBRANCH   7  15
ENDBRANCH   1   3
BRANCH   1  18
HETATM   18  C7  UNL     1      55.528 -13.306  17.031  1.00  0.00     0.679 C
HETATM   19  N4  UNL     1      54.731 -12.450  17.576  1.00  0.00    -0.197 N
HETATM   20  C8  UNL     1      54.858 -12.210  18.996  1.00  0.00     0.273 C
ATOM     21  H4  UNL     1      54.031 -11.958  17.021  1.00  0.00     0.180 HD
HETATM   22  C9  UNL     1      55.005 -13.529  19.735  1.00  0.00     0.139 C
HETATM   23  C11 UNL     1      56.143 -14.340  19.200  1.00  0.00     0.182 C
HETATM   24  N5  UNL     1      56.481 -13.959  17.857  1.00  0.00    -0.223 N
ATOM     25  H5  UNL     1      57.413 -14.159  17.493  1.00  0.00     0.177 HD
BRANCH  20  26
HETATM   26  O4  UNL     1      53.743 -11.562  19.506  1.00  0.00    -0.373 OA
ATOM     27  H4  UNL     1      53.371 -10.958  18.874  1.00  0.00     0.212 HD
ENDBRANCH  20  26
BRANCH  22  28
HETATM   28  O5  UNL     1      53.785 -14.201  19.575  1.00  0.00    -0.381 OA
ATOM     29  H5  UNL     1      53.764 -14.872  20.247  1.00  0.00     0.211 HD
ENDBRANCH  22  28
BRANCH  22  30
HETATM   30  C10 UNL     1      55.248 -13.249  21.193  1.00  0.00     0.208 C
BRANCH  30  31
HETATM   31  O6  UNL     1      55.724 -11.945  21.326  1.00  0.00    -0.398 OA
ATOM     32  H6  UNL     1      55.073 -11.346  20.981  1.00  0.00     0.209 HD
ENDBRANCH  30  31
ENDBRANCH  22  30
ENDBRANCH   1  18
TORSDOF 8
ENDMDL