MODEL 3
REMARK VINA RESULT: -6.298466042      1.920      2.680
REMARK  11 active torsions:
REMARK  status: ('A' for Active; 'I' for Inactive)
REMARK    1  A    between atoms: N1_1  and  C1_4
REMARK    2  A    between atoms: C2_7  and  N3_8
REMARK    3  A    between atoms: N3_8  and  O1_10
REMARK    4  A    between atoms: C6_17  and  O2_18
REMARK    5  A    between atoms: C6_17  and  C7_20
REMARK    6  A    between atoms: C7_20  and  O4_22
REMARK    7  A    between atoms: O4_22  and  N5_23
REMARK       I    between atoms: N5_23  and  C8_25
REMARK    8  A    between atoms: C8_25  and  C9_27
REMARK    9  A    between atoms: C9_27  and  N6_28
REMARK   10  A    between atoms: C9_27  and  C10_32
REMARK   11  A    between atoms: C10_32  and  N7_33
ROOT
HETATM    1  C1  UNL     1      53.153 -16.824  14.221  1.00  0.00     0.123 A
HETATM    2  N2  UNL     1      53.046 -17.853  13.361  1.00  0.00    -0.175 N
ATOM      3  H2  UNL     1      52.979 -18.802  13.729  1.00  0.00     0.186 HD
HETATM    4  C2  UNL     1      53.025 -17.667  12.035  1.00  0.00     0.704 A
HETATM    5  N4  UNL     1      53.114 -16.412  11.571  1.00  0.00    -0.185 N
ATOM      6  H4  UNL     1      53.098 -16.259  10.562  1.00  0.00     0.184 HD
HETATM    7  C3  UNL     1      53.225 -15.331  12.401  1.00  0.00     0.108 A
HETATM    8  C4  UNL     1      53.247 -15.513  13.764  1.00  0.00     0.021 A
HETATM    9  C5  UNL     1      53.374 -14.196  14.438  1.00  0.00     0.102 C
HETATM   10  C6  UNL     1      53.187 -13.168  13.382  1.00  0.00     0.218 C
HETATM   11  C11 UNL     1      53.336 -13.910  12.111  1.00  0.00     0.221 C
HETATM   12  O6  UNL     1      53.527 -13.448  10.950  1.00  0.00    -0.287 OA
ENDROOT
BRANCH  10  13
HETATM   13  O2  UNL     1      54.254 -12.244  13.403  1.00  0.00    -0.372 OA
ATOM     14  H2  UNL     1      54.180 -11.670  14.156  1.00  0.00     0.211 HD
ENDBRANCH  10  13
BRANCH  10  15
HETATM   15  C7  UNL     1      51.889 -12.448  13.484  1.00  0.00     0.324 C
HETATM   16  O3  UNL     1      50.918 -12.895  12.830  1.00  0.00    -0.259 OA
BRANCH  15  17
HETATM   17  O4  UNL     1      51.692 -11.317  14.259  1.00  0.00    -0.194 OA
BRANCH  17  18
HETATM   18  N5  UNL     1      51.501 -11.347  15.616  1.00  0.00    -0.224 N
HETATM   19  C8  UNL     1      52.608 -11.171  16.525  1.00  0.00     0.274 C
HETATM   20  O5  UNL     1      53.775 -10.986  16.060  1.00  0.00    -0.269 OA
ATOM     21  H5  UNL     1      50.564 -11.497  15.989  1.00  0.00     0.198 HD
BRANCH  19  22
HETATM   22  C9  UNL     1      52.444 -11.196  17.991  1.00  0.00     0.301 C
BRANCH  22  23
HETATM   23  N6  UNL     1      51.182 -11.896  18.280  1.00  0.00    -0.065 N
ATOM     24  H63 UNL     1      51.022 -12.034  19.278  1.00  0.00     0.275 HD
ATOM     25  H62 UNL     1      50.357 -11.324  18.092  1.00  0.00     0.275 HD
ATOM     26  H61 UNL     1      51.190 -12.769  17.753  1.00  0.00     0.275 HD
ENDBRANCH  22  23
BRANCH  22  27
HETATM   27  C10 UNL     1      53.503 -11.981  18.712  1.00  0.00     0.272 C
BRANCH  27  28
HETATM   28  N7  UNL     1      53.958 -13.150  18.027  1.00  0.00    -0.077 N
ATOM     29  H73 UNL     1      53.534 -13.984  18.434  1.00  0.00     0.274 HD
ATOM     30  H72 UNL     1      53.559 -13.187  17.089  1.00  0.00     0.274 HD
ATOM     31  H71 UNL     1      54.972 -13.256  17.984  1.00  0.00     0.274 HD
ENDBRANCH  27  28
ENDBRANCH  22  27
ENDBRANCH  19  22
ENDBRANCH  17  18
ENDBRANCH  15  17
ENDBRANCH  10  15
BRANCH   1  32
HETATM   32  N1  UNL     1      53.172 -17.032  15.492  1.00  0.00    -0.385 N
ATOM     33  H12 UNL     1      52.643 -17.822  15.863  1.00  0.00     0.157 HD
ATOM     34  H11 UNL     1      53.704 -16.419  16.110  1.00  0.00     0.157 HD
ENDBRANCH   1  32
BRANCH   4  35
HETATM   35  N3  UNL     1      52.923 -18.673  11.215  1.00  0.00    -0.098 N
ATOM     36  H3  UNL     1      53.029 -18.547  10.207  1.00  0.00     0.213 HD
BRANCH  35  37
HETATM   37  O1  UNL     1      52.670 -19.908  11.753  1.00  0.00    -0.276 OA
ATOM     38  H1  UNL     1      51.800 -20.067  12.101  1.00  0.00     0.245 HD
ENDBRANCH  35  37
ENDBRANCH   4  35
TORSDOF 11
ENDMDL