MODEL 3
REMARK VINA RESULT: -6.097229701      1.533      6.069
REMARK  8 active torsions:
REMARK  status: ('A' for Active; 'I' for Inactive)
REMARK    1  A    between atoms: C2_2  and  N1_3
REMARK    2  A    between atoms: C2_2  and  C3_7
REMARK       I    between atoms: C3_7  and  N2_9
REMARK    3  A    between atoms: N2_9  and  N3_11
REMARK    4  A    between atoms: C4_12  and  S1_13
REMARK    5  A    between atoms: C5_19  and  N5_20
REMARK       I    between atoms: N5_20  and  C6_22
REMARK       I    between atoms: C6_22  and  N6_23
REMARK       I    between atoms: C6_22  and  N7_27
REMARK    6  A    between atoms: N7_27  and  N8_28
REMARK    7  A    between atoms: C7_33  and  N10_34
REMARK    8  A    between atoms: N10_34  and  N11_36
ROOT
HETATM    1  N3  UNL     1      53.863 -12.184  13.779  1.00  0.00    -0.051 N
HETATM    2  C4  UNL     1      53.255 -12.837  12.796  1.00  0.00     0.277 A
HETATM    3  N4  UNL     1      53.816 -12.874  11.536  1.00  0.00    -0.161 N
ATOM      4  H4  UNL     1      53.324 -13.383  10.802  1.00  0.00     0.186 HD
HETATM    5  C5  UNL     1      54.968 -12.281  11.230  1.00  0.00     0.697 A
HETATM    6  N9  UNL     1      55.598 -11.623  12.205  1.00  0.00    -0.019 N
ATOM      7  H9  UNL     1      56.485 -11.156  12.016  1.00  0.00     0.203 HD
HETATM    8  C7  UNL     1      55.072 -11.578  13.417  1.00  0.00     0.734 A
ENDROOT
BRANCH   5   9
HETATM    9  N5  UNL     1      55.424 -12.358  10.036  1.00  0.00    -0.181 N
HETATM   10  C6  UNL     1      54.935 -13.095   8.929  1.00  0.00     0.410 C
HETATM   11  N6  UNL     1      56.063 -13.886   8.400  1.00  0.00    -0.042 N
HETATM   12  N7  UNL     1      54.585 -12.204   7.803  1.00  0.00    -0.093 NA
ATOM     13  H63 UNL     1      56.878 -13.317   8.173  1.00  0.00     0.278 HD
ATOM     14  H62 UNL     1      56.506 -14.473   9.108  1.00  0.00     0.278 HD
ATOM     15  H61 UNL     1      55.712 -14.417   7.604  1.00  0.00     0.278 HD
ATOM     16  H5  UNL     1      56.263 -11.807   9.855  1.00  0.00     0.181 HD
BRANCH  12  17
HETATM   17  N8  UNL     1      53.599 -11.339   8.281  1.00  0.00    -0.345 N
ATOM     18  H82 UNL     1      52.624 -11.580   8.460  1.00  0.00     0.172 HD
ATOM     19  H81 UNL     1      54.052 -10.434   8.412  1.00  0.00     0.172 HD
ENDBRANCH  12  17
ENDBRANCH   5   9
BRANCH   2  20
HETATM   20  S1  UNL     1      51.807 -13.801  13.017  1.00  0.00     0.175 S
HETATM   21  O2  UNL     1      52.097 -15.123  12.231  1.00  0.00    -0.589 OA
HETATM   22  O3  UNL     1      51.630 -14.303  14.406  1.00  0.00    -0.589 OA
HETATM   23  O4  UNL     1      50.466 -13.168  12.290  1.00  0.00    -0.589 OA
ENDBRANCH   2  20
BRANCH   8  24
HETATM   24  N10 UNL     1      55.728 -10.921  14.315  1.00  0.00    -0.136 N
ATOM     25  H10 UNL     1      56.011 -11.406  15.166  1.00  0.00     0.205 HD
BRANCH  24  26
HETATM   26  N11 UNL     1      56.065  -9.578  14.166  1.00  0.00    -0.331 N
ATOM     27 2H11 UNL     1      56.217  -9.230  13.220  1.00  0.00     0.177 HD
ATOM     28 1H11 UNL     1      56.162  -8.944  14.960  1.00  0.00     0.177 HD
ENDBRANCH  24  26
ENDBRANCH   8  24
BRANCH   1  29
HETATM   29  N2  UNL     1      53.422 -11.880  15.030  1.00  0.00    -0.245 N
HETATM   30  C3  UNL     1      52.367 -11.304  15.688  1.00  0.00     0.267 C
HETATM   31  O1  UNL     1      51.367 -10.798  15.172  1.00  0.00    -0.269 OA
ATOM     32  H2  UNL     1      54.115 -12.187  15.713  1.00  0.00     0.191 HD
BRANCH  30  33
HETATM   33  C2  UNL     1      52.338 -11.236  17.207  1.00  0.00     0.272 C
HETATM   34  C1  UNL     1      53.630 -11.678  17.795  1.00  0.00     0.050 C
BRANCH  33  35
HETATM   35  N1  UNL     1      51.181 -11.905  17.667  1.00  0.00    -0.067 N
ATOM     36  H13 UNL     1      51.134 -12.836  17.253  1.00  0.00     0.275 HD
ATOM     37  H12 UNL     1      51.291 -12.147  18.652  1.00  0.00     0.275 HD
ATOM     38  H11 UNL     1      50.294 -11.421  17.529  1.00  0.00     0.275 HD
ENDBRANCH  33  35
ENDBRANCH  30  33
ENDBRANCH   1  29
TORSDOF 8
ENDMDL