MODEL 4
REMARK VINA RESULT: -6.247002600      2.723      6.104
REMARK  9 active torsions:
REMARK  status: ('A' for Active; 'I' for Inactive)
REMARK    1  A    between atoms: N1_1  and  N2_4
REMARK    2  A    between atoms: C2_8  and  N4_9
REMARK    3  A    between atoms: N4_9  and  C3_11
REMARK    4  A    between atoms: C5_14  and  C6_15
REMARK    5  A    between atoms: C6_15  and  O2_16
REMARK    6  A    between atoms: C7_18  and  C8_19
REMARK    7  A    between atoms: C8_19  and  O3_20
REMARK    8  A    between atoms: C8_19  and  O4_22
REMARK    9  A    between atoms: C9_27  and  C10_28
ROOT
HETATM    1  C3  UNL     1      53.352 -12.308  15.240  1.00  0.00     0.201 C
HETATM    2  C4  UNL     1      52.162 -12.152  14.310  1.00  0.00     0.160 C
HETATM    3  O1  UNL     1      51.419 -11.259  14.518  1.00  0.00    -0.295 OA
HETATM    4  C5  UNL     1      51.784 -13.010  13.148  1.00  0.00     0.110 C
HETATM    5  C7  UNL     1      52.981 -13.663  12.534  1.00  0.00     0.163 C
HETATM    6  N5  UNL     1      54.156 -13.679  13.334  1.00  0.00    -0.328 N
ATOM      7  H5  UNL     1      54.420 -14.488  13.897  1.00  0.00     0.176 HD
HETATM    8  N6  UNL     1      54.925 -12.512  13.296  1.00  0.00    -0.127 NA
HETATM    9  C9  UNL     1      54.445 -11.681  14.388  1.00  0.00     0.230 C
ENDROOT
BRANCH   1  10
HETATM   10  N4  UNL     1      53.254 -11.577  16.442  1.00  0.00    -0.213 N
ATOM     11  H4  UNL     1      53.015 -10.591  16.333  1.00  0.00     0.178 HD
BRANCH  10  12
HETATM   12  C2  UNL     1      53.440 -12.012  17.777  1.00  0.00     0.676 C
HETATM   13  N3  UNL     1      54.143 -13.132  18.178  1.00  0.00    -0.187 N
HETATM   14  C1  UNL     1      54.494 -13.570  19.321  1.00  0.00     0.219 C
ATOM     15  H3  UNL     1      54.441 -13.726  17.404  1.00  0.00     0.185 HD
HETATM   16  N2  UNL     1      54.087 -12.701  20.383  1.00  0.00    -0.275 N
HETATM   17  C11 UNL     1      53.085 -11.686  20.161  1.00  0.00     0.289 C
HETATM   18  N7  UNL     1      52.948 -11.297  18.773  1.00  0.00    -0.208 N
ATOM     19  H7  UNL     1      52.451 -10.433  18.555  1.00  0.00     0.179 HD
BRANCH  16  20
HETATM   20  N1  UNL     1      54.777 -12.787  21.640  1.00  0.00    -0.341 N
ATOM     21  H12 UNL     1      54.380 -13.316  22.417  1.00  0.00     0.177 HD
ATOM     22  H11 UNL     1      55.632 -12.244  21.763  1.00  0.00     0.177 HD
ENDBRANCH  16  20
ENDBRANCH  10  12
ENDBRANCH   1  10
BRANCH   9  23
HETATM   23  C10 UNL     1      55.405 -10.824  15.035  1.00  0.00     0.197 C
HETATM   24  O5  UNL     1      56.381 -11.254  15.729  1.00  0.00    -0.647 OA
HETATM   25  O6  UNL     1      55.289  -9.433  14.916  1.00  0.00    -0.647 OA
ENDBRANCH   9  23
BRANCH   4  26
HETATM   26  C6  UNL     1      51.182 -12.118  12.059  1.00  0.00     0.178 C
BRANCH  26  27
HETATM   27  O2  UNL     1      52.045 -11.098  11.717  1.00  0.00    -0.400 OA
ATOM     28  H2  UNL     1      51.741 -10.635  10.945  1.00  0.00     0.209 HD
ENDBRANCH  26  27
ENDBRANCH   4  26
BRANCH   5  29
HETATM   29  C8  UNL     1      52.678 -15.087  12.108  1.00  0.00     0.278 C
BRANCH  29  30
HETATM   30  O3  UNL     1      53.751 -15.960  12.338  1.00  0.00    -0.369 OA
ATOM     31  H3  UNL     1      54.258 -16.133  11.553  1.00  0.00     0.212 HD
ENDBRANCH  29  30
BRANCH  29  32
HETATM   32  O4  UNL     1      51.576 -15.479  12.887  1.00  0.00    -0.369 OA
ATOM     33  H4  UNL     1      51.023 -15.982  12.301  1.00  0.00     0.212 HD
ENDBRANCH  29  32
ENDBRANCH   5  29
TORSDOF 9
ENDMDL