MODEL 5
REMARK VINA RESULT: -6.174514725      1.116      1.699
REMARK  8 active torsions:
REMARK  status: ('A' for Active; 'I' for Inactive)
REMARK       I    between atoms: C1_4  and  N2_5
REMARK       I    between atoms: C1_4  and  N9_31
REMARK    1  A    between atoms: N2_5  and  C2_7
REMARK    2  A    between atoms: C2_7  and  C3_8
REMARK    3  A    between atoms: C3_8  and  N3_9
REMARK    4  A    between atoms: N3_9  and  C4_11
REMARK    5  A    between atoms: N5_17  and  O1_19
REMARK    6  A    between atoms: O1_19  and  N6_20
REMARK    7  A    between atoms: C8_25  and  O2_26
REMARK    8  A    between atoms: N9_31  and  N10_33
ROOT
HETATM    1  C4  UNL     1      54.946 -13.231  15.590  1.00  0.00     0.679 C
HETATM    2  N4  UNL     1      55.938 -12.663  16.230  1.00  0.00    -0.224 N
ATOM      3  H4  UNL     1      56.929 -12.823  16.053  1.00  0.00     0.177 HD
HETATM    4  C5  UNL     1      55.384 -11.752  17.251  1.00  0.00     0.172 C
HETATM    5  C6  UNL     1      54.056 -12.468  17.511  1.00  0.00     0.198 C
HETATM    6  C7  UNL     1      53.047 -11.676  18.185  1.00  0.00     0.128 C
HETATM    7  N5  UNL     1      53.076 -11.532  19.456  1.00  0.00    -0.228 N
ATOM      8  H5  UNL     1      52.369 -10.973  19.935  1.00  0.00     0.198 HD
HETATM    9  N7  UNL     1      52.016 -11.078  17.412  1.00  0.00    -0.343 N
ATOM     10  H7  UNL     1      51.638 -10.179  17.710  1.00  0.00     0.164 HD
HETATM   11  C8  UNL     1      51.482 -11.696  16.220  1.00  0.00     0.314 C
HETATM   12  C9  UNL     1      52.447 -12.603  15.550  1.00  0.00     0.287 C
HETATM   13  O3  UNL     1      52.119 -13.185  14.516  1.00  0.00    -0.267 OA
HETATM   14  N8  UNL     1      53.719 -12.771  16.126  1.00  0.00    -0.134 N
ENDROOT
BRANCH   1  15
HETATM   15  N3  UNL     1      55.097 -14.189  14.517  1.00  0.00    -0.225 N
ATOM     16  H3  UNL     1      55.053 -15.188  14.715  1.00  0.00     0.177 HD
BRANCH  15  17
HETATM   17  C3  UNL     1      55.310 -13.728  13.162  1.00  0.00     0.158 C
BRANCH  17  18
HETATM   18  C2  UNL     1      54.553 -14.619  12.222  1.00  0.00     0.158 C
BRANCH  18  19
HETATM   19  N2  UNL     1      53.414 -13.906  11.665  1.00  0.00    -0.224 N
HETATM   20  C1  UNL     1      53.468 -12.507  11.430  1.00  0.00     0.691 C
HETATM   21  N1  UNL     1      52.748 -11.673  12.136  1.00  0.00    -0.233 N
HETATM   22  N9  UNL     1      54.319 -12.023  10.414  1.00  0.00    -0.072 N
ATOM     23  H12 UNL     1      52.134 -12.022  12.870  1.00  0.00     0.174 HD
ATOM     24  H11 UNL     1      52.786 -10.668  11.967  1.00  0.00     0.174 HD
ATOM     25  H9  UNL     1      55.184 -11.536  10.648  1.00  0.00     0.212 HD
ATOM     26  H2  UNL     1      52.563 -14.419  11.439  1.00  0.00     0.177 HD
BRANCH  22  27
HETATM   27  N10 UNL     1      53.954 -12.223   9.090  1.00  0.00    -0.024 N
HETATM   28  O4  UNL     1      53.425 -11.305   8.444  1.00  0.00    -0.516 OA
HETATM   29  O5  UNL     1      54.182 -13.434   8.493  1.00  0.00    -0.516 OA
ENDBRANCH  22  27
ENDBRANCH  18  19
ENDBRANCH  17  18
ENDBRANCH  15  17
ENDBRANCH   1  15
BRANCH  11  30
HETATM   30  O2  UNL     1      51.064 -10.677  15.364  1.00  0.00    -0.368 OA
ATOM     31  H2  UNL     1      50.129 -10.777  15.230  1.00  0.00     0.212 HD
ENDBRANCH  11  30
BRANCH   7  32
HETATM   32  O1  UNL     1      54.080 -12.145  20.161  1.00  0.00    -0.163 OA
BRANCH  32  33
HETATM   33  N6  UNL     1      54.982 -11.322  20.797  1.00  0.00    -0.286 N
ATOM     34  H62 UNL     1      55.630 -10.746  20.260  1.00  0.00     0.186 HD
ATOM     35  H61 UNL     1      54.964 -11.322  21.817  1.00  0.00     0.186 HD
ENDBRANCH  32  33
ENDBRANCH   7  32
TORSDOF 8
ENDMDL