MODEL 5
REMARK VINA RESULT: 1.176265700      1.289      4.286
REMARK  1 active torsions:
REMARK  status: ('A' for Active; 'I' for Inactive)
REMARK    1  A    between atoms: C3_3  and  N1_4
REMARK       I    between atoms: N1_4  and  C4_6
REMARK       I    between atoms: C4_6  and  N4_11
ROOT
HETATM    1  C1  UNL     1      55.835  95.169   5.582  1.00  0.00     0.014 C
HETATM    2  C2  UNL     1      55.750  95.177   6.787  1.00  0.00    -0.097 C
HETATM    3  C3  UNL     1      55.635  95.163   8.262  1.00  0.00     0.231 C
ENDROOT
BRANCH   3   4
HETATM    4  N1  UNL     1      54.959  93.997   8.740  1.00  0.00    -0.215 N
HETATM    5  C4  UNL     1      54.458  93.007   7.860  1.00  0.00     0.683 C
HETATM    6  N2  UNL     1      55.264  92.200   7.282  1.00  0.00    -0.126 N
HETATM    7  N4  UNL     1      53.071  92.893   7.608  1.00  0.00    -0.230 N
HETATM    8  C5  UNL     1      54.918  91.186   6.402  1.00  0.00     0.196 C
ATOM      9  H2  UNL     1      56.257  92.312   7.488  1.00  0.00     0.197 HD
HETATM   10  N3  UNL     1      54.650  90.338   5.667  1.00  0.00    -0.171 NA
HETATM   11  C6  UNL     1      52.334  91.658   7.655  1.00  0.00     0.165 C
ATOM     12  H4  UNL     1      52.558  93.745   7.377  1.00  0.00     0.177 HD
ATOM     13  H1  UNL     1      54.833  93.875   9.744  1.00  0.00     0.178 HD
ENDBRANCH   3   4
TORSDOF 1
ENDMDL