MODEL 3
REMARK VINA RESULT: -1.062638063      7.881      8.699
REMARK  0 active torsions:
REMARK  status: ('A' for Active; 'I' for Inactive)
REMARK       I    between atoms: N2_5  and  C4_6
ROOT
HETATM    1  C1  UNL     1      62.918  92.146   6.264  1.00  0.00     0.156 C
HETATM    2  N1  UNL     1      62.456  92.613   7.566  1.00  0.00    -0.356 N
HETATM    3  C2  UNL     1      61.840  93.790   7.783  1.00  0.00     0.109 A
HETATM    4  C3  UNL     1      61.541  93.907   9.129  1.00  0.00     0.117 A
HETATM    5  N2  UNL     1      61.984  92.786   9.725  1.00  0.00    -0.291 N
HETATM    6  C4  UNL     1      61.892  92.472  11.105  1.00  0.00     0.193 C
HETATM    7  N3  UNL     1      62.919  92.362  11.872  1.00  0.00    -0.373 N
ATOM      8  H31 UNL     1      62.853  92.137  12.865  1.00  0.00     0.158 HD
ATOM      9  H32 UNL     1      63.842  92.509  11.464  1.00  0.00     0.158 HD
HETATM   10  N4  UNL     1      60.607  92.267  11.672  1.00  0.00    -0.063 NA
HETATM   11  C5  UNL     1      62.538  92.009   8.759  1.00  0.00     0.192 A
ENDROOT
TORSDOF 0
ENDMDL