MODEL 5
REMARK VINA RESULT: 2.151858002      2.279      3.553
REMARK  2 active torsions:
REMARK  status: ('A' for Active; 'I' for Inactive)
REMARK       I    between atoms: N1_4  and  C4_6
REMARK       I    between atoms: C4_6  and  N3_11
REMARK    1  A    between atoms: N2_7  and  C5_9
REMARK    2  A    between atoms: N3_11  and  N4_13
ROOT
HETATM    1  C1  UNL     1      57.035  95.957   2.453  1.00  0.00     0.018 C
HETATM    2  C2  UNL     1      57.960  96.450   3.064  1.00  0.00    -0.072 C
HETATM    3  C3  UNL     1      59.063  97.027   3.767  1.00  0.00     0.170 C
HETATM    4  N1  UNL     1      59.646  98.099   3.358  1.00  0.00    -0.193 N
ATOM      5  H1  UNL     1      59.319  98.558   2.508  1.00  0.00     0.184 HD
HETATM    6  C4  UNL     1      60.729  98.643   4.070  1.00  0.00     0.692 C
HETATM    7  N2  UNL     1      60.999  99.881   4.181  1.00  0.00    -0.225 N
ATOM      8  H2  UNL     1      61.823 100.120   4.734  1.00  0.00     0.177 HD
HETATM    9  N3  UNL     1      61.595  97.714   4.723  1.00  0.00    -0.139 N
ATOM     10  H3  UNL     1      61.847  96.825   4.290  1.00  0.00     0.205 HD
ENDROOT
BRANCH   7  11
HETATM   11  C5  UNL     1      60.271 100.970   3.614  1.00  0.00     0.134 C
HETATM   12  C6  UNL     1      58.771 100.785   3.693  1.00  0.00     0.027 C
ENDBRANCH   7  11
BRANCH   9  13
HETATM   13  N4  UNL     1      62.083  98.076   5.977  1.00  0.00    -0.331 N
ATOM     14  H42 UNL     1      62.662  98.908   6.089  1.00  0.00     0.177 HD
ATOM     15  H41 UNL     1      61.833  97.475   6.763  1.00  0.00     0.177 HD
ENDBRANCH   9  13
TORSDOF 2
ENDMDL