MODEL 1
REMARK VINA RESULT: -4.738823926      0.000      0.000
REMARK  5 active torsions:
REMARK  status: ('A' for Active; 'I' for Inactive)
REMARK    1  A    between atoms: N1_2  and  S1_3
REMARK    2  A    between atoms: S1_3  and  N2_4
REMARK    3  A    between atoms: S1_3  and  N3_7
REMARK    4  A    between atoms: N3_7  and  O1_8
REMARK    5  A    between atoms: N4_10  and  O2_12
ROOT
HETATM    1  N3  UNL     1      55.035  93.695   7.098  1.00  0.00    -0.090 N
HETATM    2  N4  UNL     1      54.898  94.041   8.313  1.00  0.00    -0.175 N
ATOM      3  H4  UNL     1      54.401  93.413   8.945  1.00  0.00     0.219 HD
ENDROOT
BRANCH   1   4
HETATM    4  S1  UNL     1      54.373  92.204   6.635  1.00  0.00     0.108 SA
BRANCH   4   5
HETATM    5  N1  UNL     1      53.535  91.543   7.795  1.00  0.00    -0.154 NA
HETATM    6  C1  UNL     1      52.227  92.148   7.926  1.00  0.00     0.148 C
ENDBRANCH   4   5
BRANCH   4   7
HETATM    7  N2  UNL     1      55.417  91.133   6.254  1.00  0.00    -0.351 NA
ATOM      8  H22 UNL     1      55.130  90.175   6.454  1.00  0.00     0.166 HD
ATOM      9  H21 UNL     1      55.584  91.283   5.260  1.00  0.00     0.166 HD
ENDBRANCH   4   7
ENDBRANCH   1   4
BRANCH   1  10
HETATM   10  O1  UNL     1      55.685  94.465   6.164  1.00  0.00    -0.259 OA
ATOM     11  H1  UNL     1      56.407  94.093   5.673  1.00  0.00     0.247 HD
ENDBRANCH   1  10
BRANCH   2  12
HETATM   12  O2  UNL     1      55.387  95.221   8.810  1.00  0.00    -0.272 OA
ATOM     13  H2  UNL     1      54.829  95.955   9.039  1.00  0.00     0.246 HD
ENDBRANCH   2  12
TORSDOF 5
ENDMDL