MODEL 2
REMARK VINA RESULT: -2.958432539      1.456      1.456
REMARK  2 active torsions:
REMARK  status: ('A' for Active; 'I' for Inactive)
REMARK    1  A    between atoms: N1_3  and  N2_5
REMARK    2  A    between atoms: N2_5  and  C4_7
ROOT
HETATM    1  C1  UNL     1      52.057  92.181   7.929  1.00  0.00     0.038 C
HETATM    2  C2  UNL     1      53.226  92.187   7.611  1.00  0.00     0.017 C
HETATM    3  N1  UNL     1      54.588  92.176   7.243  1.00  0.00    -0.253 N
HETATM    4  C3  UNL     1      55.049  91.320   6.160  1.00  0.00     0.189 C
ENDROOT
BRANCH   3   5
HETATM    5  N2  UNL     1      55.534  92.967   7.888  1.00  0.00    -0.269 N
ATOM      6  H2  UNL     1      56.244  92.550   8.490  1.00  0.00     0.190 HD
BRANCH   5   7
HETATM    7  C4  UNL     1      55.481  94.366   7.685  1.00  0.00     0.200 C
HETATM    8  N3  UNL     1      55.331  95.173   8.835  1.00  0.00    -0.068 NA
HETATM    9  S1  UNL     1      55.592  94.973   6.191  1.00  0.00    -0.043 SA
ENDBRANCH   5   7
ENDBRANCH   3   5
TORSDOF 2
ENDMDL