MODEL 2
REMARK VINA RESULT: -0.931271982      1.774      2.329
REMARK  3 active torsions:
REMARK  status: ('A' for Active; 'I' for Inactive)
REMARK    1  A    between atoms: N1_2  and  C2_4
REMARK    2  A    between atoms: C2_4  and  N2_6
REMARK    3  A    between atoms: N2_6  and  N3_8
ROOT
HETATM    1  C2  UNL     1      54.482  92.103   7.219  1.00  0.00     0.185 C
HETATM    2  S1  UNL     1      54.957  91.174   5.970  1.00  0.00    -0.040 SA
ENDROOT
BRANCH   1   3
HETATM    3  N1  UNL     1      53.115  92.147   7.586  1.00  0.00    -0.370 N
HETATM    4  C1  UNL     1      52.446  93.373   7.954  1.00  0.00     0.148 C
ATOM      5  H1  UNL     1      52.581  91.278   7.590  1.00  0.00     0.161 HD
ENDBRANCH   1   3
BRANCH   1   6
HETATM    6  N2  UNL     1      55.469  92.845   7.906  1.00  0.00    -0.279 N
ATOM      7  H2  UNL     1      56.010  92.358   8.620  1.00  0.00     0.189 HD
BRANCH   6   8
HETATM    8  N3  UNL     1      55.759  94.174   7.688  1.00  0.00    -0.334 N
HETATM    9  C3  UNL     1      55.420  94.662   6.396  1.00  0.00     0.170 C
HETATM   10  C4  UNL     1      55.538  95.048   8.772  1.00  0.00     0.170 C
ENDBRANCH   6   8
ENDBRANCH   1   6
TORSDOF 3
ENDMDL