MODEL 4
REMARK VINA RESULT: -1.632206458      1.832      3.312
REMARK  3 active torsions:
REMARK  status: ('A' for Active; 'I' for Inactive)
REMARK    1  A    between atoms: N1_2  and  C2_4
REMARK    2  A    between atoms: C2_4  and  N2_6
REMARK    3  A    between atoms: N2_6  and  C3_8
ROOT
HETATM    1  C3  UNL     1      53.242  91.945   7.460  1.00  0.00     0.246 C
HETATM    2  C4  UNL     1      54.381  91.465   6.685  1.00  0.00     0.078 C
HETATM    3  N3  UNL     1      55.285  91.091   6.094  1.00  0.00    -0.196 NA
ENDROOT
BRANCH   1   4
HETATM    4  N2  UNL     1      53.473  93.301   7.855  1.00  0.00    -0.355 N
ATOM      5  H2  UNL     1      52.756  93.806   8.376  1.00  0.00     0.162 HD
BRANCH   4   6
HETATM    6  C2  UNL     1      54.684  93.941   7.529  1.00  0.00     0.167 C
HETATM    7  S1  UNL     1      54.677  95.082   6.359  1.00  0.00    -0.041 SA
BRANCH   6   8
HETATM    8  N1  UNL     1      55.891  93.594   8.215  1.00  0.00    -0.372 N
HETATM    9  C1  UNL     1      57.166  94.087   7.790  1.00  0.00     0.148 C
ATOM     10  H1  UNL     1      55.841  92.979   9.027  1.00  0.00     0.161 HD
ENDBRANCH   6   8
ENDBRANCH   4   6
ENDBRANCH   1   4
TORSDOF 3
ENDMDL