MODEL 3
REMARK VINA RESULT: 0.356251026      6.907      7.963
REMARK  1 active torsions:
REMARK  status: ('A' for Active; 'I' for Inactive)
REMARK    1  A    between atoms: O1_3  and  N1_4
REMARK       I    between atoms: N1_4  and  C3_6
REMARK       I    between atoms: C3_6  and  N3_10
ROOT
HETATM    1  C1  UNL     1      58.179  96.398   3.022  1.00  0.00     0.047 C
HETATM    2  C2  UNL     1      59.146  97.128   3.157  1.00  0.00     0.074 C
HETATM    3  O1  UNL     1      60.227  97.954   3.286  1.00  0.00    -0.172 OA
ENDROOT
BRANCH   3   4
HETATM    4  N1  UNL     1      60.241  98.926   4.249  1.00  0.00    -0.082 N
HETATM    5  C3  UNL     1      60.133 100.292   3.905  1.00  0.00     0.694 C
HETATM    6  N2  UNL     1      61.061 101.166   4.089  1.00  0.00    -0.229 N
HETATM    7  N3  UNL     1      58.921 100.740   3.318  1.00  0.00    -0.229 N
HETATM    8  C4  UNL     1      62.319 100.818   4.673  1.00  0.00     0.165 C
ATOM      9  H2  UNL     1      60.894 102.133   3.810  1.00  0.00     0.177 HD
HETATM   10  C5  UNL     1      57.686 100.557   4.075  1.00  0.00     0.165 C
ATOM     11  H3  UNL     1      58.913 101.177   2.396  1.00  0.00     0.177 HD
ATOM     12  H1  UNL     1      60.330  98.661   5.229  1.00  0.00     0.214 HD
ENDBRANCH   3   4
TORSDOF 1
ENDMDL