MODEL 5
REMARK VINA RESULT: -2.963611941      1.417      2.094
REMARK  4 active torsions:
REMARK  status: ('A' for Active; 'I' for Inactive)
REMARK    1  A    between atoms: C2_2  and  N1_4
REMARK    2  A    between atoms: N1_4  and  S1_6
REMARK    3  A    between atoms: S1_6  and  N2_7
REMARK    4  A    between atoms: S1_6  and  N3_10
ROOT
HETATM    1  S1  UNL     1      55.754  94.235   7.329  1.00  0.00     0.186 S
HETATM    2  O1  UNL     1      57.226  94.168   7.574  1.00  0.00    -0.207 OA
ENDROOT
BRANCH   1   3
HETATM    3  N1  UNL     1      55.362  92.920   6.595  1.00  0.00    -0.316 N
ATOM      4  H1  UNL     1      55.713  92.774   5.648  1.00  0.00     0.172 HD
BRANCH   3   5
HETATM    5  C2  UNL     1      54.545  91.914   7.168  1.00  0.00     0.085 C
HETATM    6  C1  UNL     1      54.525  90.747   6.170  1.00  0.00     0.032 C
HETATM    7  C3  UNL     1      53.143  92.345   7.459  1.00  0.00     0.032 C
ENDBRANCH   3   5
ENDBRANCH   1   3
BRANCH   1   8
HETATM    8  N2  UNL     1      54.834  94.507   8.733  1.00  0.00    -0.329 N
ATOM      9  H22 UNL     1      54.809  93.849   9.512  1.00  0.00     0.168 HD
ATOM     10  H21 UNL     1      54.321  95.389   8.706  1.00  0.00     0.168 HD
ENDBRANCH   1   8
BRANCH   1  11
HETATM   11  N3  UNL     1      55.471  95.533   6.214  1.00  0.00    -0.329 N
ATOM     12  H32 UNL     1      56.173  96.188   5.869  1.00  0.00     0.168 HD
ATOM     13  H31 UNL     1      54.478  95.508   5.980  1.00  0.00     0.168 HD
ENDBRANCH   1  11
TORSDOF 4
ENDMDL