MODEL 5
REMARK VINA RESULT: 1.065167910      7.947      9.267
REMARK  2 active torsions:
REMARK  status: ('A' for Active; 'I' for Inactive)
REMARK    1  A    between atoms: C6_8  and  C7_9
REMARK    2  A    between atoms: C7_9  and  N3_10
ROOT
HETATM    1  C1  UNL     1      59.911  96.918   3.548  1.00  0.00     0.155 C
HETATM    2  N1  UNL     1      59.829  98.346   3.780  1.00  0.00    -0.362 N
HETATM    3  C2  UNL     1      58.633  98.974   3.513  1.00  0.00     0.090 A
HETATM    4  C3  UNL     1      58.511 100.378   3.515  1.00  0.00     0.019 A
HETATM    5  C4  UNL     1      59.610 101.143   3.802  1.00  0.00     0.030 A
HETATM    6  C5  UNL     1      60.782 100.491   4.066  1.00  0.00     0.070 A
HETATM    7  N2  UNL     1      61.970 101.210   4.352  1.00  0.00    -0.100 NA
HETATM    8  C6  UNL     1      60.879  99.124   4.050  1.00  0.00     0.060 A
ENDROOT
BRANCH   8   9
HETATM    9  C7  UNL     1      62.226  98.493   4.386  1.00  0.00     0.288 C
BRANCH   9  10
HETATM   10  N3  UNL     1      61.952  98.022   5.807  1.00  0.00    -0.074 N
ATOM     11  H33 UNL     1      62.701  97.490   6.251  1.00  0.00     0.274 HD
ATOM     12  H32 UNL     1      61.936  98.751   6.521  1.00  0.00     0.274 HD
ATOM     13  H31 UNL     1      61.076  97.521   5.664  1.00  0.00     0.274 HD
ENDBRANCH   9  10
ENDBRANCH   8   9
TORSDOF 2
ENDMDL