MODEL 3
REMARK VINA RESULT: -9.483885207      2.861      6.758
REMARK  4 active torsions:
REMARK  status: ('A' for Active; 'I' for Inactive)
REMARK    1  A    between atoms: N1_9  and  O4_11
REMARK    2  A    between atoms: C10_19  and  O7_20
REMARK    3  A    between atoms: N3_37  and  O12_39
REMARK    4  A    between atoms: C21_43  and  O14_44
ROOT
HETATM    1  C1  UNL     1       6.027  -0.812   8.717  1.00  0.00     0.043 C
HETATM    2  C2  UNL     1       6.047  -1.556   7.372  1.00  0.00     0.160 C
HETATM    3  O1  UNL     1       4.834  -1.945   6.901  1.00  0.00    -0.311 OA
HETATM    4  C3  UNL     1       3.614  -1.464   6.679  1.00  0.00     0.297 C
HETATM    5  O2  UNL     1       2.636  -1.780   7.473  1.00  0.00    -0.262 OA
HETATM    6  C4  UNL     1       3.189  -0.561   5.580  1.00  0.00     0.305 C
HETATM    7  O3  UNL     1       2.453  -1.219   4.578  1.00  0.00    -0.314 OA
HETATM    8  C5  UNL     1       2.021  -2.506   4.521  1.00  0.00     0.139 C
HETATM    9  N1  UNL     1       0.817  -2.950   4.606  1.00  0.00    -0.251 N
ATOM     10  H1  UNL     1       0.696  -3.961   4.539  1.00  0.00     0.196 HD
HETATM   11  C6  UNL     1       3.051  -3.572   4.333  1.00  0.00     0.096 C
HETATM   12  C7  UNL     1       2.812  -4.737   5.227  1.00  0.00     0.119 C
HETATM   13  C8  UNL     1       3.958  -5.685   5.158  1.00  0.00     0.259 C
HETATM   14  O5  UNL     1       3.662  -6.889   4.840  1.00  0.00    -0.265 OA
HETATM   15  O6  UNL     1       5.218  -5.236   5.427  1.00  0.00    -0.318 OA
HETATM   16  C9  UNL     1       5.742  -4.772   6.645  1.00  0.00     0.229 C
HETATM   17  C10 UNL     1       6.866  -3.773   6.477  1.00  0.00     0.188 C
HETATM   18  C11 UNL     1       8.152  -4.514   6.535  1.00  0.00     0.257 C
HETATM   19  O8  UNL     1       8.137  -5.552   7.293  1.00  0.00    -0.270 OA
HETATM   20  N2  UNL     1       9.336  -4.194   5.864  1.00  0.00    -0.358 N
ATOM     21  H2  UNL     1      10.168  -4.105   6.447  1.00  0.00     0.162 HD
HETATM   22  C12 UNL     1       9.530  -3.972   4.451  1.00  0.00     0.130 C
HETATM   23  C13 UNL     1      10.432  -2.752   4.261  1.00  0.00     0.098 C
HETATM   24  C14 UNL     1       9.626  -1.730   3.544  1.00  0.00     0.129 C
HETATM   25  O9  UNL     1       9.304  -0.730   4.154  1.00  0.00    -0.298 OA
HETATM   26  C15 UNL     1       9.239  -1.932   2.147  1.00  0.00     0.088 C
HETATM   27  C16 UNL     1       7.772  -1.790   1.859  1.00  0.00     0.118 C
HETATM   28  C17 UNL     1       7.296  -0.386   1.837  1.00  0.00     0.259 C
HETATM   29  O10 UNL     1       8.153   0.529   1.827  1.00  0.00    -0.265 OA
HETATM   30  O11 UNL     1       5.939  -0.150   1.829  1.00  0.00    -0.315 OA
HETATM   31  C18 UNL     1       5.024  -0.598   2.827  1.00  0.00     0.241 C
HETATM   32  C19 UNL     1       4.657   0.524   3.734  1.00  0.00     0.105 C
HETATM   33  N3  UNL     1       4.778   1.711   3.191  1.00  0.00    -0.268 N
ATOM     34  H3  UNL     1       5.101   1.754   2.225  1.00  0.00     0.194 HD
HETATM   35  C20 UNL     1       4.207   0.371   5.102  1.00  0.00     0.214 C
HETATM   36  O13 UNL     1       4.766   1.136   5.951  1.00  0.00    -0.288 OA
HETATM   37  C21 UNL     1       6.914  -2.778   7.645  1.00  0.00     0.193 C
ENDROOT
BRANCH   9  38
HETATM   38  O4  UNL     1      -0.311  -2.211   4.775  1.00  0.00    -0.288 OA
ATOM     39  H4  UNL     1      -1.207  -2.515   4.689  1.00  0.00     0.244 HD
ENDBRANCH   9  38
BRANCH  33  40
HETATM   40  O12 UNL     1       4.508   2.881   3.808  1.00  0.00    -0.290 OA
ATOM     41  H12 UNL     1       5.086   3.635   3.830  1.00  0.00     0.244 HD
ENDBRANCH  33  40
BRANCH  37  42
HETATM   42  O14 UNL     1       6.589  -3.411   8.820  1.00  0.00    -0.389 OA
ATOM     43  H14 UNL     1       6.795  -2.892   9.588  1.00  0.00     0.210 HD
ENDBRANCH  37  42
BRANCH  17  44
HETATM   44  O7  UNL     1       6.768  -3.071   5.290  1.00  0.00    -0.376 OA
ATOM     45  H7  UNL     1       7.449  -3.311   4.673  1.00  0.00     0.211 HD
ENDBRANCH  17  44
TORSDOF 4
ENDMDL