MODEL 5
REMARK VINA RESULT: -10.442142923      4.258      6.921
REMARK  2 active torsions:
REMARK  status: ('A' for Active; 'I' for Inactive)
REMARK    1  A    between atoms: N5_26  and  O4_28
REMARK    2  A    between atoms: C17_32  and  O5_33
ROOT
HETATM    1  N1  UNL     1      12.102   4.143  -4.216  1.00  0.00    -0.188 NA
HETATM    2  C1  UNL     1      11.677   3.707  -3.242  1.00  0.00     0.145 C
HETATM    3  C2  UNL     1      11.131   3.182  -2.014  1.00  0.00     0.233 A
HETATM    4  N2  UNL     1      11.082   1.874  -1.693  1.00  0.00    -0.322 N
ATOM      5  H2  UNL     1      11.419   1.099  -2.264  1.00  0.00     0.169 HD
HETATM    6  C3  UNL     1      10.509   1.781  -0.484  1.00  0.00     0.116 A
HETATM    7  C4  UNL     1      10.204   3.058  -0.066  1.00  0.00     0.180 A
HETATM    8  N3  UNL     1       9.619   3.063   1.147  1.00  0.00    -0.332 N
ATOM      9  H3  UNL     1       9.295   3.866   1.687  1.00  0.00     0.168 HD
HETATM   10  C5  UNL     1       9.561   1.771   1.479  1.00  0.00     0.075 A
HETATM   11  C6  UNL     1       9.064   1.216   2.555  1.00  0.00     0.041 A
HETATM   12  C7  UNL     1       9.170  -0.282   2.557  1.00  0.00     0.024 A
HETATM   13  C8  UNL     1       9.617  -1.058   1.764  1.00  0.00     0.103 A
HETATM   14  N4  UNL     1      10.144  -0.426   0.605  1.00  0.00    -0.361 N
ATOM     15  H4  UNL     1      10.553  -0.985  -0.144  1.00  0.00     0.165 HD
HETATM   16  C9  UNL     1      10.099   0.915   0.507  1.00  0.00     0.091 A
HETATM   17  C10 UNL     1       8.492  -0.857   3.662  1.00  0.00     0.101 C
HETATM   18  C11 UNL     1       7.284  -0.666   2.950  1.00  0.00     0.248 C
HETATM   19  O1  UNL     1       6.851  -0.291   1.820  1.00  0.00    -0.282 OA
HETATM   20  C12 UNL     1       6.341  -0.908   4.056  1.00  0.00     0.242 C
HETATM   21  O2  UNL     1       5.511  -1.676   4.218  1.00  0.00    -0.285 OA
HETATM   22  C13 UNL     1       6.804   0.315   5.097  1.00  0.00     0.208 C
HETATM   23  O3  UNL     1       5.631   0.420   5.692  1.00  0.00    -0.359 OA
HETATM   24  C14 UNL     1       5.261   1.277   6.603  1.00  0.00     0.236 C
HETATM   25  C15 UNL     1       5.114   2.618   5.973  1.00  0.00     0.092 C
HETATM   26  N5  UNL     1       4.076   3.345   6.034  1.00  0.00    -0.265 N
ATOM     27  H5  UNL     1       3.264   3.004   6.551  1.00  0.00     0.194 HD
HETATM   28  S1  UNL     1       6.622   3.043   5.121  1.00  0.00    -0.099 SA
HETATM   29  C16 UNL     1       7.144   1.447   4.248  1.00  0.00     0.162 C
HETATM   30  C17 UNL     1       8.318   1.983   3.520  1.00  0.00     0.183 C
HETATM   31  N6  UNL     1       9.330   2.633   4.339  1.00  0.00    -0.305 N
ATOM     32  H6  UNL     1       9.642   3.524   3.953  1.00  0.00     0.167 HD
HETATM   33  C18 UNL     1       9.977   2.299   5.556  1.00  0.00     0.325 C
HETATM   34  O6  UNL     1      10.826   3.130   5.955  1.00  0.00    -0.247 OA
HETATM   35  N7  UNL     1       9.834   1.176   6.418  1.00  0.00    -0.275 N
ATOM     36  H7  UNL     1      10.667   0.992   6.978  1.00  0.00     0.173 HD
HETATM   37  C19 UNL     1       8.790   0.264   6.666  1.00  0.00     0.287 C
HETATM   38  O7  UNL     1       8.787   0.005   7.925  1.00  0.00    -0.268 OA
HETATM   39  C20 UNL     1       7.790  -0.401   5.873  1.00  0.00     0.324 C
HETATM   40  N8  UNL     1       7.373  -1.590   6.549  1.00  0.00    -0.020 N
ATOM     41  H81 UNL     1       6.475  -2.024   6.334  1.00  0.00     0.282 HD
ATOM     42  H82 UNL     1       7.109  -1.563   7.534  1.00  0.00     0.282 HD
HETATM   43  C21 UNL     1       8.628  -2.218   6.127  1.00  0.00     0.364 C
HETATM   44  N9  UNL     1       8.486  -1.397   4.933  1.00  0.00    -0.309 N
HETATM   45  O8  UNL     1      10.603   3.846  -1.028  1.00  0.00    -0.265 OA
ENDROOT
BRANCH  30  46
HETATM   46  O5  UNL     1       7.723   3.152   2.917  1.00  0.00    -0.365 OA
ATOM     47  H5  UNL     1       8.376   3.817   2.733  1.00  0.00     0.213 HD
ENDBRANCH  30  46
BRANCH  26  48
HETATM   48  O4  UNL     1       4.010   4.559   5.435  1.00  0.00    -0.289 OA
ATOM     49  H4  UNL     1       4.383   5.338   5.830  1.00  0.00     0.244 HD
ENDBRANCH  26  48
TORSDOF 2
ENDMDL