MODEL 1
REMARK VINA RESULT: -10.168742280      0.000      0.000
REMARK  2 active torsions:
REMARK  status: ('A' for Active; 'I' for Inactive)
REMARK    1  A    between atoms: N1_2  and  C2_4
REMARK       I    between atoms: N6_29  and  C14_30
REMARK    2  A    between atoms: C14_30  and  O5_32
ROOT
HETATM    1  C2  UNL     1       8.611  -5.713   6.827  1.00  0.00     0.214 C
HETATM    2  N2  UNL     1       9.681  -5.622   6.114  1.00  0.00    -0.356 N
ATOM      3  H2  UNL     1      10.507  -5.281   6.607  1.00  0.00     0.163 HD
HETATM    4  C3  UNL     1       9.877  -5.927   4.741  1.00  0.00     0.132 C
HETATM    5  C4  UNL     1      10.522  -4.687   4.105  1.00  0.00     0.123 C
HETATM    6  C5  UNL     1      11.865  -4.444   4.683  1.00  0.00     0.227 C
HETATM    7  O1  UNL     1      12.865  -4.849   4.028  1.00  0.00    -0.273 OA
HETATM    8  N3  UNL     1      12.102  -3.789   5.921  1.00  0.00    -0.273 N
ATOM      9  H3  UNL     1      12.882  -4.125   6.487  1.00  0.00     0.174 HD
HETATM   10  C6  UNL     1      11.344  -2.708   6.432  1.00  0.00     0.367 C
HETATM   11  O2  UNL     1      11.217  -2.616   7.689  1.00  0.00    -0.238 OA
HETATM   12  O3  UNL     1      10.782  -1.811   5.571  1.00  0.00    -0.302 OA
HETATM   13  C7  UNL     1      11.415  -1.142   4.527  1.00  0.00     0.208 C
HETATM   14  C8  UNL     1      10.420  -0.207   3.875  1.00  0.00     0.259 C
HETATM   15  N4  UNL     1       9.048  -0.637   4.036  1.00  0.00    -0.072 N
ATOM     16  H41 UNL     1       8.992  -1.466   4.627  1.00  0.00     0.277 HD
ATOM     17  H42 UNL     1       8.682  -1.027   3.168  1.00  0.00     0.277 HD
HETATM   18  C9  UNL     1       8.186   0.416   4.537  1.00  0.00     0.259 C
HETATM   19  C10 UNL     1       7.166   0.858   3.542  1.00  0.00     0.260 C
HETATM   20  N5  UNL     1       6.772  -0.173   2.611  1.00  0.00    -0.070 N
ATOM     21  H51 UNL     1       7.526  -0.396   1.961  1.00  0.00     0.277 HD
ATOM     22  H52 UNL     1       6.082   0.172   1.944  1.00  0.00     0.277 HD
HETATM   23  C11 UNL     1       6.292  -1.372   3.303  1.00  0.00     0.274 C
HETATM   24  C12 UNL     1       4.808  -1.507   3.171  1.00  0.00     0.016 A
HETATM   25  C13 UNL     1       4.254  -0.678   2.183  1.00  0.00     0.118 A
HETATM   26  N6  UNL     1       2.928  -0.697   2.002  1.00  0.00    -0.218 N
HETATM   27  C14 UNL     1       2.326   0.131   1.007  1.00  0.00     0.374 C
HETATM   28  O4  UNL     1       3.057   0.883   0.298  1.00  0.00    -0.237 OA
HETATM   29  C16 UNL     1       2.140  -1.495   2.753  1.00  0.00     0.356 A
HETATM   30  O6  UNL     1       0.904  -1.500   2.570  1.00  0.00    -0.245 OA
HETATM   31  N7  UNL     1       2.642  -2.312   3.718  1.00  0.00    -0.091 N
HETATM   32  C17 UNL     1       2.081  -3.165   4.581  1.00  0.00     0.689 A
HETATM   33  N8  UNL     1       0.826  -3.434   4.691  1.00  0.00    -0.234 N
ATOM     34  H81 UNL     1       0.398  -4.086   5.349  1.00  0.00     0.174 HD
ATOM     35  H82 UNL     1       0.065  -3.038   4.139  1.00  0.00     0.174 HD
HETATM   36  N9  UNL     1       3.089  -3.689   5.312  1.00  0.00    -0.168 N
ATOM     37  H9  UNL     1       2.973  -4.376   6.057  1.00  0.00     0.186 HD
HETATM   38  C18 UNL     1       4.276  -3.170   4.913  1.00  0.00     0.186 A
HETATM   39  C19 UNL     1       3.984  -2.286   3.893  1.00  0.00     0.122 A
HETATM   40  O7  UNL     1       5.558  -3.393   5.346  1.00  0.00    -0.332 OA
HETATM   41  C20 UNL     1       6.531  -4.330   4.924  1.00  0.00     0.204 C
HETATM   42  C21 UNL     1       6.385  -5.655   5.630  1.00  0.00     0.205 C
HETATM   43  O8  UNL     1       7.465  -6.147   6.290  1.00  0.00    -0.320 OA
ENDROOT
BRANCH  27  44
HETATM   44  O5  UNL     1       0.977   0.163   0.765  1.00  0.00    -0.308 OA
HETATM   45  C15 UNL     1       0.283   1.398   0.608  1.00  0.00     0.215 C
ENDBRANCH  27  44
BRANCH   1  46
HETATM   46  N1  UNL     1       8.812  -5.303   8.213  1.00  0.00    -0.361 N
HETATM   47  C1  UNL     1      10.003  -5.728   8.894  1.00  0.00     0.150 C
ATOM     48  H1  UNL     1       8.118  -4.726   8.690  1.00  0.00     0.162 HD
ENDBRANCH   1  46
TORSDOF 2
ENDMDL