MODEL 5
REMARK VINA RESULT: -8.684147509      2.494      2.726
REMARK  3 active torsions:
REMARK  status: ('A' for Active; 'I' for Inactive)
REMARK    1  A    between atoms: O1_2  and  C2_3
REMARK    2  A    between atoms: C2_3  and  C3_5
REMARK    3  A    between atoms: C12_21  and  O7_22
ROOT
HETATM    1  C3  UNL     1       2.327  -0.580   2.629  1.00  0.00     0.150 C
HETATM    2  C4  UNL     1       3.352  -0.287   3.434  1.00  0.00     0.174 C
HETATM    3  O3  UNL     1       3.546  -1.040   4.594  1.00  0.00    -0.302 OA
HETATM    4  C5  UNL     1       2.426  -1.546   5.265  1.00  0.00     0.369 C
HETATM    5  O4  UNL     1       2.611  -2.131   6.481  1.00  0.00    -0.280 OA
HETATM    6  C6  UNL     1       3.537  -2.921   7.056  1.00  0.00     0.261 C
HETATM    7  O5  UNL     1       4.353  -2.527   7.933  1.00  0.00    -0.265 OA
HETATM    8  C7  UNL     1       3.646  -4.347   6.671  1.00  0.00     0.112 C
HETATM    9  C8  UNL     1       4.499  -5.059   7.690  1.00  0.00     0.020 C
HETATM   10  C9  UNL     1       4.911  -6.437   7.314  1.00  0.00     0.075 C
HETATM   11  S1  UNL     1       6.691  -6.671   7.149  1.00  0.00    -0.160 SA
HETATM   12  C10 UNL     1       7.485  -7.001   8.747  1.00  0.00     0.176 C
HETATM   13  C11 UNL     1       8.965  -6.763   8.661  1.00  0.00     0.228 C
HETATM   14  O6  UNL     1       9.684  -7.788   8.533  1.00  0.00    -0.273 OA
HETATM   15  N1  UNL     1       9.513  -5.457   8.723  1.00  0.00    -0.334 N
ATOM     16  H1  UNL     1      10.494  -5.357   8.986  1.00  0.00     0.165 HD
HETATM   17  C12 UNL     1       8.756  -4.260   8.432  1.00  0.00     0.221 C
HETATM   18  C13 UNL     1       9.656  -3.074   8.297  1.00  0.00     0.073 C
HETATM   19  C14 UNL     1       9.213  -2.157   7.168  1.00  0.00     0.142 C
HETATM   20  N2  UNL     1       7.876  -2.497   6.736  1.00  0.00    -0.224 N
ATOM     21  H2  UNL     1       7.189  -2.693   7.464  1.00  0.00     0.177 HD
HETATM   22  C15 UNL     1       7.432  -2.582   5.382  1.00  0.00     0.707 A
HETATM   23  N3  UNL     1       6.907  -3.661   4.760  1.00  0.00    -0.117 N
ATOM     24  H3  UNL     1       6.752  -4.584   5.164  1.00  0.00     0.206 HD
HETATM   25  N4  UNL     1       6.636  -3.279   3.527  1.00  0.00    -0.116 N
ATOM     26  H4  UNL     1       6.229  -3.877   2.809  1.00  0.00     0.206 HD
HETATM   27  C16 UNL     1       6.972  -1.995   3.351  1.00  0.00     0.727 A
HETATM   28  N5  UNL     1       7.471  -1.566   4.520  1.00  0.00    -0.018 N
ATOM     29  H5  UNL     1       7.819  -0.627   4.714  1.00  0.00     0.203 HD
HETATM   30  N6  UNL     1       6.882  -1.132   2.218  1.00  0.00    -0.116 N
ATOM     31  H6  UNL     1       7.342  -1.482   1.377  1.00  0.00     0.207 HD
HETATM   32  N7  UNL     1       6.345  -0.044   2.092  1.00  0.00    -0.225 N
ATOM     33  H7  UNL     1       6.452   0.334   1.151  1.00  0.00     0.209 HD
HETATM   34  N8  UNL     1       5.632   0.791   2.908  1.00  0.00    -0.249 N
ATOM     35  H8  UNL     1       6.171   1.464   3.453  1.00  0.00     0.192 HD
HETATM   36  C17 UNL     1       4.229   0.821   3.075  1.00  0.00     0.297 C
HETATM   37  O8  UNL     1       3.564   1.922   2.909  1.00  0.00    -0.264 OA
HETATM   38  C18 UNL     1       1.671  -2.335   4.253  1.00  0.00     0.278 C
HETATM   39  O9  UNL     1       1.262  -3.496   4.408  1.00  0.00    -0.268 OA
HETATM   40  N9  UNL     1       1.432  -1.651   3.034  1.00  0.00    -0.315 N
ATOM     41  H9  UNL     1       0.639  -1.909   2.447  1.00  0.00     0.169 HD
ENDROOT
BRANCH   1  42
HETATM   42  C2  UNL     1       2.024   0.108   1.400  1.00  0.00     0.312 C
HETATM   43  O2  UNL     1       2.581  -0.029   0.314  1.00  0.00    -0.258 OA
BRANCH  42  44
HETATM   44  O1  UNL     1       0.978   1.061   1.386  1.00  0.00    -0.321 OA
HETATM   45  C1  UNL     1      -0.339   0.724   1.033  1.00  0.00     0.213 C
ENDBRANCH  42  44
ENDBRANCH   1  42
BRANCH  17  46
HETATM   46  O7  UNL     1       7.873  -4.036   9.485  1.00  0.00    -0.377 OA
ATOM     47  H7  UNL     1       7.777  -4.846   9.971  1.00  0.00     0.212 HD
ENDBRANCH  17  46
TORSDOF 3
ENDMDL