MODEL 1
REMARK VINA RESULT: -11.538576471      0.000      0.000
REMARK  2 active torsions:
REMARK  status: ('A' for Active; 'I' for Inactive)
REMARK    1  A    between atoms: C4_6  and  N1_7
REMARK    2  A    between atoms: C18_38  and  N13_39
ROOT
HETATM    1  N1  UNL     1       9.129   1.124   2.854  1.00  0.00    -0.278 N
HETATM    2  S1  UNL     1       8.083  -0.046   3.650  1.00  0.00    -0.010 SA
HETATM    3  C5  UNL     1       7.680  -1.460   2.633  1.00  0.00     0.159 C
HETATM    4  N2  UNL     1       7.487  -1.179   1.249  1.00  0.00    -0.339 N
ATOM      5  H2  UNL     1       6.670  -1.647   0.855  1.00  0.00     0.164 HD
HETATM    6  C6  UNL     1       8.111  -0.475   0.407  1.00  0.00     0.192 C
HETATM    7  N3  UNL     1       7.617  -0.420  -0.940  1.00  0.00    -0.063 NA
HETATM    8  N4  UNL     1       9.271   0.302   0.599  1.00  0.00    -0.304 N
ATOM      9  H4  UNL     1       9.869   0.330  -0.227  1.00  0.00     0.171 HD
HETATM   10  C7  UNL     1       9.745   0.982   1.578  1.00  0.00     0.203 C
HETATM   11  N5  UNL     1      10.975   1.658   1.413  1.00  0.00    -0.062 NA
HETATM   12  C8  UNL     1       6.334  -1.939   3.119  1.00  0.00     0.040 A
HETATM   13  C9  UNL     1       5.094  -1.394   2.891  1.00  0.00     0.080 A
HETATM   14  N6  UNL     1       4.890  -0.210   2.114  1.00  0.00    -0.100 NA
HETATM   15  C10 UNL     1       3.978  -1.996   3.425  1.00  0.00     0.091 A
HETATM   16  C11 UNL     1       2.656  -1.458   3.211  1.00  0.00     0.103 C
HETATM   17  N7  UNL     1       1.594  -1.017   3.020  1.00  0.00    -0.191 NA
HETATM   18  C12 UNL     1       4.152  -3.127   4.169  1.00  0.00     0.090 A
HETATM   19  C13 UNL     1       2.965  -3.742   4.719  1.00  0.00     0.102 C
HETATM   20  N8  UNL     1       2.023  -4.242   5.176  1.00  0.00    -0.191 NA
HETATM   21  C14 UNL     1       5.411  -3.707   4.419  1.00  0.00     0.096 A
HETATM   22  C15 UNL     1       5.456  -4.891   5.196  1.00  0.00     0.103 C
HETATM   23  N9  UNL     1       5.462  -5.865   5.829  1.00  0.00    -0.191 NA
HETATM   24  C16 UNL     1       6.477  -3.074   3.870  1.00  0.00     0.085 A
HETATM   25  N10 UNL     1       7.883  -3.411   3.941  1.00  0.00    -0.274 N
HETATM   26  N11 UNL     1       8.612  -4.237   4.762  1.00  0.00    -0.248 N
ATOM     27  H11 UNL     1       8.156  -4.739   5.525  1.00  0.00     0.192 HD
HETATM   28  C17 UNL     1      10.031  -4.390   4.536  1.00  0.00     0.336 C
HETATM   29  O3  UNL     1      10.663  -5.156   5.299  1.00  0.00    -0.246 OA
HETATM   30  N12 UNL     1      10.606  -3.663   3.462  1.00  0.00    -0.312 N
ATOM     31  H12 UNL     1      11.410  -4.000   2.932  1.00  0.00     0.166 HD
HETATM   32  C18 UNL     1       9.952  -2.398   3.181  1.00  0.00     0.314 C
HETATM   33  C19 UNL     1       8.525  -2.680   2.879  1.00  0.00     0.204 C
ENDROOT
BRANCH   1  34
HETATM   34  C4  UNL     1       9.409   2.363   3.542  1.00  0.00     0.205 C
HETATM   35  C3  UNL     1       8.153   3.113   3.788  1.00  0.00     0.283 C
HETATM   36  O1  UNL     1       8.412   3.932   4.890  1.00  0.00    -0.314 OA
HETATM   37  O2  UNL     1       7.044   3.095   3.199  1.00  0.00    -0.263 OA
HETATM   38  C2  UNL     1       9.336   3.266   5.753  1.00  0.00     0.134 C
HETATM   39  C1  UNL     1       8.574   2.793   6.973  1.00  0.00     0.040 C
HETATM   40  C20 UNL     1       9.887   2.113   4.951  1.00  0.00     0.044 C
HETATM   41  C21 UNL     1      11.401   2.069   5.034  1.00  0.00     0.015 C
ENDBRANCH   1  34
BRANCH  32  42
HETATM   42  N13 UNL     1      10.130  -1.560   4.352  1.00  0.00    -0.056 N
ATOM     43 3H13 UNL     1      10.378  -2.087   5.188  1.00  0.00     0.276 HD
ATOM     44 2H13 UNL     1      10.969  -0.983   4.307  1.00  0.00     0.276 HD
ATOM     45 1H13 UNL     1       9.274  -1.014   4.461  1.00  0.00     0.276 HD
ENDBRANCH  32  42
TORSDOF 2
ENDMDL