MODEL 1
REMARK VINA RESULT: -8.686207235      0.000      0.000
REMARK  3 active torsions:
REMARK  status: ('A' for Active; 'I' for Inactive)
REMARK    1  A    between atoms: C12_28  and  C13_29
REMARK    2  A    between atoms: C13_29  and  O5_30
REMARK    3  A    between atoms: C14_34  and  O6_35
ROOT
HETATM    1  C1  UNL     1       2.873  -5.074   4.824  1.00  0.00     0.047 C
HETATM    2  C2  UNL     1       3.014  -3.560   5.051  1.00  0.00     0.132 C
HETATM    3  C3  UNL     1       1.685  -3.090   5.581  1.00  0.00     0.047 C
HETATM    4  C4  UNL     1       4.084  -3.403   6.109  1.00  0.00     0.124 C
HETATM    5  S1  UNL     1       4.081  -4.895   7.176  1.00  0.00    -0.095 SA
HETATM    6  S2  UNL     1       5.755  -6.135   6.737  1.00  0.00    -0.096 SA
HETATM    7  C5  UNL     1       6.735  -6.415   8.230  1.00  0.00     0.105 C
HETATM    8  C6  UNL     1       8.181  -6.030   8.035  1.00  0.00     0.134 C
HETATM    9  N1  UNL     1       8.811  -6.957   7.107  1.00  0.00    -0.355 N
ATOM     10  H1  UNL     1       8.637  -7.956   7.220  1.00  0.00     0.163 HD
HETATM   11  C7  UNL     1       9.568  -6.573   6.163  1.00  0.00     0.227 A
HETATM   12  N2  UNL     1       9.852  -5.191   5.951  1.00  0.00    -0.320 N
ATOM     13  H2  UNL     1       9.490  -4.421   6.511  1.00  0.00     0.169 HD
HETATM   14  C8  UNL     1      10.639  -5.072   4.938  1.00  0.00     0.098 A
HETATM   15  C9  UNL     1      11.068  -3.709   4.535  1.00  0.00     0.147 C
HETATM   16  S3  UNL     1       9.626  -2.879   3.794  1.00  0.00    -0.062 SA
HETATM   17  C10 UNL     1      10.172  -1.332   3.075  1.00  0.00     0.294 C
HETATM   18  O1  UNL     1      11.234  -0.794   3.538  1.00  0.00    -0.259 OA
HETATM   19  N3  UNL     1       9.466  -0.690   2.015  1.00  0.00    -0.228 N
ATOM     20  H3  UNL     1      10.010  -0.246   1.276  1.00  0.00     0.184 HD
HETATM   21  S4  UNL     1       7.764  -0.623   1.910  1.00  0.00     0.328 S
HETATM   22  O2  UNL     1       7.367  -0.219   0.519  1.00  0.00    -0.182 OA
HETATM   23  O3  UNL     1       7.232  -2.009   2.147  1.00  0.00    -0.182 OA
HETATM   24  N4  UNL     1       7.101   0.423   3.106  1.00  0.00    -0.235 N
ATOM     25  H4  UNL     1       7.728   1.039   3.625  1.00  0.00     0.183 HD
HETATM   26  C11 UNL     1       5.711   0.457   3.397  1.00  0.00     0.257 C
HETATM   27  O4  UNL     1       5.388   0.776   4.567  1.00  0.00    -0.270 OA
HETATM   28  C12 UNL     1       4.633   0.150   2.439  1.00  0.00     0.197 C
HETATM   29  N5  UNL     1       4.067  -1.146   2.560  1.00  0.00    -0.360 N
ATOM     30  H5  UNL     1       3.837  -1.710   1.741  1.00  0.00     0.158 HD
HETATM   31  C14 UNL     1       3.837  -1.617   3.884  1.00  0.00     0.423 C
HETATM   32  N6  UNL     1       3.367  -2.985   3.798  1.00  0.00    -0.022 N
ATOM     33  H61 UNL     1       2.588  -3.054   3.141  1.00  0.00     0.283 HD
ATOM     34  H62 UNL     1       4.051  -3.568   3.317  1.00  0.00     0.283 HD
HETATM   35  C15 UNL     1      10.938  -6.393   4.396  1.00  0.00     0.314 A
HETATM   36  O7  UNL     1      11.682  -6.627   3.399  1.00  0.00    -0.257 OA
HETATM   37  O8  UNL     1      10.254  -7.297   5.186  1.00  0.00    -0.241 OA
ENDROOT
BRANCH  28  38
HETATM   38  C13 UNL     1       3.577   1.252   2.415  1.00  0.00     0.198 C
BRANCH  38  39
HETATM   39  O5  UNL     1       4.086   2.451   2.875  1.00  0.00    -0.398 OA
ATOM     40  H5  UNL     1       3.444   2.927   3.390  1.00  0.00     0.209 HD
ENDBRANCH  38  39
ENDBRANCH  28  38
BRANCH  31  41
HETATM   41  O6  UNL     1       2.843  -0.890   4.538  1.00  0.00    -0.355 OA
ATOM     42  H6  UNL     1       3.191  -0.361   5.246  1.00  0.00     0.213 HD
ENDBRANCH  31  41
TORSDOF 3
ENDMDL