MODEL 2
REMARK VINA RESULT: -10.010942032      2.053      6.959
REMARK  4 active torsions:
REMARK  status: ('A' for Active; 'I' for Inactive)
REMARK    1  A    between atoms: C10_21  and  C11_22
REMARK    2  A    between atoms: C11_22  and  O6_23
REMARK    3  A    between atoms: C16_33  and  O9_34
REMARK    4  A    between atoms: N5_37  and  O10_39
ROOT
HETATM    1  C1  UNL     1       3.794  -6.241   4.784  1.00  0.00     0.042 C
HETATM    2  C2  UNL     1       4.535  -5.109   5.472  1.00  0.00     0.147 C
HETATM    3  C3  UNL     1       3.502  -4.047   5.808  1.00  0.00     0.172 C
HETATM    4  N1  UNL     1       3.083  -3.315   4.637  1.00  0.00    -0.320 N
ATOM      5  H1  UNL     1       3.644  -3.294   3.785  1.00  0.00     0.181 HD
HETATM    6  N2  UNL     1       1.963  -2.690   4.729  1.00  0.00    -0.244 N
ATOM      7  H2  UNL     1       1.435  -2.737   5.601  1.00  0.00     0.208 HD
HETATM    8  N3  UNL     1       1.455  -1.943   3.651  1.00  0.00    -0.255 N
ATOM      9  H3  UNL     1       0.504  -2.104   3.320  1.00  0.00     0.191 HD
HETATM   10  C4  UNL     1       2.276  -0.961   3.026  1.00  0.00     0.246 C
HETATM   11  O1  UNL     1       2.058  -0.750   1.784  1.00  0.00    -0.271 OA
HETATM   12  C5  UNL     1       3.330  -0.217   3.764  1.00  0.00     0.215 C
HETATM   13  C6  UNL     1       3.465   1.134   3.158  1.00  0.00     0.267 C
HETATM   14  O2  UNL     1       2.396   1.645   2.696  1.00  0.00    -0.265 OA
HETATM   15  O3  UNL     1       4.687   1.779   3.109  1.00  0.00    -0.319 OA
HETATM   16  C7  UNL     1       5.548   1.898   4.232  1.00  0.00     0.205 C
HETATM   17  C8  UNL     1       6.960   1.581   3.817  1.00  0.00     0.205 C
HETATM   18  O4  UNL     1       7.560   0.829   4.830  1.00  0.00    -0.318 OA
HETATM   19  C9  UNL     1       8.633   1.200   5.591  1.00  0.00     0.284 C
HETATM   20  O5  UNL     1       8.692   0.943   6.831  1.00  0.00    -0.263 OA
HETATM   21  C10 UNL     1       9.797   1.927   5.013  1.00  0.00     0.207 C
HETATM   22  N4  UNL     1      11.058   1.407   5.479  1.00  0.00    -0.345 N
ATOM     23  H4  UNL     1      11.766   2.078   5.779  1.00  0.00     0.163 HD
HETATM   24  C12 UNL     1      11.383   0.033   5.549  1.00  0.00     0.218 C
HETATM   25  O7  UNL     1      12.109  -0.332   6.537  1.00  0.00    -0.274 OA
HETATM   26  C13 UNL     1      10.918  -0.958   4.538  1.00  0.00     0.110 C
HETATM   27  C14 UNL     1      11.468  -2.320   4.917  1.00  0.00     0.090 C
HETATM   28  C15 UNL     1      10.596  -3.398   4.330  1.00  0.00     0.161 C
HETATM   29  O8  UNL     1       9.510  -3.157   3.832  1.00  0.00    -0.295 OA
HETATM   30  C16 UNL     1      11.124  -4.786   4.384  1.00  0.00     0.234 C
HETATM   31  C17 UNL     1      10.609  -5.535   5.563  1.00  0.00     0.045 C
HETATM   32  N5  UNL     1      11.150  -5.301   6.703  1.00  0.00    -0.274 N
ATOM     33  H5  UNL     1      11.905  -4.621   6.779  1.00  0.00     0.193 HD
HETATM   34  C18 UNL     1       9.517  -6.523   5.473  1.00  0.00     0.058 C
HETATM   35  C19 UNL     1       8.264  -5.920   6.052  1.00  0.00     0.015 C
HETATM   36  C20 UNL     1       7.040  -6.758   5.758  1.00  0.00     0.111 C
HETATM   37  C21 UNL     1       6.057  -6.504   6.824  1.00  0.00     0.259 C
HETATM   38  O11 UNL     1       6.097  -7.203   7.851  1.00  0.00    -0.265 OA
HETATM   39  O12 UNL     1       5.123  -5.519   6.683  1.00  0.00    -0.315 OA
ENDROOT
BRANCH  30  40
HETATM   40  O9  UNL     1      12.528  -4.780   4.366  1.00  0.00    -0.382 OA
ATOM     41  H9  UNL     1      12.859  -5.566   3.948  1.00  0.00     0.211 HD
ENDBRANCH  30  40
BRANCH  32  42
HETATM   42  O10 UNL     1      10.713  -5.964   7.812  1.00  0.00    -0.290 OA
ATOM     43  H10 UNL     1       9.979  -5.622   8.310  1.00  0.00     0.244 HD
ENDBRANCH  32  42
BRANCH  21  44
HETATM   44  C11 UNL     1       9.656   3.379   5.478  1.00  0.00     0.199 C
BRANCH  44  45
HETATM   45  O6  UNL     1       8.361   3.504   6.031  1.00  0.00    -0.398 OA
ATOM     46  H6  UNL     1       8.473   3.822   6.919  1.00  0.00     0.209 HD
ENDBRANCH  44  45
ENDBRANCH  21  44
TORSDOF 4
ENDMDL