MODEL 2
REMARK VINA RESULT: -9.046116322      2.667      6.836
REMARK  4 active torsions:
REMARK  status: ('A' for Active; 'I' for Inactive)
REMARK    1  A    between atoms: N1_1  and  C1_5
REMARK    2  A    between atoms: C16_37  and  O6_38
REMARK    3  A    between atoms: C18_41  and  O7_42
REMARK    4  A    between atoms: C20_47  and  O8_48
ROOT
HETATM    1  C1  UNL     1      10.950  -4.053   4.554  1.00  0.00     0.219 C
HETATM    2  C2  UNL     1      10.592  -2.642   4.154  1.00  0.00     0.114 C
HETATM    3  C3  UNL     1       9.370  -2.574   3.320  1.00  0.00     0.117 A
HETATM    4  N2  UNL     1       8.811  -3.462   2.489  1.00  0.00    -0.272 N
ATOM      5  H2  UNL     1       9.178  -4.393   2.290  1.00  0.00     0.190 HD
HETATM    6  N3  UNL     1       7.721  -2.953   1.969  1.00  0.00    -0.227 N
ATOM      7  H3  UNL     1       7.105  -3.420   1.304  1.00  0.00     0.210 HD
HETATM    8  N4  UNL     1       7.558  -1.743   2.448  1.00  0.00    -0.225 N
ATOM      9  H4  UNL     1       6.795  -1.104   2.222  1.00  0.00     0.210 HD
HETATM   10  N5  UNL     1       8.558  -1.500   3.275  1.00  0.00    -0.263 N
HETATM   11  C4  UNL     1       8.858  -0.305   4.077  1.00  0.00     0.162 C
HETATM   12  C5  UNL     1       8.359   0.921   3.337  1.00  0.00     0.096 C
HETATM   13  S1  UNL     1       7.303   1.910   4.428  1.00  0.00    -0.158 SA
HETATM   14  C6  UNL     1       5.945   0.936   5.089  1.00  0.00     0.176 C
HETATM   15  C7  UNL     1       4.895   0.784   4.048  1.00  0.00     0.226 C
HETATM   16  O1  UNL     1       5.124   1.139   2.877  1.00  0.00    -0.273 OA
HETATM   17  N6  UNL     1       3.628   0.221   4.438  1.00  0.00    -0.358 N
ATOM     18  H6  UNL     1       2.794   0.419   3.885  1.00  0.00     0.162 HD
HETATM   19  C8  UNL     1       3.529  -0.631   5.621  1.00  0.00     0.149 C
HETATM   20  C9  UNL     1       2.485  -1.683   5.407  1.00  0.00     0.198 C
HETATM   21  O2  UNL     1       3.002  -2.841   4.781  1.00  0.00    -0.319 OA
HETATM   22  C10 UNL     1       3.274  -4.011   5.472  1.00  0.00     0.276 C
HETATM   23  O3  UNL     1       3.043  -5.168   5.042  1.00  0.00    -0.263 OA
HETATM   24  C11 UNL     1       3.884  -3.891   6.823  1.00  0.00     0.233 C
HETATM   25  N7  UNL     1       3.456  -4.955   7.696  1.00  0.00    -0.350 N
ATOM     26  H7  UNL     1       2.569  -5.405   7.470  1.00  0.00     0.163 HD
HETATM   27  C12 UNL     1       4.142  -5.438   8.831  1.00  0.00     0.242 C
HETATM   28  O4  UNL     1       3.538  -5.508   9.959  1.00  0.00    -0.271 OA
HETATM   29  C13 UNL     1       5.550  -5.899   8.868  1.00  0.00     0.280 C
HETATM   30  O5  UNL     1       6.128  -5.719   7.610  1.00  0.00    -0.326 OA
HETATM   31  C14 UNL     1       7.507  -5.697   7.386  1.00  0.00     0.147 A
HETATM   32  C15 UNL     1       8.392  -6.667   7.107  1.00  0.00     0.093 A
HETATM   33  C16 UNL     1       9.776  -6.330   6.927  1.00  0.00     0.080 A
HETATM   34  C17 UNL     1      10.193  -5.013   7.043  1.00  0.00     0.028 A
HETATM   35  C18 UNL     1       9.276  -4.054   7.324  1.00  0.00     0.151 A
HETATM   36  N8  UNL     1       7.960  -4.463   7.482  1.00  0.00    -0.317 N
ATOM     37  H8  UNL     1       7.276  -3.737   7.694  1.00  0.00     0.170 HD
HETATM   38  C19 UNL     1      11.612  -4.661   6.862  1.00  0.00     0.079 C
HETATM   39  C20 UNL     1      12.052  -4.157   5.518  1.00  0.00     0.153 C
ENDROOT
BRANCH   1  40
HETATM   40  N1  UNL     1      11.332  -4.747   3.307  1.00  0.00    -0.072 N
ATOM     41  H13 UNL     1      10.539  -5.145   2.803  1.00  0.00     0.274 HD
ATOM     42  H12 UNL     1      11.643  -4.115   2.569  1.00  0.00     0.274 HD
ATOM     43  H11 UNL     1      12.033  -5.438   3.573  1.00  0.00     0.274 HD
ENDBRANCH   1  40
BRANCH  39  44
HETATM   44  O8  UNL     1      13.085  -4.949   4.968  1.00  0.00    -0.393 OA
ATOM     45  H8  UNL     1      13.893  -4.786   5.440  1.00  0.00     0.210 HD
ENDBRANCH  39  44
BRANCH  33  46
HETATM   46  O6  UNL     1      10.455  -7.548   6.641  1.00  0.00    -0.360 OA
ATOM     47  H6  UNL     1      11.062  -7.694   7.358  1.00  0.00     0.217 HD
ENDBRANCH  33  46
BRANCH  35  48
HETATM   48  O7  UNL     1       9.213  -2.624   7.525  1.00  0.00    -0.346 OA
ATOM     49  H7  UNL     1       8.598  -1.966   7.824  1.00  0.00     0.219 HD
ENDBRANCH  35  48
TORSDOF 4
ENDMDL