MODEL 4
REMARK VINA RESULT: -7.781340803      3.997      5.638
REMARK  4 active torsions:
REMARK  status: ('A' for Active; 'I' for Inactive)
REMARK    1  A    between atoms: C1_2  and  C2_3
REMARK       I    between atoms: C1_2  and  N2_11
REMARK    2  A    between atoms: C2_3  and  C3_4
REMARK    3  A    between atoms: C3_4  and  N1_5
REMARK    4  A    between atoms: N2_11  and  C8_13
ROOT
HETATM    1  O1  UNL     1     -12.572  21.458  62.546  1.00  0.00    -0.273 OA
HETATM    2  C1  UNL     1     -11.475  21.090  62.061  1.00  0.00     0.225 C
HETATM    3  N2  UNL     1     -10.880  21.911  61.034  1.00  0.00    -0.307 N
ATOM      4  H2  UNL     1     -10.927  21.670  60.043  1.00  0.00     0.171 HD
ENDROOT
BRANCH   3   5
HETATM    5  C8  UNL     1     -10.271  22.996  61.471  1.00  0.00     0.152 A
HETATM    6  N3  UNL     1      -9.712  23.239  62.649  1.00  0.00    -0.333 N
HETATM    7  C9  UNL     1      -9.154  24.417  62.859  1.00  0.00     0.093 A
ATOM      8  H3  UNL     1      -9.713  22.528  63.379  1.00  0.00     0.168 HD
HETATM    9  C10 UNL     1      -9.191  25.321  61.837  1.00  0.00     0.017 A
HETATM   10  C14 UNL     1      -8.478  24.881  64.112  1.00  0.00     0.176 C
HETATM   11  S1  UNL     1     -10.012  24.465  60.621  1.00  0.00    -0.056 SA
HETATM   12  C11 UNL     1      -8.620  26.697  61.872  1.00  0.00     0.049 C
HETATM   13  C12 UNL     1      -7.811  26.952  63.086  1.00  0.00     0.013 C
HETATM   14  C13 UNL     1      -8.454  26.365  64.308  1.00  0.00     0.086 C
HETATM   15  O3  UNL     1      -7.977  24.068  64.923  1.00  0.00    -0.291 OA
ENDBRANCH   3   5
BRANCH   2  16
HETATM   16  C2  UNL     1     -10.830  19.868  62.537  1.00  0.00     0.123 C
BRANCH  16  17
HETATM   17  C3  UNL     1     -10.707  19.802  64.020  1.00  0.00     0.135 C
BRANCH  17  18
HETATM   18  N1  UNL     1     -11.871  19.281  64.639  1.00  0.00    -0.352 N
HETATM   19  C4  UNL     1     -12.517  17.992  64.235  1.00  0.00     0.126 C
HETATM   20  C5  UNL     1     -13.946  18.478  64.143  1.00  0.00     0.029 C
HETATM   21  C6  UNL     1     -14.100  19.388  65.328  1.00  0.00     0.104 C
HETATM   22  C7  UNL     1     -12.709  19.763  65.675  1.00  0.00     0.219 C
HETATM   23  O2  UNL     1     -12.313  20.383  66.683  1.00  0.00    -0.273 OA
ENDBRANCH  17  18
ENDBRANCH  16  17
ENDBRANCH   2  16
TORSDOF 4
ENDMDL