MODEL 2
REMARK VINA RESULT: -8.119336003      3.004      5.021
REMARK  3 active torsions:
REMARK  status: ('A' for Active; 'I' for Inactive)
REMARK    1  A    between atoms: N2_15  and  C11_16
REMARK    2  A    between atoms: C11_16  and  C12_17
REMARK    3  A    between atoms: C12_17  and  N3_18
ROOT
HETATM    1  O1  UNL     1     -11.665  22.113  60.813  1.00  0.00    -0.273 OA
HETATM    2  C1  UNL     1     -11.548  22.232  62.046  1.00  0.00     0.221 C
HETATM    3  C2  UNL     1     -12.674  21.879  62.968  1.00  0.00     0.123 C
HETATM    4  C3  UNL     1     -11.845  21.341  64.151  1.00  0.00     0.065 C
HETATM    5  C4  UNL     1     -12.762  21.233  65.316  1.00  0.00     0.021 C
HETATM    6  C5  UNL     1     -12.196  20.586  66.527  1.00  0.00     0.001 C
HETATM    7  C6  UNL     1     -11.993  19.114  66.465  1.00  0.00     0.002 C
HETATM    8  C7  UNL     1     -13.036  18.345  65.715  1.00  0.00     0.020 C
HETATM    9  C8  UNL     1     -12.627  17.894  64.356  1.00  0.00     0.122 C
HETATM   10  N1  UNL     1     -11.658  18.741  63.710  1.00  0.00    -0.360 N
ATOM     11  H1  UNL     1     -11.138  18.214  63.008  1.00  0.00     0.162 HD
HETATM   12  C9  UNL     1     -11.212  20.070  63.753  1.00  0.00     0.228 C
HETATM   13  O2  UNL     1     -10.035  20.232  63.378  1.00  0.00    -0.273 OA
HETATM   14  C10 UNL     1     -10.816  22.438  64.256  1.00  0.00     0.145 C
HETATM   15  N2  UNL     1     -10.464  22.673  62.834  1.00  0.00    -0.349 N
ENDROOT
BRANCH  15  16
HETATM   16  C11 UNL     1      -9.228  23.260  62.380  1.00  0.00     0.156 C
BRANCH  16  17
HETATM   17  C12 UNL     1      -9.180  24.738  62.331  1.00  0.00     0.292 C
BRANCH  17  18
HETATM   18  N3  UNL     1      -8.849  25.427  63.553  1.00  0.00     0.094 N
HETATM   19  C13 UNL     1      -7.882  24.561  64.235  1.00  0.00     0.298 C
HETATM   20  C14 UNL     1      -6.522  24.849  63.682  1.00  0.00     0.198 C
HETATM   21  O3  UNL     1      -6.124  26.071  64.218  1.00  0.00    -0.388 OA
HETATM   22  C15 UNL     1      -7.039  27.068  64.005  1.00  0.00     0.198 C
HETATM   23  C16 UNL     1      -8.250  26.700  63.220  1.00  0.00     0.298 C
ENDBRANCH  17  18
ENDBRANCH  16  17
ENDBRANCH  15  16
TORSDOF 3
ENDMDL