MODEL 4
REMARK VINA RESULT: -7.741866016      3.282      4.138
REMARK  3 active torsions:
REMARK  status: ('A' for Active; 'I' for Inactive)
REMARK    1  A    between atoms: C2_2  and  C3_3
REMARK    2  A    between atoms: C3_3  and  S1_4
REMARK    3  A    between atoms: S1_4  and  N1_7
ROOT
HETATM    1  N1  UNL     1     -11.105  22.260  60.120  1.00  0.00    -0.241 N
HETATM    2  C4  UNL     1     -11.301  21.592  61.386  1.00  0.00     0.150 C
HETATM    3  C5  UNL     1     -10.224  21.853  62.371  1.00  0.00     0.079 C
HETATM    4  C6  UNL     1      -9.728  23.235  62.346  1.00  0.00     0.028 A
HETATM    5  N2  UNL     1      -9.045  23.962  63.286  1.00  0.00    -0.353 N
ATOM      6  H2  UNL     1      -8.777  23.619  64.209  1.00  0.00     0.166 HD
HETATM    7  C7  UNL     1      -8.781  25.186  62.821  1.00  0.00     0.116 A
HETATM    8  C8  UNL     1      -9.279  25.313  61.557  1.00  0.00    -0.005 A
HETATM    9  C9  UNL     1      -9.869  24.074  61.282  1.00  0.00     0.064 A
HETATM   10  C10 UNL     1     -10.584  23.599  60.095  1.00  0.00     0.269 C
HETATM   11  O3  UNL     1     -10.717  24.362  59.114  1.00  0.00    -0.266 OA
HETATM   12  C11 UNL     1      -9.174  26.537  60.727  1.00  0.00     0.069 C
HETATM   13  C12 UNL     1      -9.079  27.726  61.658  1.00  0.00     0.183 C
HETATM   14  O4  UNL     1      -8.022  27.478  62.561  1.00  0.00    -0.316 OA
HETATM   15  C13 UNL     1      -8.096  26.366  63.368  1.00  0.00     0.310 C
HETATM   16  O5  UNL     1      -7.605  26.329  64.533  1.00  0.00    -0.258 OA
ENDROOT
BRANCH   1  17
HETATM   17  S1  UNL     1     -11.497  21.442  58.672  1.00  0.00     0.235 S
HETATM   18  O1  UNL     1     -12.592  22.187  57.920  1.00  0.00    -0.205 OA
HETATM   19  O2  UNL     1     -12.098  20.079  58.979  1.00  0.00    -0.205 OA
BRANCH  17  20
HETATM   20  C3  UNL     1     -10.109  21.199  57.618  1.00  0.00     0.163 C
BRANCH  20  21
HETATM   21  C2  UNL     1      -9.853  19.703  57.451  1.00  0.00     0.012 C
HETATM   22  C1  UNL     1      -8.394  19.374  57.417  1.00  0.00     0.006 C
ENDBRANCH  20  21
ENDBRANCH  17  20
ENDBRANCH   1  17
TORSDOF 3
ENDMDL