MODEL 5
REMARK VINA RESULT: -8.385782841      1.364      2.001
REMARK  3 active torsions:
REMARK  status: ('A' for Active; 'I' for Inactive)
REMARK       I    between atoms: N2_5  and  C4_6
REMARK    1  A    between atoms: C4_6  and  C5_8
REMARK    2  A    between atoms: C5_8  and  C6_9
REMARK    3  A    between atoms: C6_9  and  C7_10
ROOT
HETATM    1  C7  UNL     1     -10.745  20.287  61.366  1.00  0.00     0.084 A
HETATM    2  N3  UNL     1     -11.828  19.836  61.983  1.00  0.00    -0.312 N
ATOM      3  H3  UNL     1     -12.259  18.994  61.600  1.00  0.00     0.170 HD
HETATM    4  C8  UNL     1     -12.413  20.380  63.060  1.00  0.00     0.255 A
HETATM    5  O2  UNL     1     -13.427  19.889  63.569  1.00  0.00    -0.268 OA
HETATM    6  C9  UNL     1     -11.843  21.517  63.586  1.00  0.00     0.032 A
HETATM    7  C10 UNL     1     -10.714  22.007  62.963  1.00  0.00     0.022 A
HETATM    8  N4  UNL     1     -10.181  21.407  61.884  1.00  0.00    -0.349 N
ATOM      9  H4  UNL     1      -9.345  21.798  61.450  1.00  0.00     0.167 HD
HETATM   10  C11 UNL     1     -10.117  23.241  63.556  1.00  0.00     0.058 C
HETATM   11  C12 UNL     1     -10.086  23.210  65.049  1.00  0.00     0.006 C
HETATM   12  C13 UNL     1     -11.250  22.537  65.690  1.00  0.00     0.005 C
HETATM   13  C14 UNL     1     -12.383  22.221  64.772  1.00  0.00     0.046 C
ENDROOT
BRANCH   1  14
HETATM   14  C6  UNL     1     -10.182  19.616  60.191  1.00  0.00     0.086 C
BRANCH  14  15
HETATM   15  C5  UNL     1     -10.261  20.380  58.922  1.00  0.00     0.110 C
BRANCH  15  16
HETATM   16  C4  UNL     1     -11.621  20.618  58.415  1.00  0.00     0.220 C
HETATM   17  N2  UNL     1     -11.840  21.622  57.417  1.00  0.00    -0.349 N
HETATM   18  C3  UNL     1     -10.737  22.382  56.924  1.00  0.00     0.156 C
HETATM   19  C15 UNL     1     -13.183  21.830  56.946  1.00  0.00     0.156 C
HETATM   20  C2  UNL     1     -11.009  23.266  55.763  1.00  0.00     0.291 C
HETATM   21  N1  UNL     1     -12.324  23.191  55.207  1.00  0.00     0.087 N
HETATM   22  C1  UNL     1     -12.564  24.271  54.293  1.00  0.00     0.310 C
HETATM   23  C16 UNL     1     -13.275  23.196  56.301  1.00  0.00     0.291 C
HETATM   24  O1  UNL     1     -12.573  19.932  58.868  1.00  0.00    -0.273 OA
ENDBRANCH  15  16
ENDBRANCH  14  15
ENDBRANCH   1  14
TORSDOF 3
ENDMDL