MODEL 2
REMARK VINA RESULT: -6.327322331      4.472      8.122
REMARK  4 active torsions:
REMARK  status: ('A' for Active; 'I' for Inactive)
REMARK    1  A    between atoms: N1_2  and  C3_4
REMARK    2  A    between atoms: C3_4  and  C4_5
REMARK    3  A    between atoms: C4_5  and  N2_6
REMARK    4  A    between atoms: N4_20  and  C15_21
ROOT
HETATM    1  N2  UNL     1     -11.112  21.497  61.111  1.00  0.00    -0.347 N
HETATM    2  C5  UNL     1     -10.228  20.423  60.690  1.00  0.00     0.153 C
HETATM    3  C6  UNL     1      -9.872  19.519  61.847  1.00  0.00     0.253 C
HETATM    4  N3  UNL     1     -10.949  19.311  62.751  1.00  0.00    -0.053 N
ATOM      5  H31 UNL     1     -10.704  18.613  63.453  1.00  0.00     0.278 HD
ATOM      6  H32 UNL     1     -11.719  18.823  62.292  1.00  0.00     0.278 HD
HETATM    7  C7  UNL     1     -11.408  20.518  63.369  1.00  0.00     0.230 C
HETATM    8  C8  UNL     1     -10.326  21.212  64.172  1.00  0.00     0.052 C
HETATM    9  C9  UNL     1     -11.121  22.148  65.023  1.00  0.00     0.005 C
HETATM   10  C10 UNL     1     -12.491  21.520  65.207  1.00  0.00     0.034 C
HETATM   11  C11 UNL     1     -12.508  20.260  64.377  1.00  0.00     0.077 C
HETATM   12  C12 UNL     1     -13.835  19.990  63.713  1.00  0.00     0.036 C
HETATM   13  C13 UNL     1     -14.220  18.549  64.054  1.00  0.00     0.022 C
HETATM   14  C14 UNL     1     -13.023  17.984  64.797  1.00  0.00     0.126 C
HETATM   15  N4  UNL     1     -12.260  19.139  65.233  1.00  0.00    -0.347 N
HETATM   16  C16 UNL     1     -11.831  21.463  62.336  1.00  0.00     0.259 C
HETATM   17  O2  UNL     1     -12.794  22.262  62.449  1.00  0.00    -0.270 OA
ENDROOT
BRANCH  15  18
HETATM   18  C15 UNL     1     -11.404  19.137  66.353  1.00  0.00     0.351 C
HETATM   19  O1  UNL     1     -11.769  18.596  67.430  1.00  0.00    -0.284 OA
ENDBRANCH  15  18
BRANCH   1  20
HETATM   20  C4  UNL     1     -11.198  22.618  60.174  1.00  0.00     0.156 C
BRANCH  20  21
HETATM   21  C3  UNL     1     -11.401  22.045  58.795  1.00  0.00     0.291 C
BRANCH  21  22
HETATM   22  N1  UNL     1     -10.641  22.705  57.773  1.00  0.00     0.081 N
HETATM   23  C1  UNL     1     -11.437  23.411  56.803  1.00  0.00     0.309 C
HETATM   24  C2  UNL     1      -9.626  21.880  57.175  1.00  0.00     0.309 C
ENDBRANCH  21  22
ENDBRANCH  20  21
ENDBRANCH   1  20
TORSDOF 4
ENDMDL