MODEL 2
REMARK VINA RESULT: -6.923384690      3.015      6.602
REMARK  3 active torsions:
REMARK  status: ('A' for Active; 'I' for Inactive)
REMARK       I    between atoms: C2_2  and  N1_4
REMARK    1  A    between atoms: N1_4  and  C3_6
REMARK    2  A    between atoms: C3_6  and  C4_7
REMARK    3  A    between atoms: C4_7  and  N2_8
ROOT
HETATM    1  N2  UNL     1     -11.036  23.077  65.024  1.00  0.00    -0.257 NA
HETATM    2  C5  UNL     1     -10.720  23.846  63.872  1.00  0.00     0.338 C
HETATM    3  N3  UNL     1      -9.906  23.262  62.876  1.00  0.00     0.048 N
HETATM    4  O2  UNL     1      -9.170  24.289  62.314  1.00  0.00    -0.059 OA
HETATM    5  C6  UNL     1     -10.680  22.761  61.728  1.00  0.00     0.345 C
HETATM    6  C7  UNL     1     -11.263  21.402  61.992  1.00  0.00     0.205 C
HETATM    7  O3  UNL     1     -12.213  21.549  62.986  1.00  0.00    -0.376 OA
HETATM    8  C8  UNL     1     -11.848  20.964  64.188  1.00  0.00     0.077 C
HETATM    9  C9  UNL     1     -13.114  21.061  65.062  1.00  0.00     0.040 C
HETATM   10  C10 UNL     1     -14.095  20.009  64.530  1.00  0.00     0.003 C
HETATM   11  C11 UNL     1     -13.677  18.689  65.155  1.00  0.00     0.000 C
HETATM   12  C12 UNL     1     -12.159  18.662  65.141  1.00  0.00     0.003 C
HETATM   13  C13 UNL     1     -11.629  19.506  63.974  1.00  0.00     0.040 C
HETATM   14  C14 UNL     1     -10.780  21.665  64.933  1.00  0.00     0.101 C
HETATM   15  C15 UNL     1      -9.380  21.471  64.488  1.00  0.00     0.060 C
HETATM   16  C16 UNL     1      -8.967  22.281  63.305  1.00  0.00     0.321 C
ENDROOT
BRANCH   1  17
HETATM   17  C4  UNL     1     -10.426  23.566  66.239  1.00  0.00     0.117 C
BRANCH  17  18
HETATM   18  C3  UNL     1     -10.638  25.011  66.523  1.00  0.00     0.137 C
BRANCH  18  19
HETATM   19  N1  UNL     1     -11.554  25.142  67.636  1.00  0.00    -0.360 N
HETATM   20  C2  UNL     1     -12.391  26.279  67.810  1.00  0.00     0.213 C
HETATM   21  C1  UNL     1     -13.304  26.347  68.978  1.00  0.00     0.117 C
HETATM   22  O1  UNL     1     -12.402  27.247  67.020  1.00  0.00    -0.274 OA
ATOM     23  H1  UNL     1     -11.600  24.390  68.323  1.00  0.00     0.162 HD
ENDBRANCH  18  19
ENDBRANCH  17  18
ENDBRANCH   1  17
TORSDOF 3
ENDMDL