MODEL 4
REMARK VINA RESULT: -6.453068089      2.857      6.533
REMARK  4 active torsions:
REMARK  status: ('A' for Active; 'I' for Inactive)
REMARK       I    between atoms: C2_4  and  N2_5
REMARK       I    between atoms: C2_4  and  N4_15
REMARK    1  A    between atoms: N3_8  and  C5_9
REMARK    2  A    between atoms: C5_9  and  C6_10
REMARK    3  A    between atoms: C6_10  and  O1_11
REMARK    4  A    between atoms: C14_21  and  C15_22
ROOT
HETATM    1  C15 UNL     1     -10.166  21.423  58.057  1.00  0.00     0.149 C
HETATM    2  C16 UNL     1     -11.253  20.497  58.347  1.00  0.00     0.061 C
HETATM    3  N5  UNL     1     -12.107  19.770  58.595  1.00  0.00    -0.197 NA
ENDROOT
BRANCH   1   4
HETATM    4  C14 UNL     1     -10.635  22.868  58.201  1.00  0.00     0.116 C
HETATM    5  N4  UNL     1     -11.278  23.111  59.444  1.00  0.00    -0.212 N
HETATM    6  C2  UNL     1     -10.784  22.936  60.760  1.00  0.00     0.674 C
HETATM    7  C9  UNL     1     -12.607  23.613  59.204  1.00  0.00     0.150 C
HETATM    8  N1  UNL     1      -9.918  23.796  61.224  1.00  0.00    -0.231 N
HETATM    9  N2  UNL     1     -11.154  21.889  61.651  1.00  0.00    -0.215 N
HETATM   10  C1  UNL     1      -9.345  23.743  62.529  1.00  0.00     0.165 C
ATOM     11  H1  UNL     1      -9.632  24.560  60.611  1.00  0.00     0.177 HD
HETATM   12  C3  UNL     1     -12.415  21.871  62.345  1.00  0.00     0.171 C
HETATM   13  C8  UNL     1     -10.174  20.834  61.816  1.00  0.00     0.171 C
HETATM   14  C4  UNL     1     -12.377  21.149  63.674  1.00  0.00     0.293 C
HETATM   15  N3  UNL     1     -11.622  19.925  63.429  1.00  0.00     0.093 N
HETATM   16  C7  UNL     1     -10.248  20.197  63.215  1.00  0.00     0.293 C
HETATM   17  C10 UNL     1     -12.597  24.105  57.770  1.00  0.00    -0.029 C
HETATM   18  C11 UNL     1     -12.003  25.490  57.650  1.00  0.00     0.016 C
HETATM   19  C12 UNL     1     -13.953  24.108  57.132  1.00  0.00     0.016 C
HETATM   20  C13 UNL     1     -11.648  23.136  57.128  1.00  0.00     0.037 C
BRANCH  15  21
HETATM   21  C5  UNL     1     -11.994  18.862  64.269  1.00  0.00     0.298 C
BRANCH  21  22
HETATM   22  C6  UNL     1     -13.489  18.799  64.435  1.00  0.00     0.194 C
BRANCH  22  23
HETATM   23  O1  UNL     1     -14.026  17.747  63.655  1.00  0.00    -0.399 OA
ATOM     24  H1  UNL     1     -14.611  18.094  62.992  1.00  0.00     0.209 HD
ENDBRANCH  22  23
ENDBRANCH  21  22
ENDBRANCH  15  21
ENDBRANCH   1   4
TORSDOF 4
ENDMDL