MODEL 1
REMARK VINA RESULT: -7.749893949      0.000      0.000
REMARK  5 active torsions:
REMARK  status: ('A' for Active; 'I' for Inactive)
REMARK       I    between atoms: C1_2  and  N1_3
REMARK    1  A    between atoms: C1_2  and  C8_12
REMARK    2  A    between atoms: N1_3  and  C2_4
REMARK    3  A    between atoms: C2_4  and  C3_5
REMARK    4  A    between atoms: C3_5  and  N2_6
REMARK    5  A    between atoms: C8_12  and  N3_14
ROOT
HETATM    1  O1  UNL     1      -8.886  23.375  64.149  1.00  0.00    -0.248 OA
HETATM    2  C1  UNL     1      -9.978  22.836  63.894  1.00  0.00     0.353 C
HETATM    3  N1  UNL     1     -10.367  22.564  62.507  1.00  0.00    -0.380 NA
ENDROOT
BRANCH   2   4
HETATM    4  C8  UNL     1     -10.906  22.453  64.937  1.00  0.00     0.182 C
HETATM    5  S1  UNL     1     -10.990  23.416  66.281  1.00  0.00    -0.053 SA
BRANCH   4   6
HETATM    6  N3  UNL     1     -11.773  21.365  64.836  1.00  0.00    -0.367 N
HETATM    7  C9  UNL     1     -11.068  20.046  65.063  1.00  0.00     0.124 C
HETATM    8  C10 UNL     1     -11.755  19.493  66.286  1.00  0.00     0.020 C
HETATM    9  C11 UNL     1     -12.912  18.648  66.044  1.00  0.00     0.002 C
HETATM   10  C12 UNL     1     -13.905  19.026  65.038  1.00  0.00     0.002 C
HETATM   11  C13 UNL     1     -13.670  20.112  64.079  1.00  0.00     0.020 C
HETATM   12  C14 UNL     1     -13.197  21.416  64.642  1.00  0.00     0.124 C
ENDBRANCH   4   6
ENDBRANCH   2   4
BRANCH   3  13
HETATM   13  C2  UNL     1     -10.707  22.325  61.263  1.00  0.00     0.189 C
BRANCH  13  14
HETATM   14  C3  UNL     1     -11.067  20.892  60.840  1.00  0.00     0.331 C
BRANCH  14  15
HETATM   15  N2  UNL     1     -11.189  20.834  59.417  1.00  0.00     0.098 N
HETATM   16  C4  UNL     1     -11.198  22.054  58.758  1.00  0.00     0.299 C
HETATM   17  C5  UNL     1     -10.006  22.173  57.801  1.00  0.00     0.198 C
HETATM   18  O2  UNL     1      -9.940  21.104  56.988  1.00  0.00    -0.388 OA
HETATM   19  C6  UNL     1      -9.993  19.847  57.517  1.00  0.00     0.198 C
HETATM   20  C7  UNL     1     -10.321  19.782  58.936  1.00  0.00     0.299 C
ENDBRANCH  14  15
ENDBRANCH  13  14
ENDBRANCH   3  13
TORSDOF 5
ENDMDL