MODEL 5
REMARK VINA RESULT: -6.006402396      3.768      7.115
REMARK  4 active torsions:
REMARK  status: ('A' for Active; 'I' for Inactive)
REMARK    1  A    between atoms: N1_1  and  S1_4
REMARK    2  A    between atoms: S1_4  and  N2_7
REMARK    3  A    between atoms: N3_14  and  C6_15
REMARK    4  A    between atoms: C6_15  and  C7_16
ROOT
HETATM    1  N2  UNL     1      -9.858  22.510  63.719  1.00  0.00    -0.272 N
HETATM    2  C1  UNL     1     -10.356  21.574  64.621  1.00  0.00     0.088 C
HETATM    3  C2  UNL     1     -11.718  21.011  64.303  1.00  0.00     0.120 C
HETATM    4  S2  UNL     1     -12.266  21.771  62.750  1.00  0.00    -0.152 SA
HETATM    5  C3  UNL     1     -10.827  21.695  61.615  1.00  0.00     0.029 C
HETATM    6  C4  UNL     1     -10.696  20.253  61.130  1.00  0.00     0.052 C
HETATM    7  C5  UNL     1     -11.813  19.977  60.175  1.00  0.00     0.274 C
HETATM    8  N3  UNL     1     -11.657  20.727  58.943  1.00  0.00     0.088 N
HETATM    9  C10 UNL     1     -10.765  21.866  59.147  1.00  0.00     0.274 C
HETATM   10  C11 UNL     1     -11.135  22.570  60.418  1.00  0.00     0.052 C
HETATM   11  C12 UNL     1      -9.618  22.092  62.382  1.00  0.00     0.162 C
ENDROOT
BRANCH   1  12
HETATM   12  S1  UNL     1      -9.209  23.945  64.259  1.00  0.00     0.318 S
HETATM   13  O1  UNL     1      -7.749  23.829  64.668  1.00  0.00    -0.183 OA
HETATM   14  O2  UNL     1      -9.251  24.984  63.187  1.00  0.00    -0.183 OA
BRANCH  12  15
HETATM   15  N1  UNL     1     -10.059  24.496  65.653  1.00  0.00    -0.311 N
ATOM     16  H12 UNL     1     -11.043  24.763  65.691  1.00  0.00     0.170 HD
ATOM     17  H11 UNL     1      -9.383  24.499  66.417  1.00  0.00     0.170 HD
ENDBRANCH  12  15
ENDBRANCH   1  12
BRANCH   8  18
HETATM   18  C6  UNL     1     -10.989  19.881  57.931  1.00  0.00     0.277 C
BRANCH  18  19
HETATM   19  C7  UNL     1      -9.497  20.128  57.928  1.00  0.00     0.014 A
HETATM   20  C8  UNL     1      -8.537  19.054  58.264  1.00  0.00     0.007 A
HETATM   21  C9  UNL     1      -8.798  19.335  56.820  1.00  0.00     0.007 A
ENDBRANCH  18  19
ENDBRANCH   8  18
TORSDOF 4
ENDMDL