MODEL 2
REMARK VINA RESULT: -7.262693371      1.002      1.201
REMARK  5 active torsions:
REMARK  status: ('A' for Active; 'I' for Inactive)
REMARK    1  A    between atoms: C2_2  and  C3_3
REMARK    2  A    between atoms: C4_4  and  C5_5
REMARK    3  A    between atoms: C5_5  and  N1_6
REMARK    4  A    between atoms: N1_6  and  S1_8
REMARK    5  A    between atoms: S1_8  and  N2_11
ROOT
HETATM    1  N2  UNL     1     -10.539  21.508  59.920  1.00  0.00    -0.193 NA
HETATM    2  C6  UNL     1     -11.378  22.664  59.858  1.00  0.00     0.112 C
HETATM    3  C7  UNL     1     -11.226  23.433  58.565  1.00  0.00     0.056 C
HETATM    4  C8  UNL     1     -11.522  22.526  57.412  1.00  0.00     0.084 C
HETATM    5  C9  UNL     1     -10.636  21.288  57.520  1.00  0.00     0.056 C
HETATM    6  C10 UNL     1     -10.824  20.608  58.843  1.00  0.00     0.112 C
HETATM    7  C11 UNL     1     -11.147  23.215  56.116  1.00  0.00     0.205 C
HETATM    8  O3  UNL     1     -11.989  24.331  55.995  1.00  0.00    -0.386 OA
HETATM    9  C12 UNL     1     -13.270  23.819  55.757  1.00  0.00     0.193 C
HETATM   10  C13 UNL     1     -13.736  23.007  56.919  1.00  0.00     0.195 C
HETATM   11  O4  UNL     1     -12.826  22.088  57.382  1.00  0.00    -0.376 OA
ENDROOT
BRANCH   1  12
HETATM   12  S1  UNL     1     -10.761  20.735  61.441  1.00  0.00     0.299 S
HETATM   13  O1  UNL     1     -10.051  19.411  61.511  1.00  0.00    -0.188 OA
HETATM   14  O2  UNL     1     -12.235  20.447  61.618  1.00  0.00    -0.188 OA
BRANCH  12  15
HETATM   15  N1  UNL     1     -10.280  21.757  62.747  1.00  0.00    -0.296 N
ATOM     16  H1  UNL     1     -10.453  22.760  62.826  1.00  0.00     0.174 HD
BRANCH  15  17
HETATM   17  C5  UNL     1      -9.592  20.932  63.705  1.00  0.00     0.226 C
BRANCH  17  18
HETATM   18  C4  UNL     1     -10.620  20.251  64.522  1.00  0.00    -0.086 C
HETATM   19  C3  UNL     1     -11.472  19.701  65.181  1.00  0.00    -0.105 C
BRANCH  19  20
HETATM   20  C2  UNL     1     -12.520  19.024  65.962  1.00  0.00     0.089 C
HETATM   21  C1  UNL     1     -13.861  19.125  65.305  1.00  0.00     0.018 C
ENDBRANCH  19  20
ENDBRANCH  17  18
ENDBRANCH  15  17
ENDBRANCH  12  15
ENDBRANCH   1  12
TORSDOF 5
ENDMDL