MODEL 2
REMARK VINA RESULT: -6.146461260      1.828      6.614
REMARK  6 active torsions:
REMARK  status: ('A' for Active; 'I' for Inactive)
REMARK    1  A    between atoms: C2_2  and  C4_4
REMARK    2  A    between atoms: C4_4  and  C5_5
REMARK    3  A    between atoms: C11_11  and  C12_12
REMARK    4  A    between atoms: C12_12  and  C13_13
REMARK    5  A    between atoms: C19_19  and  C20_20
REMARK    6  A    between atoms: C20_20  and  O1_23
ROOT
HETATM    1  C5  UNL     1     -14.980  -7.193   7.713  1.00  0.00     0.126 C
HETATM    2  C6  UNL     1     -14.087  -6.129   8.242  1.00  0.00     0.038 C
HETATM    3  C7  UNL     1     -13.149  -6.836   9.237  1.00  0.00     0.003 C
HETATM    4  C8  UNL     1     -12.411  -7.942   8.511  1.00  0.00     0.026 C
HETATM    5  C9  UNL     1     -11.321  -7.370   7.668  1.00  0.00     0.041 C
HETATM    6  C10 UNL     1     -10.411  -6.622   8.574  1.00  0.00    -0.083 C
HETATM    7  C11 UNL     1      -9.165  -6.902   8.820  1.00  0.00    -0.024 C
HETATM    8  C15 UNL     1     -11.071  -5.433   9.245  1.00  0.00     0.043 C
HETATM    9  C16 UNL     1     -12.302  -5.892   9.992  1.00  0.00    -0.040 C
HETATM   10  C17 UNL     1     -11.858  -6.562  11.291  1.00  0.00     0.015 C
HETATM   11  C18 UNL     1     -13.097  -4.659  10.340  1.00  0.00     0.015 C
HETATM   12  C19 UNL     1     -13.405  -8.785   7.803  1.00  0.00     0.160 C
HETATM   13  O2  UNL     1     -14.208  -8.034   6.914  1.00  0.00    -0.377 OA
ENDROOT
BRANCH  12  14
HETATM   14  C20 UNL     1     -12.921  -9.975   7.079  1.00  0.00     0.077 C
HETATM   15  C21 UNL     1     -11.411 -10.084   7.358  1.00  0.00     0.048 C
HETATM   16  C22 UNL     1     -13.047  -9.901   5.581  1.00  0.00     0.048 C
BRANCH  14  17
HETATM   17  O1  UNL     1     -13.466 -11.145   7.596  1.00  0.00    -0.388 OA
ATOM     18  H1  UNL     1     -13.794 -11.712   6.907  1.00  0.00     0.210 HD
ENDBRANCH  14  17
ENDBRANCH  12  14
BRANCH   1  19
HETATM   19  C4  UNL     1     -16.260  -6.787   7.120  1.00  0.00     0.065 C
BRANCH  19  20
HETATM   20  C2  UNL     1     -16.422  -6.755   5.683  1.00  0.00    -0.091 C
HETATM   21  C1  UNL     1     -16.015  -5.872   4.805  1.00  0.00     0.014 C
HETATM   22  C3  UNL     1     -17.200  -7.931   5.109  1.00  0.00     0.042 C
ENDBRANCH  19  20
ENDBRANCH   1  19
BRANCH   7  23
HETATM   23  C12 UNL     1      -8.379  -8.013   8.265  1.00  0.00     0.027 C
BRANCH  23  24
HETATM   24  C13 UNL     1      -7.644  -7.442   7.040  1.00  0.00    -0.001 C
HETATM   25  C14 UNL     1      -6.962  -8.529   6.265  1.00  0.00     0.005 C
ENDBRANCH  23  24
ENDBRANCH   7  23
TORSDOF 6
ENDMDL