MODEL 5
REMARK VINA RESULT: -5.761429367      2.437      5.903
REMARK  6 active torsions:
REMARK  status: ('A' for Active; 'I' for Inactive)
REMARK    1  A    between atoms: C2_2  and  C3_3
REMARK    2  A    between atoms: C2_2  and  C8_8
REMARK    3  A    between atoms: C3_3  and  C4_4
REMARK    4  A    between atoms: C4_4  and  C5_5
REMARK    5  A    between atoms: C10_10  and  O1_11
REMARK    6  A    between atoms: C18_20  and  C19_21
ROOT
HETATM    1  C8  UNL     1     -14.426  -6.812   5.175  1.00  0.00     0.021 C
HETATM    2  C9  UNL     1     -14.937  -7.733   4.060  1.00  0.00     0.042 C
HETATM    3  C10 UNL     1     -15.345  -9.021   4.762  1.00  0.00     0.127 C
HETATM    4  C11 UNL     1     -14.262  -9.060   5.824  1.00  0.00    -0.013 C
HETATM    5  C12 UNL     1     -12.946  -9.227   5.118  1.00  0.00     0.018 C
HETATM    6  C13 UNL     1     -14.486 -10.074   6.877  1.00  0.00     0.013 C
HETATM    7  C14 UNL     1     -14.484  -9.440   8.238  1.00  0.00     0.010 C
HETATM    8  C15 UNL     1     -13.373  -8.453   8.444  1.00  0.00    -0.039 C
HETATM    9  C16 UNL     1     -12.026  -9.110   8.648  1.00  0.00     0.015 C
HETATM   10  C17 UNL     1     -13.692  -7.702   9.737  1.00  0.00     0.021 C
HETATM   11  C18 UNL     1     -13.021  -6.368   9.461  1.00  0.00     0.048 C
HETATM   12  C20 UNL     1     -13.547  -6.063   8.064  1.00  0.00     0.017 C
HETATM   13  C21 UNL     1     -13.334  -7.389   7.366  1.00  0.00    -0.000 C
HETATM   14  C22 UNL     1     -14.421  -7.656   6.399  1.00  0.00     0.009 C
ENDROOT
BRANCH   1  15
HETATM   15  C2  UNL     1     -15.331  -5.617   5.306  1.00  0.00    -0.085 C
HETATM   16  C1  UNL     1     -14.879  -4.420   4.992  1.00  0.00     0.014 C
BRANCH  15  17
HETATM   17  C3  UNL     1     -16.705  -5.806   5.781  1.00  0.00     0.034 C
BRANCH  17  18
HETATM   18  C4  UNL     1     -17.798  -5.264   4.946  1.00  0.00     0.008 C
BRANCH  18  19
HETATM   19  C5  UNL     1     -18.485  -6.207   4.028  1.00  0.00    -0.023 C
HETATM   20  C6  UNL     1     -18.536  -7.623   4.620  1.00  0.00     0.009 C
HETATM   21  C7  UNL     1     -17.727  -6.390   2.714  1.00  0.00     0.009 C
ENDBRANCH  18  19
ENDBRANCH  17  18
ENDBRANCH  15  17
ENDBRANCH   1  15
BRANCH   3  22
HETATM   22  O1  UNL     1     -15.163 -10.126   3.934  1.00  0.00    -0.395 OA
ATOM     23  H1  UNL     1     -15.799 -10.806   4.123  1.00  0.00     0.210 HD
ENDBRANCH   3  22
BRANCH  11  24
HETATM   24  C19 UNL     1     -13.371  -5.334  10.439  1.00  0.00     0.235 C
HETATM   25  O2  UNL     1     -12.705  -4.317  10.488  1.00  0.00    -0.306 OA
ENDBRANCH  11  24
TORSDOF 6
ENDMDL