MODEL 3
REMARK VINA RESULT: -8.273719745      1.703      6.288
REMARK  6 active torsions:
REMARK  status: ('A' for Active; 'I' for Inactive)
REMARK    1  A    between atoms: C4_4  and  C5_5
REMARK    2  A    between atoms: C7_7  and  C8_8
REMARK    3  A    between atoms: C8_8  and  O1_9
REMARK    4  A    between atoms: O1_9  and  C9_10
REMARK    5  A    between atoms: C9_10  and  O2_11
REMARK    6  A    between atoms: C9_10  and  C10_13
ROOT
HETATM    1  C10 UNL     1     -13.951  -8.148   8.423  1.00  0.00     0.050 C
HETATM    2  C11 UNL     1     -13.268  -6.767   8.309  1.00  0.00     0.019 C
HETATM    3  C12 UNL     1     -12.077  -7.038   9.233  1.00  0.00    -0.039 C
HETATM    4  C13 UNL     1     -12.522  -7.110  10.678  1.00  0.00     0.015 C
HETATM    5  C14 UNL     1     -11.052  -5.959   9.145  1.00  0.00     0.010 C
HETATM    6  C15 UNL     1      -9.673  -6.587   9.211  1.00  0.00     0.005 C
HETATM    7  C16 UNL     1      -9.486  -7.318   7.915  1.00  0.00    -0.018 C
HETATM    8  C17 UNL     1      -9.439  -6.247   6.815  1.00  0.00     0.010 C
HETATM    9  C18 UNL     1     -10.572  -8.317   7.661  1.00  0.00     0.010 C
HETATM   10  C19 UNL     1     -11.617  -8.389   8.737  1.00  0.00     0.002 C
HETATM   11  C20 UNL     1     -12.867  -9.104   8.200  1.00  0.00    -0.035 C
HETATM   12  C21 UNL     1     -12.679  -9.640   6.833  1.00  0.00     0.016 C
HETATM   13  C22 UNL     1     -13.073 -10.321   9.110  1.00  0.00     0.016 C
ENDROOT
BRANCH   1  14
HETATM   14  C9  UNL     1     -15.220  -8.221   7.711  1.00  0.00     0.261 C
BRANCH  14  15
HETATM   15  O1  UNL     1     -15.830  -7.091   7.266  1.00  0.00    -0.357 OA
BRANCH  15  16
HETATM   16  C8  UNL     1     -16.792  -7.467   6.294  1.00  0.00     0.198 C
BRANCH  16  17
HETATM   17  C7  UNL     1     -16.217  -8.159   5.172  1.00  0.00     0.006 C
HETATM   18  C5  UNL     1     -15.376  -7.621   4.306  1.00  0.00    -0.064 C
HETATM   19  C6  UNL     1     -14.915  -8.536   3.233  1.00  0.00     0.048 C
BRANCH  18  20
HETATM   20  C4  UNL     1     -14.915  -6.257   4.367  1.00  0.00     0.008 C
HETATM   21  C2  UNL     1     -15.532  -5.145   4.152  1.00  0.00    -0.087 C
HETATM   22  C1  UNL     1     -16.924  -4.968   3.771  1.00  0.00     0.043 C
HETATM   23  C3  UNL     1     -14.740  -3.841   4.308  1.00  0.00     0.043 C
ENDBRANCH  18  20
ENDBRANCH  16  17
ENDBRANCH  15  16
ENDBRANCH  14  15
BRANCH  14  24
HETATM   24  O2  UNL     1     -16.158  -8.759   8.664  1.00  0.00    -0.371 OA
ATOM     25  H2  UNL     1     -16.605  -9.441   8.177  1.00  0.00     0.212 HD
ENDBRANCH  14  24
ENDBRANCH   1  14
TORSDOF 6
ENDMDL