MODEL 3
REMARK VINA RESULT: -6.667192683      2.977      7.422
REMARK  7 active torsions:
REMARK  status: ('A' for Active; 'I' for Inactive)
REMARK    1  A    between atoms: C2_2  and  C4_4
REMARK    2  A    between atoms: C4_4  and  C5_5
REMARK    3  A    between atoms: C5_5  and  C6_6
REMARK    4  A    between atoms: C6_6  and  C7_7
REMARK    5  A    between atoms: C7_7  and  C9_9
REMARK    6  A    between atoms: C13_13  and  N1_15
REMARK       I    between atoms: N1_15  and  C15_17
REMARK    7  A    between atoms: C15_17  and  O2_19
ROOT
HETATM    1  C9  UNL     1     -10.548  -7.727   7.255  1.00  0.00     0.002 A
HETATM    2  C10 UNL     1     -10.978  -9.133   7.052  1.00  0.00    -0.006 A
HETATM    3  C11 UNL     1     -10.038 -10.260   7.282  1.00  0.00     0.011 C
HETATM    4  C12 UNL     1     -12.056  -8.920   8.053  1.00  0.00     0.026 A
HETATM    5  C13 UNL     1     -13.488  -8.967   7.633  1.00  0.00     0.036 C
HETATM    6  C14 UNL     1     -13.983 -10.388   7.764  1.00  0.00     0.039 C
HETATM    7  C17 UNL     1     -14.347  -8.142   8.592  1.00  0.00     0.031 C
HETATM    8  C18 UNL     1     -13.895  -6.727   8.674  1.00  0.00     0.003 C
HETATM    9  C19 UNL     1     -12.534  -6.455   8.094  1.00  0.00     0.010 C
HETATM   10  C20 UNL     1     -11.527  -7.547   8.332  1.00  0.00    -0.033 A
HETATM   11  C21 UNL     1     -11.080  -7.463   9.763  1.00  0.00     0.016 C
ENDROOT
BRANCH   1  12
HETATM   12  C7  UNL     1      -9.129  -7.347   7.382  1.00  0.00    -0.013 C
HETATM   13  C8  UNL     1      -8.991  -5.849   7.246  1.00  0.00     0.010 C
BRANCH  12  14
HETATM   14  C6  UNL     1      -8.239  -7.858   8.384  1.00  0.00     0.005 C
BRANCH  14  15
HETATM   15  C5  UNL     1      -7.079  -8.649   7.888  1.00  0.00     0.005 C
BRANCH  15  16
HETATM   16  C4  UNL     1      -6.685  -8.640   6.475  1.00  0.00     0.033 C
BRANCH  16  17
HETATM   17  C2  UNL     1      -5.521  -7.659   6.379  1.00  0.00    -0.093 C
HETATM   18  C1  UNL     1      -5.664  -6.437   5.886  1.00  0.00     0.014 C
HETATM   19  C3  UNL     1      -4.203  -8.100   6.854  1.00  0.00     0.042 C
ENDBRANCH  16  17
ENDBRANCH  15  16
ENDBRANCH  14  15
ENDBRANCH  12  14
ENDBRANCH   1  12
BRANCH   5  20
HETATM   20  N1  UNL     1     -13.772  -8.514   6.306  1.00  0.00    -0.328 N
HETATM   21  C15 UNL     1     -15.045  -8.203   5.768  1.00  0.00     0.360 C
HETATM   22  O1  UNL     1     -16.140  -8.283   6.382  1.00  0.00    -0.239 OA
ATOM     23  H1  UNL     1     -12.973  -8.403   5.682  1.00  0.00     0.165 HD
BRANCH  21  24
HETATM   24  O2  UNL     1     -15.188  -7.758   4.435  1.00  0.00    -0.309 OA
HETATM   25  C16 UNL     1     -14.956  -8.615   3.335  1.00  0.00     0.215 C
ENDBRANCH  21  24
ENDBRANCH   5  20
TORSDOF 7
ENDMDL