MODEL 1
REMARK VINA RESULT: -7.363331642      0.000      0.000
REMARK  6 active torsions:
REMARK  status: ('A' for Active; 'I' for Inactive)
REMARK    1  A    between atoms: C2_2  and  C4_4
REMARK    2  A    between atoms: C6_6  and  O1_7
REMARK    3  A    between atoms: C9_12  and  C10_13
REMARK    4  A    between atoms: C11_14  and  C12_15
REMARK    5  A    between atoms: C16_19  and  C18_21
REMARK    6  A    between atoms: C18_21  and  C19_22
ROOT
HETATM    1  C4  UNL     1     -11.246  -8.387   8.194  1.00  0.00     0.025 C
HETATM    2  C5  UNL     1     -11.308  -6.923   8.678  1.00  0.00     0.044 C
HETATM    3  C6  UNL     1     -12.273  -6.885   9.803  1.00  0.00     0.153 C
HETATM    4  C7  UNL     1     -13.532  -7.624   9.645  1.00  0.00     0.091 A
HETATM    5  C8  UNL     1     -14.029  -8.191  10.984  1.00  0.00     0.049 C
HETATM    6  O2  UNL     1     -14.528  -6.765   9.177  1.00  0.00    -0.368 OA
HETATM    7  C9  UNL     1     -14.804  -7.616   8.079  1.00  0.00     0.153 A
HETATM    8  C15 UNL     1     -13.696  -8.513   8.504  1.00  0.00     0.064 A
HETATM    9  C16 UNL     1     -12.533  -8.726   7.576  1.00  0.00    -0.024 C
HETATM   10  C17 UNL     1     -12.502 -10.276   7.380  1.00  0.00     0.016 C
ENDROOT
BRANCH   9  11
HETATM   11  C18 UNL     1     -12.893  -8.177   6.253  1.00  0.00     0.037 C
BRANCH  11  12
HETATM   12  C19 UNL     1     -13.727  -8.972   5.354  1.00  0.00    -0.024 C
HETATM   13  C20 UNL     1     -14.492  -8.451   4.397  1.00  0.00    -0.091 C
HETATM   14  C21 UNL     1     -15.320  -9.299   3.513  1.00  0.00     0.042 C
HETATM   15  C22 UNL     1     -14.492  -6.979   4.223  1.00  0.00     0.042 C
ENDBRANCH  11  12
ENDBRANCH   9  11
BRANCH   1  16
HETATM   16  C2  UNL     1      -9.989  -8.664   7.541  1.00  0.00    -0.088 C
HETATM   17  C1  UNL     1      -9.121  -7.680   7.297  1.00  0.00     0.014 C
HETATM   18  C3  UNL     1      -9.560 -10.019   7.137  1.00  0.00     0.043 C
ENDBRANCH   1  16
BRANCH   7  19
HETATM   19  C10 UNL     1     -16.192  -8.153   8.328  1.00  0.00     0.005 C
HETATM   20  C11 UNL     1     -17.192  -7.832   7.551  1.00  0.00    -0.002 C
BRANCH  20  21
HETATM   21  C12 UNL     1     -17.041  -6.947   6.407  1.00  0.00    -0.005 C
HETATM   22  C13 UNL     1     -17.599  -7.196   5.234  1.00  0.00    -0.031 C
HETATM   23  C14 UNL     1     -18.411  -8.413   5.060  1.00  0.00     0.036 C
ENDBRANCH  20  21
ENDBRANCH   7  19
BRANCH   3  24
HETATM   24  O1  UNL     1     -12.525  -5.531  10.127  1.00  0.00    -0.393 OA
ATOM     25  H1  UNL     1     -12.572  -5.454  11.073  1.00  0.00     0.210 HD
ENDBRANCH   3  24
TORSDOF 6
ENDMDL