MODEL 5
REMARK VINA RESULT: -8.048571603      2.680      6.775
REMARK  6 active torsions:
REMARK  status: ('A' for Active; 'I' for Inactive)
REMARK    1  A    between atoms: C2_2  and  C4_4
REMARK    2  A    between atoms: C4_4  and  C7_7
REMARK    3  A    between atoms: C7_7  and  O1_9
REMARK    4  A    between atoms: C7_7  and  C9_11
REMARK    5  A    between atoms: C9_11  and  C10_12
REMARK    6  A    between atoms: C10_12  and  C11_13
ROOT
HETATM    1  C11 UNL     1     -12.763  -7.215   7.966  1.00  0.00     0.004 C
HETATM    2  C12 UNL     1     -13.073  -8.014   6.770  1.00  0.00     0.046 C
HETATM    3  C13 UNL     1     -13.418  -9.458   7.067  1.00  0.00    -0.020 C
HETATM    4  C14 UNL     1     -14.555  -9.625   7.716  1.00  0.00     0.001 C
HETATM    5  C15 UNL     1     -15.312  -8.373   8.049  1.00  0.00     0.146 C
HETATM    6  C16 UNL     1     -14.710  -7.880   9.349  1.00  0.00     0.045 C
HETATM    7  C17 UNL     1     -13.217  -7.779   9.296  1.00  0.00    -0.041 C
HETATM    8  C18 UNL     1     -12.881  -6.670  10.312  1.00  0.00     0.015 C
HETATM    9  C19 UNL     1     -12.480  -8.999   9.734  1.00  0.00     0.015 C
HETATM   10  O2  UNL     1     -15.316  -7.426   7.069  1.00  0.00    -0.371 OA
HETATM   11  C20 UNL     1     -14.365  -7.524   6.095  1.00  0.00     0.062 C
HETATM   12  C21 UNL     1     -14.059  -6.240   5.396  1.00  0.00     0.046 C
HETATM   13  C22 UNL     1     -14.760  -8.543   5.018  1.00  0.00     0.046 C
ENDROOT
BRANCH   1  14
HETATM   14  C10 UNL     1     -11.320  -6.829   7.993  1.00  0.00     0.009 C
BRANCH  14  15
HETATM   15  C9  UNL     1     -10.392  -7.769   7.269  1.00  0.00     0.039 C
BRANCH  15  16
HETATM   16  C7  UNL     1      -8.951  -7.355   7.484  1.00  0.00     0.065 C
HETATM   17  C8  UNL     1      -8.874  -6.685   8.835  1.00  0.00     0.047 C
BRANCH  16  18
HETATM   18  C4  UNL     1      -8.082  -8.571   7.495  1.00  0.00     0.005 C
HETATM   19  C5  UNL     1      -8.850  -9.811   7.042  1.00  0.00     0.023 C
HETATM   20  C6  UNL     1      -7.582  -8.856   8.878  1.00  0.00     0.023 C
BRANCH  18  21
HETATM   21  C2  UNL     1      -6.910  -8.397   6.570  1.00  0.00    -0.082 C
HETATM   22  C1  UNL     1      -6.925  -8.772   5.299  1.00  0.00     0.015 C
HETATM   23  C3  UNL     1      -5.656  -7.772   7.097  1.00  0.00     0.043 C
ENDBRANCH  18  21
ENDBRANCH  16  18
BRANCH  16  24
HETATM   24  O1  UNL     1      -8.563  -6.437   6.500  1.00  0.00    -0.389 OA
ATOM     25  H1  UNL     1      -8.429  -5.566   6.856  1.00  0.00     0.210 HD
ENDBRANCH  16  24
ENDBRANCH  15  16
ENDBRANCH  14  15
ENDBRANCH   1  14
TORSDOF 6
ENDMDL