MODEL 1
REMARK VINA RESULT: -10.220296013      0.000      0.000
REMARK  6 active torsions:
REMARK  status: ('A' for Active; 'I' for Inactive)
REMARK    1  A    between atoms: C2_2  and  O1_3
REMARK    2  A    between atoms: C2_2  and  C3_5
REMARK    3  A    between atoms: C5_7  and  C6_8
REMARK    4  A    between atoms: C13_15  and  C14_16
REMARK    5  A    between atoms: C14_16  and  C16_18
REMARK    6  A    between atoms: C16_18  and  C17_19
ROOT
HETATM    1  C3  UNL     1     -11.080  -9.297   7.556  1.00  0.00     0.044 C
HETATM    2  C4  UNL     1     -10.936  -7.813   7.940  1.00  0.00     0.017 C
HETATM    3  C5  UNL     1     -12.216  -7.509   8.674  1.00  0.00     0.001 C
HETATM    4  C9  UNL     1     -13.478  -7.799   7.984  1.00  0.00    -0.009 C
HETATM    5  C10 UNL     1     -14.516  -8.069   9.103  1.00  0.00     0.018 C
HETATM    6  C11 UNL     1     -14.041  -6.618   7.210  1.00  0.00     0.015 C
HETATM    7  C12 UNL     1     -15.451  -6.985   6.739  1.00  0.00     0.033 C
HETATM    8  C13 UNL     1     -15.487  -8.273   6.009  1.00  0.00     0.126 C
HETATM    9  O2  UNL     1     -14.260  -8.833   5.923  1.00  0.00    -0.374 OA
HETATM   10  C20 UNL     1     -13.477  -8.953   7.029  1.00  0.00     0.066 C
HETATM   11  C21 UNL     1     -13.944 -10.219   7.765  1.00  0.00     0.047 C
HETATM   12  C22 UNL     1     -12.103  -9.302   6.485  1.00  0.00     0.049 C
ENDROOT
BRANCH   8  13
HETATM   13  C14 UNL     1     -15.945  -8.093   4.520  1.00  0.00     0.011 C
HETATM   14  C15 UNL     1     -14.905  -8.829   3.681  1.00  0.00     0.012 C
BRANCH  13  15
HETATM   15  C16 UNL     1     -15.994  -6.671   4.163  1.00  0.00     0.010 C
BRANCH  15  16
HETATM   16  C17 UNL     1     -17.341  -6.144   3.839  1.00  0.00    -0.022 C
HETATM   17  C18 UNL     1     -17.932  -5.050   4.626  1.00  0.00     0.009 C
HETATM   18  C19 UNL     1     -18.373  -7.311   3.800  1.00  0.00     0.009 C
ENDBRANCH  15  16
ENDBRANCH  13  15
ENDBRANCH   8  13
BRANCH   3  19
HETATM   19  C6  UNL     1     -12.098  -6.172   9.329  1.00  0.00    -0.018 C
HETATM   20  C7  UNL     1     -12.455  -6.385  10.819  1.00  0.00     0.010 C
HETATM   21  C8  UNL     1     -10.679  -5.628   9.365  1.00  0.00     0.010 C
ENDBRANCH   3  19
BRANCH   1  22
HETATM   22  C2  UNL     1      -9.800  -9.906   7.250  1.00  0.00     0.038 C
HETATM   23  C1  UNL     1      -8.670  -9.290   7.489  1.00  0.00     0.046 C
BRANCH  22  24
HETATM   24  O1  UNL     1      -9.773 -11.172   6.691  1.00  0.00    -0.365 OA
ATOM     25  H1  UNL     1     -10.296 -11.863   7.082  1.00  0.00     0.217 HD
ENDBRANCH  22  24
ENDBRANCH   1  22
TORSDOF 6
ENDMDL