MODEL 2
REMARK VINA RESULT: -8.627139203      1.987      6.500
REMARK  6 active torsions:
REMARK  status: ('A' for Active; 'I' for Inactive)
REMARK    1  A    between atoms: C2_2  and  C3_3
REMARK    2  A    between atoms: C3_3  and  C4_5
REMARK    3  A    between atoms: C4_5  and  C5_6
REMARK    4  A    between atoms: C15_18  and  C17_20
REMARK    5  A    between atoms: C17_20  and  C18_21
REMARK    6  A    between atoms: C18_21  and  C19_22
ROOT
HETATM    1  C5  UNL     1     -13.915  -8.469   6.015  1.00  0.00    -0.003 C
HETATM    2  C6  UNL     1     -13.739  -9.742   6.715  1.00  0.00     0.008 C
HETATM    3  C7  UNL     1     -12.512  -9.906   7.566  1.00  0.00     0.034 C
HETATM    4  C8  UNL     1     -12.473  -8.939   8.659  1.00  0.00     0.060 A
HETATM    5  N1  UNL     1     -12.887  -9.053   9.953  1.00  0.00    -0.398 N
ATOM      6  H1  UNL     1     -12.741  -9.377  10.909  1.00  0.00     0.155 HD
HETATM    7  C9  UNL     1     -13.696  -8.361   8.950  1.00  0.00     0.057 A
HETATM    8  C10 UNL     1     -15.078  -8.549   9.298  1.00  0.00     0.041 C
HETATM    9  C11 UNL     1     -13.271  -7.204   8.120  1.00  0.00    -0.004 C
HETATM   10  C12 UNL     1     -13.794  -5.961   8.847  1.00  0.00     0.019 C
HETATM   11  C13 UNL     1     -13.560  -7.207   6.685  1.00  0.00    -0.003 C
HETATM   12  C14 UNL     1     -14.606  -6.121   6.351  1.00  0.00     0.011 C
HETATM   13  C15 UNL     1     -11.836  -7.585   8.371  1.00  0.00    -0.006 C
HETATM   14  C16 UNL     1     -11.299  -6.890   9.652  1.00  0.00     0.019 C
ENDROOT
BRANCH  13  15
HETATM   15  C17 UNL     1     -10.809  -7.477   7.350  1.00  0.00     0.016 C
BRANCH  15  16
HETATM   16  C18 UNL     1      -9.447  -7.072   7.790  1.00  0.00     0.028 C
BRANCH  16  17
HETATM   17  C19 UNL     1      -8.326  -7.256   6.853  1.00  0.00    -0.025 C
HETATM   18  C20 UNL     1      -7.532  -8.345   6.890  1.00  0.00    -0.091 C
HETATM   19  C21 UNL     1      -6.407  -8.509   5.933  1.00  0.00     0.042 C
HETATM   20  C22 UNL     1      -7.767  -9.404   7.888  1.00  0.00     0.042 C
ENDBRANCH  16  17
ENDBRANCH  15  16
ENDBRANCH  13  15
BRANCH   1  21
HETATM   21  C4  UNL     1     -15.358  -8.456   5.494  1.00  0.00     0.083 C
BRANCH  21  22
HETATM   22  C3  UNL     1     -15.399  -8.235   4.023  1.00  0.00     0.127 C
HETATM   23  O1  UNL     1     -14.587  -8.751   3.280  1.00  0.00    -0.298 OA
BRANCH  22  24
HETATM   24  C2  UNL     1     -16.425  -7.376   3.371  1.00  0.00     0.074 C
HETATM   25  C1  UNL     1     -17.805  -7.658   3.860  1.00  0.00     0.013 C
ENDBRANCH  22  24
ENDBRANCH  21  22
ENDBRANCH   1  21
TORSDOF 6
ENDMDL