MODEL 3
REMARK VINA RESULT: -8.131754953      1.477      2.412
REMARK  7 active torsions:
REMARK  status: ('A' for Active; 'I' for Inactive)
REMARK    1  A    between atoms: C4_4  and  C5_5
REMARK    2  A    between atoms: C6_6  and  C7_7
REMARK    3  A    between atoms: C9_9  and  C10_10
REMARK    4  A    between atoms: C10_10  and  C11_11
REMARK    5  A    between atoms: C11_11  and  C12_12
REMARK    6  A    between atoms: C12_12  and  O2_14
REMARK    7  A    between atoms: O2_14  and  C13_15
ROOT
HETATM    1  C7  UNL     1     -12.949  -7.839   7.357  1.00  0.00     0.052 C
HETATM    2  C8  UNL     1     -13.863  -6.679   7.551  1.00  0.00    -0.068 C
HETATM    3  C9  UNL     1     -14.479  -5.919   6.687  1.00  0.00    -0.022 C
HETATM    4  C17 UNL     1     -13.948  -6.535   9.055  1.00  0.00     0.113 C
HETATM    5  C18 UNL     1     -13.603  -7.875   9.584  1.00  0.00     0.139 C
HETATM    6  O3  UNL     1     -13.441  -8.173  10.740  1.00  0.00    -0.297 OA
HETATM    7  C19 UNL     1     -13.490  -8.792   8.428  1.00  0.00     0.024 C
HETATM    8  C20 UNL     1     -12.526  -9.924   8.685  1.00  0.00     0.024 C
HETATM    9  C21 UNL     1     -14.857  -9.271   8.050  1.00  0.00     0.024 C
ENDROOT
BRANCH   1  10
HETATM   10  C6  UNL     1     -11.590  -7.384   7.754  1.00  0.00    -0.017 C
HETATM   11  C5  UNL     1     -10.498  -8.040   7.515  1.00  0.00    -0.003 C
BRANCH  11  12
HETATM   12  C4  UNL     1      -9.215  -7.515   7.942  1.00  0.00     0.002 C
HETATM   13  C2  UNL     1      -8.155  -8.282   8.060  1.00  0.00    -0.088 C
HETATM   14  C1  UNL     1      -6.851  -7.726   8.499  1.00  0.00     0.043 C
HETATM   15  C3  UNL     1      -8.314  -9.736   7.736  1.00  0.00     0.043 C
ENDBRANCH  11  12
ENDBRANCH   1  10
BRANCH   3  16
HETATM   16  C10 UNL     1     -14.340  -6.129   5.235  1.00  0.00     0.037 C
BRANCH  16  17
HETATM   17  C11 UNL     1     -15.368  -5.314   4.439  1.00  0.00     0.115 C
BRANCH  17  18
HETATM   18  C12 UNL     1     -16.711  -5.673   4.948  1.00  0.00     0.259 C
HETATM   19  O1  UNL     1     -17.637  -4.814   5.075  1.00  0.00    -0.265 OA
BRANCH  18  20
HETATM   20  O2  UNL     1     -17.031  -6.968   5.314  1.00  0.00    -0.311 OA
BRANCH  20  21
HETATM   21  C13 UNL     1     -17.434  -7.918   4.350  1.00  0.00     0.060 C
HETATM   22  C14 UNL     1     -16.314  -8.816   3.911  1.00  0.00     0.045 C
HETATM   23  C15 UNL     1     -18.075  -7.294   3.146  1.00  0.00     0.045 C
HETATM   24  C16 UNL     1     -18.481  -8.797   5.015  1.00  0.00     0.045 C
ENDBRANCH  20  21
ENDBRANCH  18  20
ENDBRANCH  17  18
ENDBRANCH  16  17
ENDBRANCH   3  16
TORSDOF 7
ENDMDL