MODEL 1
REMARK VINA RESULT: -5.944067624      0.000      0.000
REMARK  5 active torsions:
REMARK  status: ('A' for Active; 'I' for Inactive)
REMARK    1  A    between atoms: C2_2  and  C3_3
REMARK    2  A    between atoms: C6_6  and  C7_7
REMARK    3  A    between atoms: C12_13  and  C13_14
REMARK    4  A    between atoms: C13_14  and  C14_15
REMARK    5  A    between atoms: C19_20  and  O2_21
ROOT
HETATM    1  C3  UNL     1      -9.903  -7.849   7.283  1.00  0.00    -0.018 C
HETATM    2  C4  UNL     1     -11.320  -8.044   7.259  1.00  0.00    -0.037 C
HETATM    3  C5  UNL     1     -12.238  -7.314   8.189  1.00  0.00     0.021 C
HETATM    4  C6  UNL     1     -11.987  -7.183   9.436  1.00  0.00     0.016 C
HETATM    5  C11 UNL     1     -13.529  -6.771   7.657  1.00  0.00     0.189 C
HETATM    6  O1  UNL     1     -13.945  -5.701   8.146  1.00  0.00    -0.287 OA
HETATM    7  C12 UNL     1     -14.343  -7.397   6.605  1.00  0.00    -0.005 C
HETATM    8  C18 UNL     1     -14.014  -8.561   6.024  1.00  0.00     0.017 C
HETATM    9  C19 UNL     1     -12.975  -9.554   6.091  1.00  0.00     0.154 C
HETATM   10  C20 UNL     1     -11.900  -9.440   7.136  1.00  0.00     0.009 C
HETATM   11  C21 UNL     1     -10.845 -10.476   6.770  1.00  0.00     0.023 C
HETATM   12  C22 UNL     1     -12.517  -9.922   8.430  1.00  0.00     0.023 C
ENDROOT
BRANCH   4  13
HETATM   13  C7  UNL     1     -12.763  -6.520  10.441  1.00  0.00     0.003 C
HETATM   14  C8  UNL     1     -12.516  -5.271  10.833  1.00  0.00    -0.088 C
HETATM   15  C9  UNL     1     -13.330  -4.622  11.864  1.00  0.00     0.043 C
HETATM   16  C10 UNL     1     -11.400  -4.545  10.204  1.00  0.00     0.043 C
ENDBRANCH   4  13
BRANCH   1  17
HETATM   17  C2  UNL     1      -8.970  -8.083   8.372  1.00  0.00     0.023 C
HETATM   18  C1  UNL     1      -7.734  -8.838   7.767  1.00  0.00     0.009 C
ENDBRANCH   1  17
BRANCH   7  19
HETATM   19  C13 UNL     1     -15.600  -6.744   6.173  1.00  0.00     0.070 C
BRANCH  19  20
HETATM   20  C14 UNL     1     -16.627  -7.821   5.997  1.00  0.00    -0.020 C
HETATM   21  C15 UNL     1     -17.518  -7.770   5.020  1.00  0.00    -0.091 C
HETATM   22  C16 UNL     1     -18.506  -8.861   4.896  1.00  0.00     0.042 C
HETATM   23  C17 UNL     1     -17.554  -6.651   4.049  1.00  0.00     0.042 C
ENDBRANCH  19  20
ENDBRANCH   7  19
BRANCH   9  24
HETATM   24  O2  UNL     1     -13.616 -10.791   6.374  1.00  0.00    -0.391 OA
ATOM     25  H2  UNL     1     -13.351 -11.394   5.689  1.00  0.00     0.210 HD
ENDBRANCH   9  24
TORSDOF 5
ENDMDL