MODEL 3
REMARK VINA RESULT: -7.735753368      0.907      1.186
REMARK  2 active torsions:
REMARK  status: ('A' for Active; 'I' for Inactive)
REMARK    1  A    between atoms: C3_3  and  C5_5
REMARK    2  A    between atoms: C11_13  and  C12_14
ROOT
HETATM    1  C5  UNL     1      12.657  51.964  61.323  1.00  0.00     0.046 C
HETATM    2  N1  UNL     1      11.191  52.245  61.236  1.00  0.00    -0.384 N
ATOM      3  H1  UNL     1      10.739  52.985  61.773  1.00  0.00     0.160 HD
HETATM    4  C6  UNL     1      10.456  51.371  60.320  1.00  0.00     0.082 C
HETATM    5  C7  UNL     1       8.987  51.456  60.499  1.00  0.00     0.032 C
HETATM    6  C8  UNL     1      10.896  51.918  58.955  1.00  0.00     0.064 C
HETATM    7  C9  UNL     1      12.347  51.551  58.913  1.00  0.00    -0.042 A
HETATM    8  C10 UNL     1      12.823  51.139  57.703  1.00  0.00     0.017 A
HETATM    9  C11 UNL     1      14.120  50.728  57.547  1.00  0.00    -0.028 A
HETATM   10  C15 UNL     1      14.930  50.734  58.654  1.00  0.00     0.074 A
HETATM   11  N2  UNL     1      16.266  50.331  58.530  1.00  0.00    -0.100 NA
HETATM   12  C16 UNL     1      14.448  51.149  59.903  1.00  0.00     0.082 A
HETATM   13  C17 UNL     1      15.237  50.642  61.022  1.00  0.00     0.102 C
HETATM   14  N3  UNL     1      15.903  50.113  61.846  1.00  0.00    -0.191 NA
HETATM   15  C18 UNL     1      13.189  51.566  60.046  1.00  0.00     0.020 A
ENDROOT
BRANCH   9  16
HETATM   16  C12 UNL     1      14.602  50.297  56.212  1.00  0.00     0.012 C
HETATM   17  C13 UNL     1      15.926  49.585  56.295  1.00  0.00     0.015 C
HETATM   18  C14 UNL     1      13.561  49.377  55.570  1.00  0.00     0.015 C
ENDBRANCH   9  16
BRANCH   1  19
HETATM   19  C3  UNL     1      13.264  52.307  62.380  1.00  0.00    -0.039 C
HETATM   20  C2  UNL     1      13.646  52.192  63.741  1.00  0.00    -0.022 C
HETATM   21  C1  UNL     1      13.262  53.349  64.666  1.00  0.00     0.036 C
HETATM   22  C4  UNL     1      13.887  53.779  62.039  1.00  0.00     0.050 C
ENDBRANCH   1  19
TORSDOF 2
ENDMDL