MODEL 2
REMARK VINA RESULT: -7.069555779      1.312      1.625
REMARK  1 active torsions:
REMARK  status: ('A' for Active; 'I' for Inactive)
REMARK    1  A    between atoms: C8_8  and  C9_9
ROOT
HETATM    1  C9  UNL     1      12.443  51.235  60.397  1.00  0.00     0.209 A
HETATM    2  N1  UNL     1      11.143  50.723  59.965  1.00  0.00    -0.365 N
ATOM      3  H1  UNL     1      11.043  49.719  59.825  1.00  0.00     0.161 HD
HETATM    4  C10 UNL     1      10.005  51.553  59.730  1.00  0.00     0.098 A
HETATM    5  S1  UNL     1       8.404  51.214  59.239  1.00  0.00    -0.075 SA
HETATM    6  C11 UNL     1       7.782  52.799  59.228  1.00  0.00    -0.017 A
HETATM    7  C12 UNL     1       6.392  53.281  58.882  1.00  0.00     0.056 C
HETATM    8  C13 UNL     1       8.849  53.553  59.610  1.00  0.00     0.046 A
HETATM    9  C14 UNL     1      10.012  52.898  59.872  1.00  0.00     0.069 A
HETATM   10  N2  UNL     1      11.289  53.461  60.295  1.00  0.00    -0.323 N
ATOM     11  H2  UNL     1      11.368  54.470  60.421  1.00  0.00     0.169 HD
HETATM   12  C15 UNL     1      12.415  52.656  60.534  1.00  0.00     0.249 A
HETATM   13  O1  UNL     1      13.471  53.270  60.901  1.00  0.00    -0.270 OA
ENDROOT
BRANCH   1  14
HETATM   14  C8  UNL     1      13.434  50.573  59.560  1.00  0.00    -0.019 A
HETATM   15  C6  UNL     1      14.632  50.084  60.005  1.00  0.00    -0.047 A
HETATM   16  C4  UNL     1      15.458  49.473  59.059  1.00  0.00    -0.055 A
HETATM   17  C7  UNL     1      15.003  50.218  61.403  1.00  0.00     0.049 C
HETATM   18  C3  UNL     1      15.128  49.347  57.735  1.00  0.00     0.014 A
HETATM   19  C5  UNL     1      16.745  48.951  59.563  1.00  0.00     0.049 C
HETATM   20  C2  UNL     1      13.924  49.839  57.282  1.00  0.00    -0.061 A
HETATM   21  C1  UNL     1      13.529  49.717  55.837  1.00  0.00     0.048 C
HETATM   22  C16 UNL     1      13.104  50.440  58.205  1.00  0.00     0.017 A
ENDBRANCH   1  14
TORSDOF 1
ENDMDL