MODEL 4
REMARK VINA RESULT: -7.589668119      1.722      4.894
REMARK  2 active torsions:
REMARK  status: ('A' for Active; 'I' for Inactive)
REMARK    1  A    between atoms: C9_9  and  N1_11
REMARK    2  A    between atoms: N1_11  and  C11_13
ROOT
HETATM    1  C1  UNL     1       8.117  51.193  58.865  1.00  0.00     0.049 C
HETATM    2  C2  UNL     1       9.538  51.373  59.189  1.00  0.00    -0.053 A
HETATM    3  C3  UNL     1      10.478  50.404  58.911  1.00  0.00     0.044 A
HETATM    4  C4  UNL     1      11.832  50.582  59.222  1.00  0.00     0.079 A
HETATM    5  C5  UNL     1      12.221  51.733  59.808  1.00  0.00     0.003 A
HETATM    6  C6  UNL     1      11.301  52.739  60.107  1.00  0.00     0.019 A
HETATM    7  C7  UNL     1       9.968  52.517  59.779  1.00  0.00    -0.055 A
HETATM    8  C8  UNL     1       9.015  53.591  60.106  1.00  0.00     0.049 C
HETATM    9  C9  UNL     1      13.654  52.063  60.197  1.00  0.00     0.055 C
HETATM   10  C10 UNL     1      14.053  53.031  59.090  1.00  0.00     0.044 C
HETATM   11  C15 UNL     1      14.498  50.841  60.158  1.00  0.00     0.073 C
HETATM   12  C16 UNL     1      14.133  49.843  59.088  1.00  0.00     0.063 C
HETATM   13  C17 UNL     1      14.757  48.510  59.528  1.00  0.00     0.046 C
HETATM   14  C18 UNL     1      14.824  50.207  57.784  1.00  0.00     0.046 C
HETATM   15  O1  UNL     1      12.771  49.621  58.949  1.00  0.00    -0.340 OA
ENDROOT
BRANCH   9  16
HETATM   16  N1  UNL     1      13.553  52.604  61.463  1.00  0.00    -0.401 N
ATOM     17  H1  UNL     1      13.562  53.624  61.490  1.00  0.00     0.155 HD
BRANCH  16  18
HETATM   18  C11 UNL     1      13.445  52.011  62.673  1.00  0.00     0.015 C
HETATM   19  C12 UNL     1      14.352  50.877  63.040  1.00  0.00     0.037 C
HETATM   20  C13 UNL     1      13.765  53.117  63.722  1.00  0.00     0.037 C
HETATM   21  C14 UNL     1      12.037  51.609  63.021  1.00  0.00     0.037 C
ENDBRANCH  16  18
ENDBRANCH   9  16
TORSDOF 2
ENDMDL