MODEL 2
REMARK VINA RESULT: -7.836520802      1.751      3.825
REMARK  1 active torsions:
REMARK  status: ('A' for Active; 'I' for Inactive)
REMARK       I    between atoms: C2_2  and  N1_4
REMARK    1  A    between atoms: N1_4  and  C3_6
ROOT
HETATM    1  C3  UNL     1      11.490  51.317  60.674  1.00  0.00     0.045 A
HETATM    2  C4  UNL     1      11.921  51.856  61.812  1.00  0.00     0.033 A
HETATM    3  C5  UNL     1      13.350  52.104  62.128  1.00  0.00     0.043 A
HETATM    4  C6  UNL     1      13.587  53.554  62.509  1.00  0.00     0.042 C
HETATM    5  C7  UNL     1      13.631  51.307  63.414  1.00  0.00     0.042 C
HETATM    6  N2  UNL     1      14.267  51.728  61.128  1.00  0.00    -0.377 N
ATOM      7  H2  UNL     1      15.263  51.875  61.289  1.00  0.00     0.160 HD
HETATM    8  C8  UNL     1      13.839  51.137  59.875  1.00  0.00     0.042 A
HETATM    9  C9  UNL     1      14.765  50.791  58.943  1.00  0.00     0.043 A
HETATM   10  C10 UNL     1      14.427  50.216  57.710  1.00  0.00    -0.010 A
HETATM   11  C11 UNL     1      15.246  49.827  56.698  1.00  0.00    -0.044 A
HETATM   12  C12 UNL     1      16.761  49.953  56.724  1.00  0.00     0.049 C
HETATM   13  C13 UNL     1      14.644  49.290  55.595  1.00  0.00     0.058 A
HETATM   14  S1  UNL     1      12.983  49.342  55.989  1.00  0.00    -0.101 SA
HETATM   15  C14 UNL     1      13.095  50.036  57.530  1.00  0.00     0.016 A
HETATM   16  C15 UNL     1      12.125  50.389  58.485  1.00  0.00     0.035 A
HETATM   17  C16 UNL     1      12.496  50.951  59.682  1.00  0.00     0.018 A
ENDROOT
BRANCH   1  18
HETATM   18  N1  UNL     1      10.123  51.093  60.403  1.00  0.00    -0.327 N
HETATM   19  C2  UNL     1       9.083  52.010  60.238  1.00  0.00     0.218 C
HETATM   20  C1  UNL     1       7.698  51.478  59.952  1.00  0.00     0.117 C
HETATM   21  O1  UNL     1       9.183  53.228  60.303  1.00  0.00    -0.274 OA
ATOM     22  H1  UNL     1       9.854  50.113  60.315  1.00  0.00     0.169 HD
ENDBRANCH   1  18
TORSDOF 1
ENDMDL