MODEL 3
REMARK VINA RESULT: -7.471924171      2.403      6.409
REMARK  2 active torsions:
REMARK  status: ('A' for Active; 'I' for Inactive)
REMARK    1  A    between atoms: C6_6  and  N1_7
REMARK       I    between atoms: N1_7  and  C7_8
REMARK    2  A    between atoms: C7_8  and  C8_10
ROOT
HETATM    1  N1  UNL     1      11.666  52.017  59.602  1.00  0.00    -0.365 NA
HETATM    2  C7  UNL     1      12.992  52.254  59.617  1.00  0.00     0.329 C
HETATM    3  O1  UNL     1      13.454  53.380  59.975  1.00  0.00    -0.251 OA
ENDROOT
BRANCH   1   4
HETATM    4  C6  UNL     1      10.343  51.782  59.587  1.00  0.00     0.123 A
HETATM    5  C4  UNL     1       9.828  50.495  59.677  1.00  0.00    -0.020 A
HETATM    6  C3  UNL     1       8.488  50.222  59.689  1.00  0.00     0.017 A
HETATM    7  C5  UNL     1      10.783  49.348  59.756  1.00  0.00     0.052 C
HETATM    8  C2  UNL     1       7.609  51.265  59.611  1.00  0.00    -0.061 A
HETATM    9  C1  UNL     1       6.140  51.003  59.624  1.00  0.00     0.048 C
HETATM   10  C16 UNL     1       8.054  52.545  59.522  1.00  0.00     0.017 A
HETATM   11  C14 UNL     1       9.406  52.813  59.509  1.00  0.00    -0.020 A
HETATM   12  C15 UNL     1       9.973  54.180  59.397  1.00  0.00     0.052 C
ENDBRANCH   1   4
BRANCH   2  13
HETATM   13  C8  UNL     1      14.085  51.274  59.234  1.00  0.00     0.084 A
HETATM   14  C9  UNL     1      14.844  50.676  60.213  1.00  0.00     0.104 A
HETATM   15  N2  UNL     1      14.753  50.844  61.644  1.00  0.00    -0.093 NA
HETATM   16  S1  UNL     1      15.928  49.676  59.358  1.00  0.00    -0.079 SA
HETATM   17  C10 UNL     1      15.408  50.025  57.779  1.00  0.00    -0.013 A
HETATM   18  C11 UNL     1      15.962  49.460  56.487  1.00  0.00     0.057 C
HETATM   19  C12 UNL     1      14.387  50.926  57.963  1.00  0.00    -0.030 A
HETATM   20  C13 UNL     1      13.665  51.445  56.725  1.00  0.00     0.050 C
ENDBRANCH   2  13
TORSDOF 2
ENDMDL