MODEL 5
REMARK VINA RESULT: -5.840391102      1.503      6.370
REMARK  1 active torsions:
REMARK  status: ('A' for Active; 'I' for Inactive)
REMARK    1  A    between atoms: C6_8  and  C7_9
ROOT
HETATM    1  C1  UNL     1       8.094  52.626  61.347  1.00  0.00     0.050 C
HETATM    2  C2  UNL     1       9.342  52.154  60.708  1.00  0.00    -0.037 A
HETATM    3  C3  UNL     1      10.524  52.166  61.405  1.00  0.00     0.042 A
HETATM    4  C4  UNL     1      11.703  51.811  60.735  1.00  0.00     0.079 A
HETATM    5  C5  UNL     1      11.707  51.460  59.401  1.00  0.00     0.129 A
HETATM    6  N1  UNL     1      10.496  51.470  58.758  1.00  0.00    -0.344 N
ATOM      7  H1  UNL     1      10.470  51.222  57.769  1.00  0.00     0.167 HD
HETATM    8  C6  UNL     1       9.338  51.793  59.370  1.00  0.00     0.020 A
HETATM    9  N2  UNL     1      12.908  51.067  58.744  1.00  0.00    -0.356 N
ATOM     10  H2  UNL     1      12.873  50.875  57.742  1.00  0.00     0.162 HD
HETATM   11  C10 UNL     1      14.194  50.926  59.436  1.00  0.00     0.113 A
HETATM   12  C11 UNL     1      15.149  51.938  58.902  1.00  0.00     0.041 C
HETATM   13  C12 UNL     1      16.100  51.544  57.876  1.00  0.00     0.003 C
HETATM   14  C13 UNL     1      15.851  50.357  57.032  1.00  0.00     0.000 C
HETATM   15  C14 UNL     1      16.439  49.125  57.731  1.00  0.00     0.000 C
HETATM   16  C15 UNL     1      16.114  49.276  59.197  1.00  0.00     0.003 C
HETATM   17  C16 UNL     1      14.637  49.501  59.322  1.00  0.00     0.041 C
HETATM   18  C17 UNL     1      14.053  51.219  60.894  1.00  0.00     0.250 A
HETATM   19  O1  UNL     1      15.065  51.014  61.606  1.00  0.00    -0.270 OA
HETATM   20  N3  UNL     1      12.875  51.703  61.510  1.00  0.00    -0.322 N
ATOM     21  H3  UNL     1      12.874  51.968  62.495  1.00  0.00     0.169 HD
ENDROOT
BRANCH   8  22
HETATM   22  C7  UNL     1       8.019  51.539  58.769  1.00  0.00     0.028 C
HETATM   23  C8  UNL     1       6.940  51.076  59.725  1.00  0.00     0.016 C
HETATM   24  C9  UNL     1       7.483  53.021  58.425  1.00  0.00     0.016 C
ENDBRANCH   8  22
TORSDOF 1
ENDMDL