MODEL 4
REMARK VINA RESULT: -6.762441966      1.938      3.077
REMARK  3 active torsions:
REMARK  status: ('A' for Active; 'I' for Inactive)
REMARK    1  A    between atoms: C9_10  and  N1_11
REMARK    2  A    between atoms: N1_11  and  N2_13
REMARK       I    between atoms: N2_13  and  C10_15
REMARK       I    between atoms: C10_15  and  N3_17
REMARK    3  A    between atoms: N3_17  and  C11_19
ROOT
HETATM    1  N1  UNL     1      12.018  49.377  58.879  1.00  0.00    -0.299 N
ATOM      2  H1  UNL     1      11.992  48.623  59.565  1.00  0.00     0.186 HD
ENDROOT
BRANCH   1   3
HETATM    3  C9  UNL     1      13.192  49.826  58.524  1.00  0.00     0.051 C
HETATM    4  C2  UNL     1      13.728  49.660  57.204  1.00  0.00     0.016 C
HETATM    5  C1  UNL     1      13.163  49.570  56.027  1.00  0.00     0.033 C
HETATM    6  S1  UNL     1      15.518  49.589  57.478  1.00  0.00    -0.118 SA
HETATM    7  C3  UNL     1      15.470  50.456  59.074  1.00  0.00     0.018 C
HETATM    8  C4  UNL     1      16.331  49.751  60.098  1.00  0.00     0.028 C
HETATM    9  C5  UNL     1      16.104  51.818  58.841  1.00  0.00     0.028 C
HETATM   10  C6  UNL     1      14.037  50.535  59.463  1.00  0.00     0.014 C
HETATM   11  C7  UNL     1      13.765  50.062  60.864  1.00  0.00     0.023 C
HETATM   12  C8  UNL     1      13.620  52.014  59.428  1.00  0.00     0.023 C
ENDBRANCH   1   3
BRANCH   1  13
HETATM   13  N2  UNL     1      10.817  49.839  58.404  1.00  0.00    -0.251 N
HETATM   14  C10 UNL     1      10.045  50.742  59.209  1.00  0.00     0.335 C
HETATM   15  O1  UNL     1      10.464  51.111  60.345  1.00  0.00    -0.246 OA
HETATM   16  N3  UNL     1       8.804  51.239  58.758  1.00  0.00    -0.334 N
ATOM     17  H3  UNL     1       8.451  50.952  57.845  1.00  0.00     0.165 HD
ATOM     18  H2  UNL     1      10.477  49.545  57.489  1.00  0.00     0.191 HD
BRANCH  16  19
HETATM   19  C11 UNL     1       8.028  52.144  59.565  1.00  0.00     0.023 C
HETATM   20  C12 UNL     1       6.929  51.372  60.275  1.00  0.00     0.037 C
HETATM   21  C13 UNL     1       8.884  52.847  60.609  1.00  0.00     0.037 C
HETATM   22  C14 UNL     1       7.388  53.223  58.720  1.00  0.00     0.037 C
ENDBRANCH  16  19
ENDBRANCH   1  13
TORSDOF 3
ENDMDL