MODEL 4
REMARK VINA RESULT: -6.965010185      1.591      3.416
REMARK  4 active torsions:
REMARK  status: ('A' for Active; 'I' for Inactive)
REMARK       I    between atoms: C2_2  and  N1_4
REMARK    1  A    between atoms: N1_4  and  C3_6
REMARK    2  A    between atoms: C4_8  and  C5_9
REMARK    3  A    between atoms: C9_13  and  O2_14
REMARK    4  A    between atoms: C10_16  and  C11_17
ROOT
HETATM    1  C3  UNL     1      13.104  52.593  60.338  1.00  0.00     0.086 A
HETATM    2  S1  UNL     1      14.554  52.275  59.509  1.00  0.00    -0.073 SA
HETATM    3  C4  UNL     1      13.958  51.176  58.333  1.00  0.00     0.026 A
HETATM    4  C9  UNL     1      12.642  51.103  58.639  1.00  0.00     0.089 A
HETATM    5  C10 UNL     1      12.179  51.825  59.669  1.00  0.00     0.018 A
ENDROOT
BRANCH   1   6
HETATM    6  N1  UNL     1      12.972  53.460  61.453  1.00  0.00    -0.321 N
HETATM    7  C2  UNL     1      13.532  53.067  62.698  1.00  0.00     0.218 C
HETATM    8  C1  UNL     1      13.448  53.899  63.917  1.00  0.00     0.117 C
HETATM    9  O1  UNL     1      14.141  51.957  62.817  1.00  0.00    -0.274 OA
ATOM     10  H1  UNL     1      12.483  54.351  61.362  1.00  0.00     0.169 HD
ENDBRANCH   1   6
BRANCH   5  11
HETATM   11  C11 UNL     1      10.744  51.878  60.154  1.00  0.00    -0.019 C
HETATM   12  C12 UNL     1       9.821  51.010  59.368  1.00  0.00     0.019 C
HETATM   13  C13 UNL     1      10.269  53.303  60.051  1.00  0.00     0.019 C
HETATM   14  C14 UNL     1      10.700  51.377  61.596  1.00  0.00     0.019 C
ENDBRANCH   5  11
BRANCH   3  15
HETATM   15  C5  UNL     1      14.730  50.478  57.240  1.00  0.00    -0.015 C
HETATM   16  C6  UNL     1      16.162  50.957  57.371  1.00  0.00     0.020 C
HETATM   17  C7  UNL     1      14.225  50.876  55.886  1.00  0.00     0.020 C
HETATM   18  C8  UNL     1      14.723  48.990  57.442  1.00  0.00     0.020 C
ENDBRANCH   3  15
BRANCH   4  19
HETATM   19  O2  UNL     1      11.794  50.269  57.866  1.00  0.00    -0.359 OA
ATOM     20  H2  UNL     1      12.072  50.000  56.999  1.00  0.00     0.217 HD
ENDBRANCH   4  19
TORSDOF 4
ENDMDL