MODEL 2
REMARK VINA RESULT: -7.177638318      3.169      5.215
REMARK  0 active torsions:
REMARK  status: ('A' for Active; 'I' for Inactive)
ROOT
HETATM    1  O1  UNL     1      17.221  51.621  59.991  1.00  0.00    -0.273 OA
HETATM    2  C1  UNL     1      16.279  51.672  59.120  1.00  0.00     0.224 C
HETATM    3  C2  UNL     1      15.161  52.573  59.503  1.00  0.00     0.103 C
HETATM    4  C3  UNL     1      14.592  52.084  60.844  1.00  0.00     0.009 C
HETATM    5  C4  UNL     1      13.629  53.115  61.313  1.00  0.00     0.000 C
HETATM    6  C5  UNL     1      12.984  52.857  62.623  1.00  0.00     0.000 C
HETATM    7  C6  UNL     1      12.437  51.497  62.854  1.00  0.00     0.000 C
HETATM    8  C7  UNL     1      10.929  51.500  62.683  1.00  0.00     0.000 C
HETATM    9  C8  UNL     1      10.651  51.692  61.207  1.00  0.00     0.000 C
HETATM   10  C9  UNL     1       9.390  51.008  60.769  1.00  0.00     0.000 C
HETATM   11  C10 UNL     1       9.547  49.744  60.051  1.00  0.00     0.000 C
HETATM   12  C11 UNL     1      10.819  49.508  59.312  1.00  0.00     0.004 C
HETATM   13  C12 UNL     1      10.993  50.338  58.078  1.00  0.00     0.031 C
HETATM   14  C13 UNL     1      11.787  49.562  57.088  1.00  0.00     0.031 C
HETATM   15  C14 UNL     1      13.102  49.650  56.983  1.00  0.00     0.162 A
HETATM   16  N1  UNL     1      13.982  48.974  56.089  1.00  0.00    -0.277 N
ATOM     17  H1  UNL     1      13.706  48.298  55.376  1.00  0.00     0.189 HD
HETATM   18  N2  UNL     1      15.282  49.393  56.357  1.00  0.00    -0.263 N
ATOM     19  H2  UNL     1      16.127  49.082  55.877  1.00  0.00     0.190 HD
HETATM   20  C15 UNL     1      15.223  50.246  57.323  1.00  0.00     0.247 A
HETATM   21  N3  UNL     1      16.330  50.928  57.914  1.00  0.00    -0.291 N
ATOM     22  H3  UNL     1      17.228  50.875  57.431  1.00  0.00     0.172 HD
HETATM   23  O2  UNL     1      13.919  50.444  57.745  1.00  0.00    -0.260 OA
ENDROOT
TORSDOF 0
ENDMDL