MODEL 3
REMARK VINA RESULT: -6.356894193      3.421      4.863
REMARK  3 active torsions:
REMARK  status: ('A' for Active; 'I' for Inactive)
REMARK    1  A    between atoms: C8_11  and  C9_12
REMARK       I    between atoms: C9_12  and  N2_14
REMARK    2  A    between atoms: C11_16  and  O2_17
REMARK    3  A    between atoms: C11_16  and  C12_19
ROOT
HETATM    1  C1  UNL     1       0.462   8.228  12.632  1.00  0.00     0.039 C
HETATM    2  C2  UNL     1      -0.469   7.393  11.780  1.00  0.00     0.118 C
HETATM    3  C3  UNL     1      -1.114   6.391  12.680  1.00  0.00     0.042 C
HETATM    4  C4  UNL     1      -2.019   5.405  11.919  1.00  0.00    -0.021 C
HETATM    5  C5  UNL     1      -3.290   6.174  11.619  1.00  0.00     0.038 C
HETATM    6  C6  UNL     1      -4.420   5.872  12.533  1.00  0.00     0.233 C
HETATM    7  N1  UNL     1      -3.918   5.627  13.848  1.00  0.00    -0.074 N
ATOM      8  H11 UNL     1      -4.652   5.669  14.555  1.00  0.00     0.277 HD
ATOM      9  H12 UNL     1      -3.341   6.395  14.190  1.00  0.00     0.277 HD
HETATM   10  C7  UNL     1      -3.223   4.380  13.868  1.00  0.00     0.247 C
HETATM   11  C8  UNL     1      -2.209   4.216  12.760  1.00  0.00     0.112 C
HETATM   12  C13 UNL     1      -1.339   5.160  10.605  1.00  0.00     0.036 C
HETATM   13  C14 UNL     1       0.143   5.419  10.772  1.00  0.00     0.169 C
HETATM   14  O3  UNL     1       0.316   6.799  10.791  1.00  0.00    -0.386 OA
ENDROOT
BRANCH  11  15
HETATM   15  C9  UNL     1      -2.483   2.929  12.106  1.00  0.00     0.229 C
HETATM   16  O1  UNL     1      -1.470   2.282  11.667  1.00  0.00    -0.273 OA
HETATM   17  N2  UNL     1      -3.759   2.344  11.920  1.00  0.00    -0.309 N
HETATM   18  C10 UNL     1      -5.220   2.227  11.999  1.00  0.00     0.196 A
HETATM   19  C11 UNL     1      -4.531   1.172  11.354  1.00  0.00     0.213 A
BRANCH  19  20
HETATM   20  O2  UNL     1      -4.362   1.098   9.951  1.00  0.00    -0.365 OA
ATOM     21  H2  UNL     1      -4.252   0.195   9.676  1.00  0.00     0.212 HD
ENDBRANCH  19  20
BRANCH  19  22
HETATM   22  C12 UNL     1      -4.107  -0.108  12.027  1.00  0.00     0.410 C
HETATM   23  F1  UNL     1      -4.581  -0.258  13.302  1.00  0.00    -0.209 F
HETATM   24  F2  UNL     1      -4.524  -1.178  11.259  1.00  0.00    -0.209 F
ENDBRANCH  19  22
ENDBRANCH  11  15
TORSDOF 3
ENDMDL