MODEL 2
REMARK VINA RESULT: -7.030447072      1.263      1.590
REMARK  6 active torsions:
REMARK  status: ('A' for Active; 'I' for Inactive)
REMARK    1  A    between atoms: C1_2  and  C2_4
REMARK    2  A    between atoms: N1_8  and  C5_9
REMARK    3  A    between atoms: C5_9  and  O3_10
REMARK    4  A    between atoms: C5_9  and  C6_12
REMARK    5  A    between atoms: C6_12  and  O4_13
REMARK    6  A    between atoms: C11_21  and  O5_22
ROOT
HETATM    1  C6  UNL     1      -5.360   4.799  14.103  1.00  0.00     0.148 C
HETATM    2  C7  UNL     1      -5.410   5.364  15.519  1.00  0.00     0.055 C
HETATM    3  C8  UNL     1      -6.344   4.589  16.405  1.00  0.00     0.082 C
HETATM    4  C9  UNL     1      -6.030   3.112  16.428  1.00  0.00     0.246 C
HETATM    5  F1  UNL     1      -5.733   2.672  17.717  1.00  0.00    -0.206 F
HETATM    6  F2  UNL     1      -7.094   2.341  15.999  1.00  0.00    -0.206 F
HETATM    7  C10 UNL     1      -4.852   2.793  15.522  1.00  0.00     0.114 C
HETATM    8  C11 UNL     1      -5.188   3.283  14.146  1.00  0.00     0.166 C
ENDROOT
BRANCH   1   9
HETATM    9  C5  UNL     1      -4.123   5.330  13.515  1.00  0.00     0.153 C
BRANCH   9  10
HETATM   10  N1  UNL     1      -3.340   4.821  12.459  1.00  0.00    -0.338 N
HETATM   11  C2  UNL     1      -3.642   4.711  11.084  1.00  0.00     0.197 C
HETATM   12  C3  UNL     1      -2.510   5.293  10.246  1.00  0.00     0.112 C
HETATM   13  S1  UNL     1      -1.084   4.977  11.312  1.00  0.00    -0.147 SA
HETATM   14  C4  UNL     1      -1.986   4.278  12.721  1.00  0.00     0.200 C
BRANCH  11  15
HETATM   15  C1  UNL     1      -3.924   3.337  10.607  1.00  0.00     0.197 C
HETATM   16  O1  UNL     1      -4.900   2.707  11.058  1.00  0.00    -0.646 OA
HETATM   17  O2  UNL     1      -3.106   2.765   9.669  1.00  0.00    -0.646 OA
ENDBRANCH  11  15
ENDBRANCH   9  10
BRANCH   9  18
HETATM   18  O3  UNL     1      -3.751   6.435  14.106  1.00  0.00    -0.347 OA
ATOM     19  H3  UNL     1      -3.176   6.383  14.860  1.00  0.00     0.219 HD
ENDBRANCH   9  18
ENDBRANCH   1   9
BRANCH   1  20
HETATM   20  O4  UNL     1      -6.535   5.058  13.480  1.00  0.00    -0.379 OA
ATOM     21  H4  UNL     1      -7.332   5.059  13.997  1.00  0.00     0.211 HD
ENDBRANCH   1  20
BRANCH   8  22
HETATM   22  O5  UNL     1      -6.353   2.634  13.734  1.00  0.00    -0.392 OA
ATOM     23  H5  UNL     1      -6.900   3.211  13.215  1.00  0.00     0.210 HD
ENDBRANCH   8  22
TORSDOF 6
ENDMDL