MODEL 2
REMARK VINA RESULT: -7.356459260      0.583      1.161
REMARK  3 active torsions:
REMARK  status: ('A' for Active; 'I' for Inactive)
REMARK    1  A    between atoms: C3_3  and  N1_4
REMARK       I    between atoms: N1_4  and  C4_6
REMARK       I    between atoms: C4_6  and  N2_8
REMARK    2  A    between atoms: C6_10  and  N3_11
REMARK    3  A    between atoms: C12_18  and  O3_19
ROOT
HETATM    1  N1  UNL     1      -2.665   3.910  10.073  1.00  0.00    -0.332 N
ATOM      2  H1  UNL     1      -2.332   4.705  10.620  1.00  0.00     0.164 HD
HETATM    3  C4  UNL     1      -3.394   2.909  10.736  1.00  0.00     0.320 C
HETATM    4  O1  UNL     1      -3.818   1.922  10.103  1.00  0.00    -0.247 OA
HETATM    5  N2  UNL     1      -3.655   3.005  12.120  1.00  0.00    -0.305 N
HETATM    6  C5  UNL     1      -4.404   2.033  12.939  1.00  0.00     0.166 C
HETATM    7  C6  UNL     1      -4.250   2.548  14.321  1.00  0.00     0.245 C
HETATM    8  C11 UNL     1      -4.222   4.050  14.095  1.00  0.00     0.091 C
HETATM    9  C12 UNL     1      -3.212   4.111  12.969  1.00  0.00     0.226 C
ENDROOT
BRANCH   9  10
HETATM   10  O3  UNL     1      -1.960   3.823  13.511  1.00  0.00    -0.377 OA
ATOM     11  H3  UNL     1      -1.845   4.292  14.329  1.00  0.00     0.212 HD
ENDBRANCH   9  10
BRANCH   1  12
HETATM   12  C3  UNL     1      -2.358   3.879   8.656  1.00  0.00     0.168 A
HETATM   13  C2  UNL     1      -2.477   5.141   7.861  1.00  0.00     0.085 A
HETATM   14  C1  UNL     1      -3.046   5.086   6.453  1.00  0.00     0.018 C
HETATM   15  C13 UNL     1      -1.141   4.537   8.128  1.00  0.00     0.269 A
HETATM   16  F1  UNL     1      -0.515   3.862   7.082  1.00  0.00    -0.204 F
HETATM   17  F2  UNL     1      -0.282   5.232   8.924  1.00  0.00    -0.204 F
ENDBRANCH   1  12
BRANCH   7  18
HETATM   18  N3  UNL     1      -5.178   2.111  15.275  1.00  0.00     0.099 N
HETATM   19  C7  UNL     1      -4.693   0.987  16.002  1.00  0.00     0.299 C
HETATM   20  C8  UNL     1      -5.723   0.472  17.010  1.00  0.00     0.198 C
HETATM   21  O2  UNL     1      -6.234   1.545  17.765  1.00  0.00    -0.388 OA
HETATM   22  C9  UNL     1      -6.898   2.388  16.893  1.00  0.00     0.198 C
HETATM   23  C10 UNL     1      -5.828   3.106  16.055  1.00  0.00     0.299 C
ENDBRANCH   7  18
TORSDOF 3
ENDMDL