MODEL 4
REMARK VINA RESULT: -6.472500806      2.916      3.701
REMARK  4 active torsions:
REMARK  status: ('A' for Active; 'I' for Inactive)
REMARK    1  A    between atoms: N1_4  and  C4_5
REMARK    2  A    between atoms: C4_5  and  C5_6
REMARK       I    between atoms: C5_6  and  N2_8
REMARK    3  A    between atoms: C8_11  and  O2_12
REMARK    4  A    between atoms: C11_16  and  C12_17
ROOT
HETATM    1  C1  UNL     1      -1.001   7.341  13.491  1.00  0.00     0.042 C
HETATM    2  C2  UNL     1      -2.465   7.543  13.165  1.00  0.00     0.210 C
HETATM    3  C3  UNL     1      -3.160   6.245  13.371  1.00  0.00     0.306 C
HETATM    4  N1  UNL     1      -4.520   6.168  12.919  1.00  0.00     0.111 N
HETATM    5  C11 UNL     1      -4.699   6.695  11.629  1.00  0.00     0.320 C
HETATM    6  C14 UNL     1      -3.877   7.970  11.399  1.00  0.00     0.274 C
HETATM    7  N3  UNL     1      -2.491   7.792  11.711  1.00  0.00    -0.067 N
ATOM      8  H31 UNL     1      -2.030   7.069  11.158  1.00  0.00     0.277 HD
ATOM      9  H32 UNL     1      -1.895   8.563  11.410  1.00  0.00     0.277 HD
ENDROOT
BRANCH   4  10
HETATM   10  C4  UNL     1      -5.006   4.859  13.153  1.00  0.00     0.375 C
BRANCH  10  11
HETATM   11  C5  UNL     1      -5.784   4.711  14.411  1.00  0.00     0.248 C
HETATM   12  O1  UNL     1      -6.729   5.474  14.746  1.00  0.00    -0.271 OA
HETATM   13  N2  UNL     1      -5.445   3.661  15.282  1.00  0.00    -0.350 N
HETATM   14  C6  UNL     1      -4.360   2.759  15.007  1.00  0.00     0.128 C
HETATM   15  C10 UNL     1      -6.208   3.462  16.491  1.00  0.00     0.128 C
HETATM   16  C7  UNL     1      -4.882   1.346  15.133  1.00  0.00     0.051 C
HETATM   17  C8  UNL     1      -5.440   1.067  16.500  1.00  0.00     0.121 C
HETATM   18  C9  UNL     1      -5.691   2.305  17.308  1.00  0.00     0.051 C
BRANCH  17  19
HETATM   19  O2  UNL     1      -6.619   0.310  16.447  1.00  0.00    -0.395 OA
ATOM     20  H2  UNL     1      -6.522  -0.470  15.914  1.00  0.00     0.210 HD
ENDBRANCH  17  19
ENDBRANCH  10  11
ENDBRANCH   4  10
BRANCH   5  21
HETATM   21  C12 UNL     1      -6.106   7.117  11.268  1.00  0.00     0.272 C
HETATM   22  C13 UNL     1      -6.082   8.527  10.772  1.00  0.00     0.092 C
HETATM   23  F1  UNL     1      -7.063   6.827  12.176  1.00  0.00    -0.204 F
HETATM   24  F2  UNL     1      -6.426   6.330  10.141  1.00  0.00    -0.204 F
ENDBRANCH   5  21
TORSDOF 4
ENDMDL