MODEL 2
REMARK VINA RESULT: -6.487100967      1.686      2.018
REMARK  5 active torsions:
REMARK  status: ('A' for Active; 'I' for Inactive)
REMARK    1  A    between atoms: C2_2  and  N1_3
REMARK    2  A    between atoms: N1_3  and  N2_4
REMARK       I    between atoms: N1_3  and  C10_21
REMARK    3  A    between atoms: N2_4  and  C3_6
REMARK    4  A    between atoms: C3_6  and  N3_8
REMARK    5  A    between atoms: N3_8  and  N4_10
ROOT
HETATM    1  N3  UNL     1      -3.871   3.249  11.853  1.00  0.00    -0.275 N
ATOM      2  H3  UNL     1      -3.317   3.064  11.016  1.00  0.00     0.189 HD
ENDROOT
BRANCH   1   3
HETATM    3  C3  UNL     1      -4.022   2.181  12.796  1.00  0.00     0.205 C
HETATM    4  S1  UNL     1      -4.311   0.707  12.130  1.00  0.00    -0.038 SA
BRANCH   3   5
HETATM    5  N2  UNL     1      -3.922   2.466  14.154  1.00  0.00    -0.270 N
ATOM      6  H2  UNL     1      -2.999   2.773  14.462  1.00  0.00     0.189 HD
BRANCH   5   7
HETATM    7  N1  UNL     1      -4.863   2.397  15.138  1.00  0.00    -0.260 N
HETATM    8  C10 UNL     1      -4.665   1.523  16.271  1.00  0.00     0.234 C
HETATM    9  C11 UNL     1      -5.636   1.467  17.349  1.00  0.00     0.119 C
HETATM   10  O1  UNL     1      -3.605   0.799  16.276  1.00  0.00    -0.272 OA
BRANCH   7  11
HETATM   11  C2  UNL     1      -6.056   3.187  15.172  1.00  0.00     0.148 C
HETATM   12  C1  UNL     1      -5.677   4.628  15.447  1.00  0.00     0.028 C
ENDBRANCH   7  11
ENDBRANCH   5   7
ENDBRANCH   3   5
ENDBRANCH   1   3
BRANCH   1  13
HETATM   13  N4  UNL     1      -4.410   4.492  11.987  1.00  0.00    -0.299 N
HETATM   14  C4  UNL     1      -4.371   5.507  11.251  1.00  0.00     0.092 C
HETATM   15  C5  UNL     1      -3.643   5.512   9.964  1.00  0.00     0.176 C
HETATM   16  C9  UNL     1      -5.101   6.742  11.676  1.00  0.00     0.286 C
HETATM   17  N5  UNL     1      -4.351   6.365   9.043  1.00  0.00    -0.411 N
HETATM   18  C6  UNL     1      -3.661   7.556   8.667  1.00  0.00     0.143 C
HETATM   19  C7  UNL     1      -5.742   6.520   9.274  1.00  0.00     0.123 C
HETATM   20  C8  UNL     1      -6.093   7.148  10.604  1.00  0.00     0.105 C
HETATM   21  F1  UNL     1      -4.175   7.722  11.953  1.00  0.00    -0.199 F
HETATM   22  F2  UNL     1      -5.797   6.484  12.830  1.00  0.00    -0.199 F
ATOM     23  H4  UNL     1      -4.945   4.621  12.846  1.00  0.00     0.186 HD
ENDBRANCH   1  13
TORSDOF 5
ENDMDL