MODEL 1
REMARK VINA RESULT: -6.991379595      0.000      0.000
REMARK  5 active torsions:
REMARK  status: ('A' for Active; 'I' for Inactive)
REMARK    1  A    between atoms: N1_1  and  C1_5
REMARK    2  A    between atoms: N3_14  and  C7_15
REMARK    3  A    between atoms: C7_15  and  C8_16
REMARK    4  A    between atoms: C9_17  and  C10_18
REMARK    5  A    between atoms: C10_18  and  N4_19
ROOT
HETATM    1  C1  UNL     1      -2.763   5.616  11.617  1.00  0.00     0.179 C
HETATM    2  C2  UNL     1      -2.887   6.020  13.085  1.00  0.00     0.070 C
HETATM    3  C3  UNL     1      -1.481   6.329  13.503  1.00  0.00     0.235 C
HETATM    4  N2  UNL     1      -0.635   5.510  12.691  1.00  0.00    -0.068 N
ATOM      5  H21 UNL     1      -0.312   4.673  13.176  1.00  0.00     0.277 HD
ATOM      6  H22 UNL     1       0.279   5.931  12.524  1.00  0.00     0.277 HD
HETATM    7  C4  UNL     1      -1.336   5.213  11.484  1.00  0.00     0.225 C
HETATM    8  C5  UNL     1      -1.175   3.730  11.219  1.00  0.00     0.066 C
HETATM    9  C6  UNL     1      -2.097   3.414  10.102  1.00  0.00     0.275 C
HETATM   10  N3  UNL     1      -3.499   3.544  10.415  1.00  0.00     0.101 N
HETATM   11  C16 UNL     1      -3.798   4.628  11.301  1.00  0.00     0.314 C
ENDROOT
BRANCH  10  12
HETATM   12  C7  UNL     1      -4.049   2.272  10.841  1.00  0.00     0.365 C
BRANCH  12  13
HETATM   13  C8  UNL     1      -4.096   2.154  12.276  1.00  0.00    -0.074 C
HETATM   14  C9  UNL     1      -4.091   2.074  13.500  1.00  0.00    -0.074 C
BRANCH  14  15
HETATM   15  C10 UNL     1      -4.047   1.999  14.977  1.00  0.00     0.366 C
BRANCH  15  16
HETATM   16  N4  UNL     1      -5.354   1.764  15.550  1.00  0.00     0.105 N
HETATM   17  C11 UNL     1      -6.219   2.849  15.129  1.00  0.00     0.274 C
HETATM   18  C12 UNL     1      -6.031   4.079  15.958  1.00  0.00     0.036 C
HETATM   19  C13 UNL     1      -6.519   3.791  17.355  1.00  0.00     0.082 C
HETATM   20  C14 UNL     1      -6.408   2.339  17.713  1.00  0.00     0.269 C
HETATM   21  F1  UNL     1      -6.142   2.272  19.067  1.00  0.00    -0.204 F
HETATM   22  F2  UNL     1      -7.622   1.749  17.507  1.00  0.00    -0.204 F
HETATM   23  C15 UNL     1      -5.288   1.636  16.978  1.00  0.00     0.352 C
ENDBRANCH  15  16
ENDBRANCH  14  15
ENDBRANCH  12  13
ENDBRANCH  10  12
BRANCH   1  24
HETATM   24  N1  UNL     1      -2.920   6.868  10.866  1.00  0.00    -0.067 N
ATOM     25  H13 UNL     1      -2.551   6.829   9.916  1.00  0.00     0.275 HD
ATOM     26  H12 UNL     1      -3.884   7.078  10.608  1.00  0.00     0.275 HD
ATOM     27  H11 UNL     1      -2.483   7.581  11.449  1.00  0.00     0.275 HD
ENDBRANCH   1  24
TORSDOF 5
ENDMDL