MODEL 4
REMARK VINA RESULT: -5.384941673      3.519      5.590
REMARK  4 active torsions:
REMARK  status: ('A' for Active; 'I' for Inactive)
REMARK    1  A    between atoms: O1_1  and  C1_3
REMARK    2  A    between atoms: C1_3  and  C2_4
REMARK    3  A    between atoms: C4_7  and  C5_8
REMARK    4  A    between atoms: C7_12  and  O3_13
ROOT
HETATM    1  C2  UNL     1      -5.940   2.275  16.845  1.00  0.00     0.172 C
HETATM    2  C3  UNL     1      -5.451   3.322  15.834  1.00  0.00     0.203 C
HETATM    3  O2  UNL     1      -5.471   2.659  14.617  1.00  0.00    -0.374 OA
HETATM    4  C4  UNL     1      -4.500   1.699  14.624  1.00  0.00     0.201 C
HETATM    5  C7  UNL     1      -4.378   0.887  15.851  1.00  0.00     0.290 C
HETATM    6  O4  UNL     1      -4.936   1.369  16.987  1.00  0.00    -0.349 OA
ENDROOT
BRANCH   4   7
HETATM    7  C5  UNL     1      -4.747   0.811  13.425  1.00  0.00     0.036 C
HETATM    8  C6  UNL     1      -4.287   1.158  12.241  1.00  0.00     0.056 C
HETATM    9 BR1  UNL     1      -4.601   0.039  10.745  1.00  0.00    -0.043 Br
HETATM   10 BR2  UNL     1      -3.299   2.793  12.014  1.00  0.00    -0.043 Br
ENDBRANCH   4   7
BRANCH   5  11
HETATM   11  O3  UNL     1      -4.874  -0.423  15.653  1.00  0.00    -0.368 OA
ATOM     12  H3  UNL     1      -5.591  -0.431  15.029  1.00  0.00     0.212 HD
ENDBRANCH   5  11
BRANCH   1  13
HETATM   13  C1  UNL     1      -6.238   3.018  18.114  1.00  0.00     0.198 C
BRANCH  13  14
HETATM   14  O1  UNL     1      -5.985   2.257  19.254  1.00  0.00    -0.398 OA
ATOM     15  H1  UNL     1      -5.225   1.695  19.158  1.00  0.00     0.209 HD
ENDBRANCH  13  14
ENDBRANCH   1  13
TORSDOF 4
ENDMDL