MODEL 1
REMARK VINA RESULT: -6.157742290      0.000      0.000
REMARK  4 active torsions:
REMARK  status: ('A' for Active; 'I' for Inactive)
REMARK    1  A    between atoms: C4_6  and  O2_7
REMARK    2  A    between atoms: C5_9  and  C6_10
REMARK    3  A    between atoms: C6_10  and  O3_11
REMARK    4  A    between atoms: C7_14  and  C8_15
ROOT
HETATM    1  C1  UNL     1      -6.419   4.585  14.001  1.00  0.00     0.064 C
HETATM    2  C2  UNL     1      -4.964   4.717  14.226  1.00  0.00     0.142 C
HETATM    3 CL1  UNL     1      -4.703   6.200  15.235  1.00  0.00    -0.088 Cl
HETATM    4  O1  UNL     1      -4.350   5.019  12.983  1.00  0.00    -0.356 OA
HETATM    5  C3  UNL     1      -3.594   3.863  13.082  1.00  0.00     0.166 C
HETATM    6  C4  UNL     1      -3.981   2.858  12.084  1.00  0.00     0.178 C
HETATM    7  C5  UNL     1      -4.669   1.637  12.596  1.00  0.00     0.176 C
HETATM    8  O4  UNL     1      -4.148   1.299  13.811  1.00  0.00    -0.374 OA
HETATM    9  C7  UNL     1      -4.414   2.251  14.823  1.00  0.00     0.142 C
HETATM   10  C9  UNL     1      -4.068   3.617  14.495  1.00  0.00     0.097 C
ENDROOT
BRANCH   7  11
HETATM   11  C6  UNL     1      -4.457   0.459  11.667  1.00  0.00     0.198 C
BRANCH  11  12
HETATM   12  O3  UNL     1      -4.447   0.863  10.325  1.00  0.00    -0.398 OA
ATOM     13  H3  UNL     1      -5.284   1.232  10.068  1.00  0.00     0.209 HD
ENDBRANCH  11  12
ENDBRANCH   7  11
BRANCH   6  14
HETATM   14  O2  UNL     1      -4.823   3.414  11.091  1.00  0.00    -0.390 OA
ATOM     15  H2  UNL     1      -4.343   3.998  10.515  1.00  0.00     0.210 HD
ENDBRANCH   6  14
BRANCH   9  16
HETATM   16  C8  UNL     1      -5.815   1.964  15.301  1.00  0.00     0.117 C
HETATM   17 BR1  UNL     1      -5.892   2.393  17.222  1.00  0.00    -0.094 Br
ENDBRANCH   9  16
TORSDOF 4
ENDMDL