MODEL 3
REMARK VINA RESULT: -5.174573883      3.003      4.852
REMARK  3 active torsions:
REMARK  status: ('A' for Active; 'I' for Inactive)
REMARK    1  A    between atoms: O1_1  and  C1_3
REMARK    2  A    between atoms: C1_3  and  C2_4
REMARK    3  A    between atoms: C2_4  and  C3_5
ROOT
HETATM    1  C2  UNL     1      -3.785   3.422  12.268  1.00  0.00     0.108 C
HETATM    2  O2  UNL     1      -2.995   3.473  13.394  1.00  0.00    -0.371 OA
HETATM    3  C4  UNL     1      -3.572   3.979  14.503  1.00  0.00     0.237 C
HETATM    4  C5  UNL     1      -4.977   3.618  14.785  1.00  0.00     0.249 C
HETATM    5  C6  UNL     1      -5.800   3.221  13.617  1.00  0.00     0.094 C
HETATM    6  C7  UNL     1      -4.941   2.502  12.577  1.00  0.00     0.124 C
HETATM    7 CL1  UNL     1      -4.280   1.060  13.424  1.00  0.00    -0.122 Cl
HETATM    8  N1  UNL     1      -5.574   4.746  15.518  1.00  0.00    -0.039 N
ATOM      9  H11 UNL     1      -6.069   5.401  14.913  1.00  0.00     0.281 HD
ATOM     10  H12 UNL     1      -4.881   5.402  15.879  1.00  0.00     0.281 HD
HETATM   11  C8  UNL     1      -6.400   4.190  16.535  1.00  0.00     0.262 C
HETATM   12  C9  UNL     1      -6.232   2.717  16.398  1.00  0.00     0.198 C
HETATM   13  O3  UNL     1      -5.042   2.573  15.732  1.00  0.00    -0.351 OA
ENDROOT
BRANCH   1  14
HETATM   14  C1  UNL     1      -4.309   4.764  11.832  1.00  0.00     0.204 C
BRANCH  14  15
HETATM   15  O1  UNL     1      -4.773   4.602  10.513  1.00  0.00    -0.398 OA
ATOM     16  H1  UNL     1      -5.395   5.303  10.358  1.00  0.00     0.209 HD
ENDBRANCH  14  15
ENDBRANCH   1  14
BRANCH   1  17
HETATM   17  C3  UNL     1      -2.971   2.877  11.108  1.00  0.00     0.127 C
HETATM   18 BR1  UNL     1      -1.108   3.259  11.258  1.00  0.00    -0.093 Br
ENDBRANCH   1  17
TORSDOF 3
ENDMDL