MODEL 5
REMARK VINA RESULT: -5.455911265      2.476      4.205
REMARK  4 active torsions:
REMARK  status: ('A' for Active; 'I' for Inactive)
REMARK    1  A    between atoms: O1_1  and  C1_3
REMARK    2  A    between atoms: C2_7  and  C3_8
REMARK    3  A    between atoms: C4_10  and  N2_11
REMARK    4  A    between atoms: C9_17  and  O3_18
ROOT
HETATM    1  C1  UNL     1      -3.789   1.360  12.400  1.00  0.00     0.350 C
HETATM    2  N1  UNL     1      -4.385   1.327  13.730  1.00  0.00    -0.039 N
ATOM      3  H11 UNL     1      -3.914   0.716  14.397  1.00  0.00     0.280 HD
ATOM      4  H12 UNL     1      -5.288   0.855  13.785  1.00  0.00     0.280 HD
HETATM    5  C2  UNL     1      -4.406   2.745  14.098  1.00  0.00     0.234 C
HETATM    6  C4  UNL     1      -4.793   3.454  12.851  1.00  0.00     0.287 C
HETATM    7  C9  UNL     1      -4.577   2.477  11.747  1.00  0.00     0.209 C
ENDROOT
BRANCH   6   8
HETATM    8  N2  UNL     1      -4.212   4.735  12.681  1.00  0.00     0.102 N
HETATM    9  C5  UNL     1      -2.960   4.977  13.313  1.00  0.00     0.299 C
HETATM   10  C6  UNL     1      -2.935   6.493  13.570  1.00  0.00     0.198 C
HETATM   11  O2  UNL     1      -3.491   7.133  12.488  1.00  0.00    -0.388 OA
HETATM   12  C7  UNL     1      -3.361   6.450  11.293  1.00  0.00     0.198 C
HETATM   13  C8  UNL     1      -4.116   5.131  11.305  1.00  0.00     0.299 C
ENDBRANCH   6   8
BRANCH   5  14
HETATM   14  C3  UNL     1      -5.408   2.932  15.225  1.00  0.00     0.120 C
HETATM   15 BR1  UNL     1      -5.212   1.480  16.491  1.00  0.00    -0.094 Br
ENDBRANCH   5  14
BRANCH   7  16
HETATM   16  O3  UNL     1      -5.785   1.884  11.313  1.00  0.00    -0.389 OA
ATOM     17  H3  UNL     1      -6.368   1.915  12.063  1.00  0.00     0.210 HD
ENDBRANCH   7  16
BRANCH   1  18
HETATM   18  O1  UNL     1      -3.940   0.157  11.728  1.00  0.00    -0.368 OA
ATOM     19  H1  UNL     1      -3.105  -0.230  11.492  1.00  0.00     0.212 HD
ENDBRANCH   1  18
TORSDOF 4
ENDMDL