MODEL 4
REMARK VINA RESULT: -6.871458358      3.291      4.792
REMARK  4 active torsions:
REMARK  status: ('A' for Active; 'I' for Inactive)
REMARK    1  A    between atoms: O1_1  and  C1_3
REMARK    2  A    between atoms: C1_3  and  C2_4
REMARK    3  A    between atoms: C3_6  and  C4_7
REMARK    4  A    between atoms: C6_12  and  O4_13
ROOT
HETATM    1  C2  UNL     1      -5.064   3.046  12.895  1.00  0.00     0.155 C
HETATM    2  O2  UNL     1      -5.269   2.629  14.169  1.00  0.00    -0.348 OA
HETATM    3  C3  UNL     1      -4.389   2.965  15.122  1.00  0.00     0.325 C
HETATM    4  O3  UNL     1      -3.137   3.350  14.726  1.00  0.00    -0.347 OA
HETATM    5  C5  UNL     1      -3.340   4.514  13.942  1.00  0.00     0.162 C
HETATM    6  C6  UNL     1      -1.955   5.075  13.762  1.00  0.00     0.165 C
HETATM    7  C7  UNL     1      -2.081   6.374  12.998  1.00  0.00     0.148 C
HETATM    8  N1  UNL     1      -2.244   6.035  11.633  1.00  0.00    -0.414 N
ATOM      9  H1  UNL     1      -1.447   5.812  11.037  1.00  0.00     0.153 HD
HETATM   10  C8  UNL     1      -3.576   6.021  11.137  1.00  0.00     0.081 C
HETATM   11  C9  UNL     1      -4.157   7.430  11.172  1.00  0.00     0.025 C
HETATM   12  C10 UNL     1      -5.602   7.183  11.473  1.00  0.00     0.002 C
HETATM   13  C11 UNL     1      -5.508   6.047  12.503  1.00  0.00     0.007 C
HETATM   14  C12 UNL     1      -4.534   5.141  11.812  1.00  0.00     0.017 C
HETATM   15  C13 UNL     1      -3.984   4.059  12.684  1.00  0.00     0.054 C
ENDROOT
BRANCH   1  16
HETATM   16  C1  UNL     1      -4.837   1.787  12.039  1.00  0.00     0.196 C
BRANCH  16  17
HETATM   17  O1  UNL     1      -5.762   1.740  10.995  1.00  0.00    -0.398 OA
ATOM     18  H1  UNL     1      -6.646   1.711  11.341  1.00  0.00     0.209 HD
ENDBRANCH  16  17
ENDBRANCH   1  16
BRANCH   3  19
HETATM   19  C4  UNL     1      -4.214   1.812  16.117  1.00  0.00     0.407 C
HETATM   20  F1  UNL     1      -4.998   1.976  17.226  1.00  0.00    -0.209 F
HETATM   21  F2  UNL     1      -4.429   0.600  15.490  1.00  0.00    -0.209 F
ENDBRANCH   3  19
BRANCH   6  22
HETATM   22  O4  UNL     1      -1.070   4.191  13.192  1.00  0.00    -0.391 OA
ATOM     23  H4  UNL     1      -0.701   4.495  12.371  1.00  0.00     0.210 HD
ENDBRANCH   6  22
TORSDOF 4
ENDMDL