MODEL 2
REMARK VINA RESULT: -6.264857260      2.549      3.380
REMARK  6 active torsions:
REMARK  status: ('A' for Active; 'I' for Inactive)
REMARK    1  A    between atoms: N1_1  and  N2_4
REMARK    2  A    between atoms: N2_4  and  N3_5
REMARK    3  A    between atoms: N3_5  and  C1_7
REMARK    4  A    between atoms: C4_11  and  O1_12
REMARK    5  A    between atoms: C5_14  and  O2_15
REMARK    6  A    between atoms: C6_17  and  C7_18
REMARK       I    between atoms: C7_18  and  N4_20
ROOT
HETATM    1  C1  UNL     1      -3.976   1.972  12.763  1.00  0.00     0.215 C
HETATM    2  F1  UNL     1      -3.842   0.769  13.435  1.00  0.00    -0.216 F
HETATM    3  C2  UNL     1      -2.769   2.102  11.862  1.00  0.00     0.072 C
HETATM    4  C3  UNL     1      -2.732   3.421  11.141  1.00  0.00     0.039 C
HETATM    5  C4  UNL     1      -3.490   4.515  11.803  1.00  0.00     0.148 C
HETATM    6  C5  UNL     1      -3.486   4.368  13.305  1.00  0.00     0.165 C
HETATM    7  C6  UNL     1      -4.028   3.058  13.799  1.00  0.00     0.172 C
ENDROOT
BRANCH   7   8
HETATM    8  C7  UNL     1      -5.392   3.249  14.315  1.00  0.00     0.231 C
HETATM    9  O3  UNL     1      -6.353   3.736  13.647  1.00  0.00    -0.273 OA
HETATM   10  N4  UNL     1      -5.674   2.870  15.654  1.00  0.00    -0.347 N
HETATM   11  C8  UNL     1      -4.803   2.275  16.638  1.00  0.00     0.161 C
HETATM   12  C11 UNL     1      -6.962   3.035  16.293  1.00  0.00     0.161 C
HETATM   13  C9  UNL     1      -5.676   1.335  17.447  1.00  0.00     0.236 A
HETATM   14  N5  UNL     1      -6.721   0.606  16.753  1.00  0.00    -0.059 N
HETATM   15  C10 UNL     1      -7.040   1.912  17.270  1.00  0.00     0.236 A
ATOM     16  H52 UNL     1      -6.789   0.176  15.830  1.00  0.00     0.278 HD
ATOM     17  H51 UNL     1      -7.134  -0.320  16.870  1.00  0.00     0.278 HD
ENDBRANCH   7   8
BRANCH   1  18
HETATM   18  N3  UNL     1      -5.166   1.861  11.948  1.00  0.00    -0.211 N
ATOM     19  H3  UNL     1      -5.932   2.515  12.104  1.00  0.00     0.201 HD
BRANCH  18  20
HETATM   20  N2  UNL     1      -5.287   1.000  11.069  1.00  0.00    -0.245 NA
BRANCH  20  21
HETATM   21  N1  UNL     1      -5.196   0.062  10.270  1.00  0.00    -0.261 N
ATOM     22  H12 UNL     1      -5.613   0.645   9.544  1.00  0.00     0.193 HD
ATOM     23  H11 UNL     1      -5.042  -0.810   9.763  1.00  0.00     0.193 HD
ENDBRANCH  20  21
ENDBRANCH  18  20
ENDBRANCH   1  18
BRANCH   6  24
HETATM   24  O2  UNL     1      -2.137   4.511  13.689  1.00  0.00    -0.392 OA
ATOM     25  H2  UNL     1      -1.830   5.288  13.237  1.00  0.00     0.210 HD
ENDBRANCH   6  24
BRANCH   5  26
HETATM   26  O1  UNL     1      -4.753   4.758  11.294  1.00  0.00    -0.393 OA
ATOM     27  H1  UNL     1      -4.913   5.649  11.004  1.00  0.00     0.210 HD
ENDBRANCH   5  26
TORSDOF 6
ENDMDL