MODEL 2
REMARK VINA RESULT: -6.035866701      2.558      3.306
REMARK  5 active torsions:
REMARK  status: ('A' for Active; 'I' for Inactive)
REMARK    1  A    between atoms: N1_2  and  C3_4
REMARK    2  A    between atoms: C3_4  and  C4_8
REMARK    3  A    between atoms: C6_11  and  O2_12
REMARK    4  A    between atoms: C7_14  and  C8_15
REMARK    5  A    between atoms: C8_15  and  O3_16
ROOT
HETATM    1  C4  UNL     1      -2.404   4.161  11.943  1.00  0.00     0.214 C
HETATM    2  O1  UNL     1      -2.436   2.791  12.172  1.00  0.00    -0.366 OA
HETATM    3  C5  UNL     1      -3.705   2.340  11.893  1.00  0.00     0.184 C
HETATM    4  C6  UNL     1      -4.107   1.152  12.744  1.00  0.00     0.180 C
HETATM    5  C7  UNL     1      -4.836   1.796  13.886  1.00  0.00     0.177 C
HETATM    6  O4  UNL     1      -4.452   3.135  13.866  1.00  0.00    -0.371 OA
HETATM    7  C9  UNL     1      -4.568   3.441  12.512  1.00  0.00     0.179 C
HETATM    8  C10 UNL     1      -3.797   4.671  12.131  1.00  0.00     0.095 C
HETATM    9  C11 UNL     1      -4.375   5.182  10.819  1.00  0.00     0.038 C
HETATM   10 CL1  UNL     1      -3.954   5.931  13.330  1.00  0.00    -0.114 Cl
ENDROOT
BRANCH   1  11
HETATM   11  C3  UNL     1      -1.389   4.800  12.776  1.00  0.00     0.103 C
HETATM   12  N2  UNL     1      -1.294   4.402  13.995  1.00  0.00    -0.387 N
ATOM     13  H22 UNL     1      -0.585   4.848  14.577  1.00  0.00     0.157 HD
ATOM     14  H21 UNL     1      -1.934   3.667  14.297  1.00  0.00     0.157 HD
BRANCH  11  15
HETATM   15  N1  UNL     1      -0.506   5.813  12.360  1.00  0.00    -0.378 N
HETATM   16  C1  UNL     1       0.627   5.484  11.545  1.00  0.00     0.150 C
HETATM   17  C2  UNL     1      -0.705   7.182  12.729  1.00  0.00     0.150 C
ENDBRANCH  11  15
ENDBRANCH   1  11
BRANCH   4  18
HETATM   18  O2  UNL     1      -5.021   0.393  12.015  1.00  0.00    -0.390 OA
ATOM     19  H2  UNL     1      -4.874  -0.522  12.225  1.00  0.00     0.210 HD
ENDBRANCH   4  18
BRANCH   5  20
HETATM   20  C8  UNL     1      -4.454   1.122  15.190  1.00  0.00     0.198 C
BRANCH  20  21
HETATM   21  O3  UNL     1      -4.869  -0.206  15.099  1.00  0.00    -0.398 OA
ATOM     22  H3  UNL     1      -5.598  -0.312  15.700  1.00  0.00     0.209 HD
ENDBRANCH  20  21
ENDBRANCH   5  20
TORSDOF 5
ENDMDL