MODEL 5
REMARK VINA RESULT: -6.972864866      1.770      1.908
REMARK  4 active torsions:
REMARK  status: ('A' for Active; 'I' for Inactive)
REMARK    1  A    between atoms: C4_4  and  C5_5
REMARK    2  A    between atoms: C7_9  and  C8_10
REMARK    3  A    between atoms: C13_18  and  O2_19
REMARK    4  A    between atoms: C14_21  and  O3_22
ROOT
HETATM    1  C1  UNL     1      -2.628   6.097   7.784  1.00  0.00     0.017 C
HETATM    2  C2  UNL     1      -3.314   5.928   8.755  1.00  0.00    -0.090 C
HETATM    3  C3  UNL     1      -4.150   5.721   9.928  1.00  0.00     0.064 C
HETATM    4  C4  UNL     1      -3.732   4.966  10.922  1.00  0.00     0.042 C
ENDROOT
BRANCH   4   5
HETATM    5  C5  UNL     1      -4.595   4.771  12.097  1.00  0.00     0.289 C
HETATM    6  O1  UNL     1      -4.875   5.970  12.743  1.00  0.00    -0.321 OA
HETATM    7  C6  UNL     1      -5.378   5.515  13.967  1.00  0.00     0.341 C
HETATM    8  F1  UNL     1      -6.697   5.188  13.762  1.00  0.00    -0.217 F
HETATM    9  C7  UNL     1      -4.515   4.327  14.249  1.00  0.00     0.218 C
HETATM   10  O4  UNL     1      -3.983   3.949  13.014  1.00  0.00    -0.345 OA
BRANCH   9  11
HETATM   11  C8  UNL     1      -5.312   3.176  14.864  1.00  0.00     0.251 C
HETATM   12  N1  UNL     1      -5.902   3.676  16.066  1.00  0.00    -0.061 N
HETATM   13  C9  UNL     1      -6.717   2.734  16.745  1.00  0.00     0.193 C
ATOM     14  H12 UNL     1      -5.186   4.045  16.690  1.00  0.00     0.278 HD
ATOM     15  H11 UNL     1      -6.424   4.532  15.878  1.00  0.00     0.278 HD
HETATM   16  C10 UNL     1      -6.736   3.050  18.247  1.00  0.00     0.034 C
HETATM   17  C12 UNL     1      -6.055   1.448  17.001  1.00  0.00     0.048 C
HETATM   18  C11 UNL     1      -5.720   1.943  18.415  1.00  0.00     0.011 C
HETATM   19  C13 UNL     1      -4.862   1.108  16.226  1.00  0.00     0.155 C
HETATM   20  C14 UNL     1      -4.372   2.060  15.218  1.00  0.00     0.180 C
BRANCH  19  21
HETATM   21  O2  UNL     1      -5.105  -0.129  15.579  1.00  0.00    -0.392 OA
ATOM     22  H2  UNL     1      -4.863  -0.030  14.666  1.00  0.00     0.210 HD
ENDBRANCH  19  21
BRANCH  20  23
HETATM   23  O3  UNL     1      -4.014   1.433  14.010  1.00  0.00    -0.391 OA
ATOM     24  H3  UNL     1      -3.513   0.659  14.241  1.00  0.00     0.210 HD
ENDBRANCH  20  23
ENDBRANCH   9  11
ENDBRANCH   4   5
TORSDOF 4
ENDMDL