MODEL 2
REMARK VINA RESULT: -6.265677942      4.012      6.660
REMARK  5 active torsions:
REMARK  status: ('A' for Active; 'I' for Inactive)
REMARK    1  A    between atoms: C3_3  and  C4_4
REMARK    2  A    between atoms: N1_8  and  C7_9
REMARK    3  A    between atoms: C9_12  and  O2_13
REMARK    4  A    between atoms: C10_15  and  O3_16
REMARK    5  A    between atoms: C11_18  and  O4_19
ROOT
HETATM    1  C1  UNL     1      -1.660   9.118  12.256  1.00  0.00     0.012 C
HETATM    2  C2  UNL     1      -2.563   8.342  12.016  1.00  0.00    -0.116 C
HETATM    3  C3  UNL     1      -3.659   7.421  11.713  1.00  0.00     0.118 C
ENDROOT
BRANCH   3   4
HETATM    4  C4  UNL     1      -3.226   6.008  12.057  1.00  0.00     0.050 C
HETATM    5 CL1  UNL     1      -1.905   5.562  10.926  1.00  0.00    -0.118 Cl
HETATM    6  C5  UNL     1      -4.372   5.032  11.892  1.00  0.00     0.057 C
HETATM    7  C6  UNL     1      -5.175   5.044  13.172  1.00  0.00     0.278 C
HETATM    8  N1  UNL     1      -4.472   4.482  14.286  1.00  0.00     0.120 N
HETATM    9  C12 UNL     1      -3.066   4.507  14.042  1.00  0.00     0.278 C
HETATM   10  C13 UNL     1      -2.689   5.868  13.441  1.00  0.00     0.057 C
BRANCH   8  11
HETATM   11  C7  UNL     1      -4.961   3.137  14.632  1.00  0.00     0.390 C
HETATM   12  O1  UNL     1      -3.956   2.274  14.914  1.00  0.00    -0.352 OA
HETATM   13  C8  UNL     1      -4.028   1.485  16.010  1.00  0.00     0.205 C
HETATM   14  C9  UNL     1      -5.461   1.034  16.330  1.00  0.00     0.173 C
HETATM   15  C10 UNL     1      -6.149   2.325  16.718  1.00  0.00     0.182 C
HETATM   16  C11 UNL     1      -6.082   3.279  15.580  1.00  0.00     0.208 C
BRANCH  14  17
HETATM   17  O2  UNL     1      -5.387   0.167  17.429  1.00  0.00    -0.391 OA
ATOM     18  H2  UNL     1      -6.123   0.368  17.995  1.00  0.00     0.210 HD
ENDBRANCH  14  17
BRANCH  15  19
HETATM   19  O3  UNL     1      -7.463   2.056  17.069  1.00  0.00    -0.390 OA
ATOM     20  H3  UNL     1      -7.521   1.173  17.416  1.00  0.00     0.210 HD
ENDBRANCH  15  19
BRANCH  16  21
HETATM   21  O4  UNL     1      -6.058   4.575  16.152  1.00  0.00    -0.388 OA
ATOM     22  H4  UNL     1      -6.084   4.505  17.099  1.00  0.00     0.210 HD
ENDBRANCH  16  21
ENDBRANCH   8  11
ENDBRANCH   3   4
TORSDOF 5
ENDMDL