MODEL 3
REMARK VINA RESULT: -6.871614648      1.317      2.028
REMARK  4 active torsions:
REMARK  status: ('A' for Active; 'I' for Inactive)
REMARK    1  A    between atoms: C6_7  and  O1_8
REMARK    2  A    between atoms: O1_8  and  C7_9
REMARK    3  A    between atoms: C12_15  and  O3_16
REMARK    4  A    between atoms: C13_18  and  O4_19
ROOT
HETATM    1  C1  UNL     1      -5.258   6.258  12.401  1.00  0.00     0.015 C
HETATM    2  C2  UNL     1      -4.209   5.927  11.921  1.00  0.00    -0.068 C
HETATM    3  C3  UNL     1      -2.944   5.508  11.347  1.00  0.00     0.228 C
HETATM    4  F1  UNL     1      -2.245   6.510  10.745  1.00  0.00    -0.223 F
HETATM    5  C4  UNL     1      -2.071   4.793  12.386  1.00  0.00     0.243 C
HETATM    6  C5  UNL     1      -2.948   3.870  13.145  1.00  0.00     0.072 C
HETATM    7  C6  UNL     1      -3.726   2.901  12.338  1.00  0.00     0.156 C
HETATM    8  C12 UNL     1      -3.996   3.280  10.934  1.00  0.00     0.187 C
HETATM    9  C13 UNL     1      -3.137   4.356  10.375  1.00  0.00     0.159 C
HETATM   10  C14 UNL     1      -1.706   3.810  10.307  1.00  0.00     0.277 C
HETATM   11  N1  UNL     1      -1.109   4.097  11.590  1.00  0.00    -0.064 N
ATOM     12  H11 UNL     1      -0.748   3.262  12.051  1.00  0.00     0.277 HD
ATOM     13  H12 UNL     1      -0.227   4.603  11.509  1.00  0.00     0.277 HD
ENDROOT
BRANCH   9  14
HETATM   14  O4  UNL     1      -3.596   4.772   9.150  1.00  0.00    -0.381 OA
ATOM     15  H4  UNL     1      -3.353   5.669   8.955  1.00  0.00     0.211 HD
ENDBRANCH   9  14
BRANCH   8  16
HETATM   16  O3  UNL     1      -3.895   2.179  10.057  1.00  0.00    -0.390 OA
ATOM     17  H3  UNL     1      -4.738   1.775   9.892  1.00  0.00     0.210 HD
ENDBRANCH   8  16
BRANCH   7  18
HETATM   18  O1  UNL     1      -4.900   2.638  13.070  1.00  0.00    -0.378 OA
BRANCH  18  19
HETATM   19  C7  UNL     1      -4.724   2.713  14.422  1.00  0.00     0.126 C
HETATM   20  C8  UNL     1      -5.889   3.379  15.135  1.00  0.00     0.058 C
HETATM   21  C9  UNL     1      -6.343   2.517  16.310  1.00  0.00     0.170 C
HETATM   22  O2  UNL     1      -5.299   2.075  17.080  1.00  0.00    -0.391 OA
HETATM   23  C10 UNL     1      -4.353   1.344  16.412  1.00  0.00     0.170 C
HETATM   24  C11 UNL     1      -4.669   1.282  14.954  1.00  0.00     0.058 C
ENDBRANCH  18  19
ENDBRANCH   7  18
TORSDOF 4
ENDMDL