MODEL 5
REMARK VINA RESULT: -5.349215351      3.858      4.577
REMARK  6 active torsions:
REMARK  status: ('A' for Active; 'I' for Inactive)
REMARK    1  A    between atoms: C3_4  and  C4_5
REMARK    2  A    between atoms: C4_5  and  C5_7
REMARK    3  A    between atoms: C6_9  and  C7_10
REMARK    4  A    between atoms: C7_10  and  O1_11
REMARK    5  A    between atoms: C8_13  and  O2_14
REMARK    6  A    between atoms: C9_16  and  O3_17
ROOT
HETATM    1  N1  UNL     1      -7.062   8.870   9.701  1.00  0.00    -0.182 NA
HETATM    2  C1  UNL     1      -6.570   8.155  10.470  1.00  0.00     0.152 C
HETATM    3  C2  UNL     1      -5.973   7.265  11.393  1.00  0.00     0.014 C
HETATM    4  C3  UNL     1      -5.477   6.490  12.173  1.00  0.00    -0.073 C
ENDROOT
BRANCH   4   5
HETATM    5  C4  UNL     1      -4.868   5.521  13.116  1.00  0.00     0.154 C
HETATM    6 BR1  UNL     1      -6.004   5.190  14.611  1.00  0.00    -0.076 Br
BRANCH   5   7
HETATM    7  C5  UNL     1      -4.525   4.306  12.323  1.00  0.00     0.105 C
HETATM    8  S1  UNL     1      -5.284   2.797  13.012  1.00  0.00    -0.150 SA
HETATM    9  C6  UNL     1      -3.910   1.644  12.602  1.00  0.00     0.102 C
HETATM   10  C8  UNL     1      -3.031   2.538  11.759  1.00  0.00     0.164 C
HETATM   11  C9  UNL     1      -3.079   3.916  12.385  1.00  0.00     0.164 C
BRANCH   9  12
HETATM   12  C7  UNL     1      -4.510   0.594  11.699  1.00  0.00     0.181 C
BRANCH  12  13
HETATM   13  O1  UNL     1      -4.432   1.009  10.383  1.00  0.00    -0.400 OA
ATOM     14  H1  UNL     1      -5.297   1.001   9.991  1.00  0.00     0.209 HD
ENDBRANCH  12  13
ENDBRANCH   9  12
BRANCH  10  15
HETATM   15  O2  UNL     1      -1.690   2.127  11.802  1.00  0.00    -0.392 OA
ATOM     16  H2  UNL     1      -1.394   2.004  12.696  1.00  0.00     0.210 HD
ENDBRANCH  10  15
BRANCH  11  17
HETATM   17  O3  UNL     1      -2.582   3.800  13.667  1.00  0.00    -0.392 OA
ATOM     18  H3  UNL     1      -1.633   3.785  13.715  1.00  0.00     0.210 HD
ENDBRANCH  11  17
ENDBRANCH   5   7
ENDBRANCH   4   5
TORSDOF 6
ENDMDL