MODEL 4
REMARK VINA RESULT: -6.146291948      1.974      2.520
REMARK  5 active torsions:
REMARK  status: ('A' for Active; 'I' for Inactive)
REMARK    1  A    between atoms: O1_1  and  C1_3
REMARK    2  A    between atoms: C4_6  and  N1_7
REMARK    3  A    between atoms: N2_10  and  C7_11
REMARK    4  A    between atoms: C9_13  and  O2_14
REMARK    5  A    between atoms: C13_20  and  O3_21
ROOT
HETATM    1  N1  UNL     1      -3.501   3.698  13.169  1.00  0.00     0.132 N
HETATM    2  C5  UNL     1      -4.201   2.421  13.218  1.00  0.00     0.307 C
HETATM    3  C6  UNL     1      -5.539   2.448  13.860  1.00  0.00     0.303 C
HETATM    4  N2  UNL     1      -5.424   3.096  15.142  1.00  0.00     0.099 N
HETATM    5  C11 UNL     1      -4.828   4.383  15.015  1.00  0.00     0.342 C
HETATM    6  C12 UNL     1      -4.450   4.702  13.557  1.00  0.00     0.433 C
HETATM    7  F1  UNL     1      -4.018   5.985  13.581  1.00  0.00    -0.214 F
ENDROOT
BRANCH   1   8
HETATM    8  C4  UNL     1      -2.921   3.901  11.862  1.00  0.00     0.255 C
HETATM    9  C3  UNL     1      -3.819   4.508  10.841  1.00  0.00     0.041 C
HETATM   10  C2  UNL     1      -2.943   4.732   9.595  1.00  0.00     0.034 C
HETATM   11  C1  UNL     1      -2.074   5.919   9.991  1.00  0.00     0.120 C
HETATM   12  C14 UNL     1      -1.216   5.640  11.194  1.00  0.00     0.065 C
HETATM   13  C13 UNL     1      -1.521   4.351  11.881  1.00  0.00     0.154 C
BRANCH  11  14
HETATM   14  O1  UNL     1      -1.312   6.212   8.848  1.00  0.00    -0.395 OA
ATOM     15  H1  UNL     1      -0.484   5.767   8.983  1.00  0.00     0.210 HD
ENDBRANCH  11  14
BRANCH  13  16
HETATM   16  O3  UNL     1      -1.024   4.400  13.176  1.00  0.00    -0.393 OA
ATOM     17  H3  UNL     1      -0.218   4.900  13.218  1.00  0.00     0.210 HD
ENDBRANCH  13  16
ENDBRANCH   1   8
BRANCH   4  18
HETATM   18  C7  UNL     1      -6.592   3.076  15.948  1.00  0.00     0.228 C
HETATM   19  C8  UNL     1      -6.814   1.862  16.807  1.00  0.00     0.067 C
HETATM   20  C9  UNL     1      -5.963   2.524  17.869  1.00  0.00     0.122 C
HETATM   21  C10 UNL     1      -6.353   3.858  17.246  1.00  0.00     0.067 C
BRANCH  20  22
HETATM   22  O2  UNL     1      -6.501   2.432  19.147  1.00  0.00    -0.395 OA
ATOM     23  H2  UNL     1      -6.364   3.211  19.673  1.00  0.00     0.210 HD
ENDBRANCH  20  22
ENDBRANCH   4  18
TORSDOF 5
ENDMDL