MODEL 2
REMARK VINA RESULT: -6.215387218      2.269      4.011
REMARK  5 active torsions:
REMARK  status: ('A' for Active; 'I' for Inactive)
REMARK    1  A    between atoms: C2_2  and  O1_3
REMARK    2  A    between atoms: C2_2  and  C4_5
REMARK    3  A    between atoms: C4_5  and  C5_6
REMARK    4  A    between atoms: C9_10  and  O2_11
REMARK    5  A    between atoms: C10_13  and  O3_14
ROOT
HETATM    1  C5  UNL     1      -3.092   6.486  13.892  1.00  0.00    -0.089 C
HETATM    2  C6  UNL     1      -2.413   7.348  14.403  1.00  0.00    -0.110 C
HETATM    3  C7  UNL     1      -1.613   8.403  15.018  1.00  0.00     0.112 C
ENDROOT
BRANCH   1   4
HETATM    4  C4  UNL     1      -3.942   5.440  13.242  1.00  0.00     0.084 C
HETATM    5  C8  UNL     1      -4.176   5.927  11.872  1.00  0.00     0.067 C
HETATM    6  C9  UNL     1      -4.615   4.975  10.836  1.00  0.00     0.175 C
HETATM    7  C10 UNL     1      -3.369   4.423  10.165  1.00  0.00     0.288 C
HETATM    8  O4  UNL     1      -2.391   4.348  11.143  1.00  0.00    -0.326 OA
HETATM    9  C11 UNL     1      -2.682   3.505  12.176  1.00  0.00     0.332 C
HETATM   10  N1  UNL     1      -3.544   2.388  11.760  1.00  0.00    -0.046 N
HETATM   11  C14 UNL     1      -3.281   4.108  13.381  1.00  0.00     0.105 C
HETATM   12  C12 UNL     1      -4.033   1.832  13.006  1.00  0.00     0.273 C
ATOM     13  H12 UNL     1      -4.279   2.649  11.102  1.00  0.00     0.280 HD
ATOM     14  H11 UNL     1      -3.085   1.710  11.152  1.00  0.00     0.280 HD
HETATM   15  C13 UNL     1      -4.204   3.037  13.923  1.00  0.00     0.206 C
HETATM   16  F1  UNL     1      -3.863   2.621  15.194  1.00  0.00    -0.247 F
BRANCH   4  17
HETATM   17  C2  UNL     1      -5.217   5.504  14.007  1.00  0.00     0.058 C
HETATM   18  C1  UNL     1      -6.400   5.598  13.442  1.00  0.00     0.048 C
BRANCH  17  19
HETATM   19  O1  UNL     1      -5.205   5.463  15.416  1.00  0.00    -0.359 OA
HETATM   20  C3  UNL     1      -6.221   4.872  16.162  1.00  0.00     0.209 C
ENDBRANCH  17  19
ENDBRANCH   4  17
BRANCH   6  21
HETATM   21  O2  UNL     1      -5.292   5.700   9.825  1.00  0.00    -0.391 OA
ATOM     22  H2  UNL     1      -5.677   5.078   9.219  1.00  0.00     0.210 HD
ENDBRANCH   6  21
BRANCH   7  23
HETATM   23  O3  UNL     1      -3.576   3.284   9.449  1.00  0.00    -0.369 OA
ATOM     24  H3  UNL     1      -4.391   3.270   8.962  1.00  0.00     0.212 HD
ENDBRANCH   7  23
ENDBRANCH   1   4
TORSDOF 5
ENDMDL