MODEL 1
REMARK VINA RESULT: -6.659898813      0.000      0.000
REMARK  7 active torsions:
REMARK  status: ('A' for Active; 'I' for Inactive)
REMARK    1  A    between atoms: N1_2  and  C2_3
REMARK    2  A    between atoms: N1_2  and  N2_7
REMARK    3  A    between atoms: C2_3  and  C3_4
REMARK    4  A    between atoms: C9_18  and  O2_19
REMARK    5  A    between atoms: C9_18  and  C10_21
REMARK    6  A    between atoms: C11_22  and  C12_23
REMARK    7  A    between atoms: C12_23  and  O3_24
ROOT
HETATM    1  N2  UNL     1      -3.101   3.838  13.952  1.00  0.00    -0.288 N
ATOM      2  H2  UNL     1      -2.803   3.293  13.142  1.00  0.00     0.188 HD
HETATM    3  C4  UNL     1      -3.897   3.277  14.762  1.00  0.00     0.144 C
HETATM    4  N3  UNL     1      -4.402   3.916  15.945  1.00  0.00    -0.342 N
ATOM      5  H3  UNL     1      -4.036   4.778  16.349  1.00  0.00     0.164 HD
HETATM    6  C5  UNL     1      -5.508   3.150  16.477  1.00  0.00     0.158 A
HETATM    7  C6  UNL     1      -6.573   3.872  17.202  1.00  0.00     0.089 A
HETATM    8  C7  UNL     1      -6.158   2.943  18.344  1.00  0.00     0.176 A
HETATM    9  O1  UNL     1      -5.188   2.325  17.550  1.00  0.00    -0.359 OA
HETATM   10  C8  UNL     1      -5.922   2.330  15.274  1.00  0.00     0.192 C
HETATM   11 CL1  UNL     1      -6.598   3.358  13.994  1.00  0.00    -0.115 Cl
HETATM   12  C9  UNL     1      -4.516   1.937  14.778  1.00  0.00     0.202 C
ENDROOT
BRANCH   1  13
HETATM   13  N1  UNL     1      -2.600   5.115  14.065  1.00  0.00    -0.326 N
HETATM   14  C1  UNL     1      -1.176   5.321  13.793  1.00  0.00     0.171 C
BRANCH  13  15
HETATM   15  C2  UNL     1      -3.355   6.284  14.426  1.00  0.00     0.213 C
BRANCH  15  16
HETATM   16  C3  UNL     1      -2.454   7.527  14.411  1.00  0.00     0.372 C
HETATM   17  F1  UNL     1      -2.685   8.244  15.556  1.00  0.00    -0.213 F
HETATM   18  F2  UNL     1      -2.670   8.269  13.276  1.00  0.00    -0.213 F
ENDBRANCH  15  16
ENDBRANCH  13  15
ENDBRANCH   1  13
BRANCH  12  19
HETATM   19  O2  UNL     1      -3.916   1.095  15.692  1.00  0.00    -0.369 OA
ATOM     20  H2  UNL     1      -4.397   0.284  15.803  1.00  0.00     0.212 HD
ENDBRANCH  12  19
BRANCH  12  21
HETATM   21  C10 UNL     1      -4.527   1.419  13.430  1.00  0.00    -0.056 C
HETATM   22  C11 UNL     1      -4.555   0.994  12.300  1.00  0.00    -0.077 C
BRANCH  22  23
HETATM   23  C12 UNL     1      -4.613   0.485  10.913  1.00  0.00     0.257 C
BRANCH  23  24
HETATM   24  O3  UNL     1      -4.475   1.506  10.006  1.00  0.00    -0.389 OA
ATOM     25  H3  UNL     1      -4.490   2.352  10.437  1.00  0.00     0.210 HD
ENDBRANCH  23  24
ENDBRANCH  22  23
ENDBRANCH  12  21
TORSDOF 7
ENDMDL