MODEL 4
REMARK VINA RESULT: -6.405185842      2.166      3.689
REMARK  4 active torsions:
REMARK  status: ('A' for Active; 'I' for Inactive)
REMARK    1  A    between atoms: C3_5  and  C4_6
REMARK    2  A    between atoms: C6_10  and  C7_12
REMARK    3  A    between atoms: C8_15  and  O4_16
REMARK    4  A    between atoms: C9_18  and  O5_19
ROOT
HETATM    1  C1  UNL     1      -5.952   5.534  15.683  1.00  0.00     0.313 C
HETATM    2  N1  UNL     1      -5.071   5.530  14.587  1.00  0.00     0.117 N
HETATM    3  C2  UNL     1      -5.642   5.770  13.304  1.00  0.00     0.441 C
HETATM    4  O1  UNL     1      -4.863   5.113  12.353  1.00  0.00    -0.346 OA
HETATM    5  C3  UNL     1      -3.752   4.604  13.027  1.00  0.00     0.130 C
HETATM    6  C5  UNL     1      -3.098   3.466  12.362  1.00  0.00     0.101 C
HETATM    7  C6  UNL     1      -3.787   2.156  12.456  1.00  0.00     0.221 C
HETATM    8  F1  UNL     1      -2.802   1.160  12.379  1.00  0.00    -0.228 F
HETATM    9  C8  UNL     1      -4.518   1.924  13.749  1.00  0.00     0.200 C
HETATM   10  C9  UNL     1      -5.351   3.136  14.115  1.00  0.00     0.187 C
HETATM   11  C10 UNL     1      -4.373   4.271  14.371  1.00  0.00     0.293 C
ENDROOT
BRANCH   7  12
HETATM   12  C7  UNL     1      -4.659   1.960  11.279  1.00  0.00     0.217 C
HETATM   13  O2  UNL     1      -5.890   1.763  11.384  1.00  0.00    -0.645 OA
HETATM   14  O3  UNL     1      -4.097   1.998  10.023  1.00  0.00    -0.645 OA
ENDBRANCH   7  12
BRANCH   9  15
HETATM   15  O4  UNL     1      -3.593   1.722  14.760  1.00  0.00    -0.389 OA
ATOM     16  H4  UNL     1      -3.319   2.566  15.101  1.00  0.00     0.210 HD
ENDBRANCH   9  15
BRANCH   5  17
HETATM   17  C4  UNL     1      -2.791   5.753  13.219  1.00  0.00     0.215 C
HETATM   18 CL1  UNL     1      -2.386   6.471  11.632  1.00  0.00    -0.105 Cl
HETATM   19 CL2  UNL     1      -1.347   5.280  14.111  1.00  0.00    -0.105 Cl
ENDBRANCH   5  17
BRANCH  10  20
HETATM   20  O5  UNL     1      -6.190   2.895  15.170  1.00  0.00    -0.391 OA
ATOM     21  H5  UNL     1      -7.061   3.247  15.030  1.00  0.00     0.210 HD
ENDBRANCH  10  20
TORSDOF 4
ENDMDL