MODEL 4
REMARK VINA RESULT: -6.656925414      1.606      3.041
REMARK  7 active torsions:
REMARK  status: ('A' for Active; 'I' for Inactive)
REMARK    1  A    between atoms: O1_1  and  C1_3
REMARK    2  A    between atoms: C1_3  and  C2_4
REMARK    3  A    between atoms: C6_9  and  O3_10
REMARK    4  A    between atoms: C6_9  and  C7_12
REMARK    5  A    between atoms: C8_13  and  C9_14
REMARK    6  A    between atoms: C9_14  and  C10_15
REMARK    7  A    between atoms: C12_19  and  O5_20
ROOT
HETATM    1  C2  UNL     1      -2.613   3.988  11.878  1.00  0.00     0.145 C
HETATM    2  O2  UNL     1      -2.759   2.790  12.517  1.00  0.00    -0.354 OA
HETATM    3  C3  UNL     1      -3.821   2.713  13.386  1.00  0.00     0.131 A
HETATM    4  C4  UNL     1      -4.322   1.402  13.855  1.00  0.00     0.048 A
HETATM    5  C5  UNL     1      -5.178   2.346  12.993  1.00  0.00     0.048 A
HETATM    6  C6  UNL     1      -3.648   3.837  14.382  1.00  0.00     0.263 C
HETATM    7  O4  UNL     1      -3.790   5.018  13.732  1.00  0.00    -0.331 OA
HETATM    8  C11 UNL     1      -3.193   5.168  12.532  1.00  0.00     0.197 C
HETATM    9  C12 UNL     1      -2.068   6.199  12.686  1.00  0.00     0.187 C
HETATM   10  C13 UNL     1      -0.798   5.429  12.599  1.00  0.00     0.238 C
HETATM   11  F2  UNL     1       0.178   6.234  11.994  1.00  0.00    -0.243 F
HETATM   12  C14 UNL     1      -1.123   4.290  11.688  1.00  0.00     0.245 C
HETATM   13  F3  UNL     1      -0.844   4.658  10.395  1.00  0.00    -0.243 F
ENDROOT
BRANCH   6  14
HETATM   14  O3  UNL     1      -2.421   3.674  15.017  1.00  0.00    -0.353 OA
ATOM     15  H3  UNL     1      -2.344   4.338  15.692  1.00  0.00     0.214 HD
ENDBRANCH   6  14
BRANCH   6  16
HETATM   16  C7  UNL     1      -4.682   3.698  15.409  1.00  0.00    -0.035 C
HETATM   17  C8  UNL     1      -5.548   3.563  16.258  1.00  0.00    -0.099 C
BRANCH  17  18
HETATM   18  C9  UNL     1      -6.584   3.376  17.273  1.00  0.00     0.125 C
BRANCH  18  19
HETATM   19  C10 UNL     1      -6.233   2.143  18.078  1.00  0.00     0.234 C
HETATM   20  F1  UNL     1      -6.216   2.504  19.412  1.00  0.00    -0.255 F
ENDBRANCH  18  19
ENDBRANCH  17  18
ENDBRANCH   6  16
BRANCH   1  21
HETATM   21  C1  UNL     1      -3.182   3.785  10.466  1.00  0.00     0.208 C
BRANCH  21  22
HETATM   22  O1  UNL     1      -4.413   4.461  10.377  1.00  0.00    -0.398 OA
ATOM     23  H1  UNL     1      -4.366   5.080   9.658  1.00  0.00     0.209 HD
ENDBRANCH  21  22
ENDBRANCH   1  21
BRANCH   9  24
HETATM   24  O5  UNL     1      -2.209   6.879  13.900  1.00  0.00    -0.390 OA
ATOM     25  H5  UNL     1      -2.485   7.773  13.740  1.00  0.00     0.210 HD
ENDBRANCH   9  24
TORSDOF 7
ENDMDL