MODEL 2
REMARK VINA RESULT: -7.055452432      0.068      1.186
REMARK  5 active torsions:
REMARK  status: ('A' for Active; 'I' for Inactive)
REMARK    1  A    between atoms: C2_2  and  O1_3
REMARK    2  A    between atoms: C2_2  and  C3_5
REMARK    3  A    between atoms: C5_9  and  N1_10
REMARK       I    between atoms: N1_10  and  C6_12
REMARK    4  A    between atoms: C6_12  and  C7_14
REMARK    5  A    between atoms: C9_19  and  O5_20
ROOT
HETATM    1  C3  UNL     1      -5.694   1.751  16.169  1.00  0.00     0.225 C
HETATM    2  O2  UNL     1      -5.982   3.098  16.136  1.00  0.00    -0.229 OA
HETATM    3  O3  UNL     1      -4.892   3.778  16.015  1.00  0.00    -0.230 OA
HETATM    4  C4  UNL     1      -3.945   3.035  15.355  1.00  0.00     0.220 C
HETATM    5  C5  UNL     1      -4.212   2.859  13.864  1.00  0.00     0.122 C
HETATM    6  C8  UNL     1      -4.329   1.372  14.051  1.00  0.00     0.071 C
HETATM    7  C9  UNL     1      -4.333   1.581  15.538  1.00  0.00     0.122 C
ENDROOT
BRANCH   5   8
HETATM    8  N1  UNL     1      -3.070   3.296  13.102  1.00  0.00    -0.350 N
HETATM    9  C6  UNL     1      -3.261   3.766  11.785  1.00  0.00     0.273 C
HETATM   10  O4  UNL     1      -4.422   3.791  11.315  1.00  0.00    -0.269 OA
ATOM     11  H1  UNL     1      -2.135   3.265  13.509  1.00  0.00     0.163 HD
BRANCH   9  12
HETATM   12  C7  UNL     1      -2.071   4.216  11.006  1.00  0.00     0.269 C
HETATM   13 CL1  UNL     1      -2.407   3.885   9.287  1.00  0.00    -0.073 Cl
HETATM   14 CL2  UNL     1      -0.617   3.289  11.518  1.00  0.00    -0.073 Cl
HETATM   15 CL3  UNL     1      -1.717   5.926  11.251  1.00  0.00    -0.073 Cl
ENDBRANCH   9  12
ENDBRANCH   5   8
BRANCH   7  16
HETATM   16  O5  UNL     1      -3.439   0.813  16.240  1.00  0.00    -0.384 OA
ATOM     17  H5  UNL     1      -2.860   0.270  15.718  1.00  0.00     0.210 HD
ENDBRANCH   7  16
BRANCH   1  18
HETATM   18  C2  UNL     1      -5.639   1.180  17.561  1.00  0.00     0.149 C
HETATM   19  C1  UNL     1      -6.489   1.932  18.543  1.00  0.00     0.042 C
BRANCH  18  20
HETATM   20  O1  UNL     1      -6.147  -0.126  17.484  1.00  0.00    -0.393 OA
ATOM     21  H1  UNL     1      -6.037  -0.419  16.588  1.00  0.00     0.210 HD
ENDBRANCH  18  20
ENDBRANCH   1  18
TORSDOF 5
ENDMDL