MODEL 2
REMARK VINA RESULT: -6.511743872      1.040      1.040
REMARK  4 active torsions:
REMARK  status: ('A' for Active; 'I' for Inactive)
REMARK    1  A    between atoms: C2_2  and  O1_3
REMARK    2  A    between atoms: C3_6  and  C4_7
REMARK    3  A    between atoms: C4_7  and  N1_8
REMARK    4  A    between atoms: C5_13  and  C6_14
ROOT
HETATM    1  C1  UNL     1      -4.602   5.445  13.674  1.00  0.00     0.083 C
HETATM    2  C2  UNL     1      -5.359   4.279  14.318  1.00  0.00     0.199 C
HETATM    3  O2  UNL     1      -5.515   3.322  13.398  1.00  0.00    -0.341 OA
HETATM    4  C3  UNL     1      -4.990   2.087  13.612  1.00  0.00     0.205 C
HETATM    5  C5  UNL     1      -4.047   1.905  14.730  1.00  0.00     0.256 C
HETATM    6  O5  UNL     1      -3.710   2.991  15.479  1.00  0.00    -0.346 OA
HETATM    7  C7  UNL     1      -4.687   3.925  15.588  1.00  0.00     0.280 C
HETATM    8 CL1  UNL     1      -5.876   3.573  16.896  1.00  0.00    -0.089 Cl
ENDROOT
BRANCH   4   9
HETATM    9  C4  UNL     1      -4.368   1.646  12.277  1.00  0.00     0.286 C
HETATM   10 BR1  UNL     1      -2.783   2.611  11.846  1.00  0.00    -0.058 Br
BRANCH   9  11
HETATM   11  N1  UNL     1      -4.142   0.216  12.241  1.00  0.00    -0.063 N
ATOM     12  H13 UNL     1      -3.695  -0.112  13.097  1.00  0.00     0.275 HD
ATOM     13  H12 UNL     1      -5.017  -0.302  12.311  1.00  0.00     0.275 HD
ATOM     14  H11 UNL     1      -3.611  -0.059  11.415  1.00  0.00     0.275 HD
ENDBRANCH   9  11
ENDBRANCH   4   9
BRANCH   5  15
HETATM   15  C6  UNL     1      -4.469   0.755  15.608  1.00  0.00     0.206 C
HETATM   16  O3  UNL     1      -4.888  -0.311  15.093  1.00  0.00    -0.646 OA
HETATM   17  O4  UNL     1      -4.416   0.811  16.981  1.00  0.00    -0.646 OA
ENDBRANCH   5  15
BRANCH   2  18
HETATM   18  O1  UNL     1      -6.639   4.782  14.660  1.00  0.00    -0.363 OA
ATOM     19  H1  UNL     1      -6.584   5.043  15.571  1.00  0.00     0.213 HD
ENDBRANCH   2  18
TORSDOF 4
ENDMDL