MODEL 2
REMARK VINA RESULT: -6.077727460      1.633      4.107
REMARK  5 active torsions:
REMARK  status: ('A' for Active; 'I' for Inactive)
REMARK    1  A    between atoms: O1_2  and  C2_3
REMARK    2  A    between atoms: C4_5  and  O2_6
REMARK    3  A    between atoms: C5_8  and  O3_9
REMARK    4  A    between atoms: C5_8  and  C6_11
REMARK    5  A    between atoms: C6_11  and  O4_12
ROOT
HETATM    1  C2  UNL     1      -4.711   3.327  12.705  1.00  0.00     0.157 C
HETATM    2  C3  UNL     1      -3.292   3.059  12.313  1.00  0.00     0.069 C
HETATM    3  C4  UNL     1      -2.410   4.270  12.318  1.00  0.00     0.158 C
HETATM    4  C5  UNL     1      -2.212   4.916  13.621  1.00  0.00     0.118 C
HETATM    5  C7  UNL     1      -3.308   4.975  14.580  1.00  0.00     0.138 C
HETATM    6  C8  UNL     1      -3.657   3.553  14.955  1.00  0.00     0.166 C
HETATM    7  O5  UNL     1      -3.067   2.752  15.654  1.00  0.00    -0.295 OA
HETATM    8  C9  UNL     1      -4.874   3.684  14.145  1.00  0.00     0.159 C
HETATM    9 CL1  UNL     1      -6.363   3.091  14.883  1.00  0.00    -0.104 Cl
HETATM   10  C10 UNL     1      -4.685   5.205  14.256  1.00  0.00     0.157 C
HETATM   11 CL2  UNL     1      -5.226   6.127  12.907  1.00  0.00    -0.098 Cl
HETATM   12 CL3  UNL     1      -5.623   5.708  15.721  1.00  0.00    -0.098 Cl
ENDROOT
BRANCH   4  13
HETATM   13  O3  UNL     1      -1.188   4.176  14.289  1.00  0.00    -0.384 OA
ATOM     14  H3  UNL     1      -1.507   4.008  15.169  1.00  0.00     0.210 HD
ENDBRANCH   4  13
BRANCH   4  15
HETATM   15  C6  UNL     1      -1.519   6.265  13.381  1.00  0.00     0.205 C
BRANCH  15  16
HETATM   16  O4  UNL     1      -0.363   6.168  12.667  1.00  0.00    -0.398 OA
ATOM     17  H4  UNL     1       0.422   6.268  13.193  1.00  0.00     0.209 HD
ENDBRANCH  15  16
ENDBRANCH   4  15
BRANCH   3  18
HETATM   18  O2  UNL     1      -2.763   5.159  11.276  1.00  0.00    -0.392 OA
ATOM     19  H2  UNL     1      -3.592   5.586  11.460  1.00  0.00     0.210 HD
ENDBRANCH   3  18
BRANCH   1  20
HETATM   20  O1  UNL     1      -5.443   2.164  12.426  1.00  0.00    -0.388 OA
HETATM   21  C1  UNL     1      -4.817   1.368  11.473  1.00  0.00     0.202 C
ENDBRANCH   1  20
TORSDOF 5
ENDMDL