MODEL 3
REMARK VINA RESULT: -6.155778783      1.896      1.977
REMARK  4 active torsions:
REMARK  status: ('A' for Active; 'I' for Inactive)
REMARK    1  A    between atoms: C1_2  and  C2_4
REMARK    2  A    between atoms: C3_6  and  C4_7
REMARK       I    between atoms: C4_7  and  N1_9
REMARK    3  A    between atoms: N1_9  and  C5_11
REMARK    4  A    between atoms: C6_14  and  O5_15
ROOT
HETATM    1  C2  UNL     1      -3.934   3.341  15.143  1.00  0.00     0.223 C
HETATM    2  O3  UNL     1      -2.630   3.557  14.784  1.00  0.00    -0.322 OA
HETATM    3  C3  UNL     1      -3.068   4.120  13.606  1.00  0.00     0.242 C
HETATM    4  S1  UNL     1      -4.283   2.834  13.451  1.00  0.00    -0.066 SA
HETATM    5  C6  UNL     1      -3.858   5.362  14.035  1.00  0.00     0.205 C
HETATM    6 CL2  UNL     1      -2.813   6.717  14.422  1.00  0.00    -0.082 Cl
HETATM    7  C7  UNL     1      -4.498   4.750  15.296  1.00  0.00     0.193 C
HETATM    8 CL3  UNL     1      -6.247   4.792  15.231  1.00  0.00    -0.116 Cl
ENDROOT
BRANCH   3   9
HETATM    9  C4  UNL     1      -2.092   4.309  12.546  1.00  0.00     0.268 C
HETATM   10  O4  UNL     1      -2.431   5.057  11.568  1.00  0.00    -0.269 OA
HETATM   11  N1  UNL     1      -0.800   3.727  12.517  1.00  0.00    -0.345 N
ATOM     12  H1  UNL     1      -0.506   3.125  13.286  1.00  0.00     0.163 HD
BRANCH  11  13
HETATM   13  C5  UNL     1       0.110   3.971  11.418  1.00  0.00     0.238 C
HETATM   14 CL1  UNL     1       1.018   5.461  11.833  1.00  0.00    -0.109 Cl
ENDBRANCH  11  13
ENDBRANCH   3   9
BRANCH   5  15
HETATM   15  O5  UNL     1      -4.837   5.670  13.088  1.00  0.00    -0.370 OA
ATOM     16  H5  UNL     1      -5.420   6.343  13.419  1.00  0.00     0.212 HD
ENDBRANCH   5  15
BRANCH   1  17
HETATM   17  C1  UNL     1      -4.215   2.401  16.202  1.00  0.00     0.222 C
HETATM   18  O1  UNL     1      -5.177   2.605  16.987  1.00  0.00    -0.645 OA
HETATM   19  O2  UNL     1      -3.444   1.261  16.383  1.00  0.00    -0.645 OA
ENDBRANCH   1  17
TORSDOF 4
ENDMDL