MODEL 3
REMARK VINA RESULT: -7.068073183      2.241      2.393
REMARK  5 active torsions:
REMARK  status: ('A' for Active; 'I' for Inactive)
REMARK    1  A    between atoms: O1_1  and  C1_3
REMARK    2  A    between atoms: C1_3  and  C2_4
REMARK    3  A    between atoms: C3_6  and  N1_7
REMARK    4  A    between atoms: C6_10  and  O3_11
REMARK    5  A    between atoms: C10_19  and  O4_20
ROOT
HETATM    1  C2  UNL     1      -3.163   3.609  13.407  1.00  0.00     0.178 C
HETATM    2  O2  UNL     1      -3.950   2.781  14.226  1.00  0.00    -0.351 OA
HETATM    3  C3  UNL     1      -4.426   3.657  15.236  1.00  0.00     0.294 C
HETATM    4  C8  UNL     1      -5.345   4.694  14.728  1.00  0.00     0.301 C
HETATM    5  F1  UNL     1      -6.586   4.224  14.352  1.00  0.00    -0.200 F
HETATM    6  F2  UNL     1      -5.541   5.658  15.692  1.00  0.00    -0.200 F
HETATM    7  C9  UNL     1      -4.777   5.401  13.506  1.00  0.00     0.166 C
HETATM    8 BR1  UNL     1      -3.364   6.571  14.152  1.00  0.00    -0.082 Br
HETATM    9  C10 UNL     1      -4.179   4.375  12.576  1.00  0.00     0.169 C
ENDROOT
BRANCH   3  10
HETATM   10  N1  UNL     1      -4.793   2.861  16.315  1.00  0.00    -0.380 N
HETATM   11  C4  UNL     1      -5.882   3.148  17.137  1.00  0.00     0.122 C
HETATM   12  C5  UNL     1      -6.671   1.830  17.129  1.00  0.00     0.053 C
HETATM   13  C6  UNL     1      -5.470   0.882  17.289  1.00  0.00     0.137 C
HETATM   14  C7  UNL     1      -4.547   1.466  16.241  1.00  0.00     0.151 C
BRANCH  13  15
HETATM   15  O3  UNL     1      -5.833  -0.423  17.031  1.00  0.00    -0.394 OA
ATOM     16  H3  UNL     1      -5.266  -0.811  16.374  1.00  0.00     0.210 HD
ENDBRANCH  13  15
ENDBRANCH   3  10
BRANCH   1  17
HETATM   17  C1  UNL     1      -2.246   2.758  12.601  1.00  0.00     0.198 C
BRANCH  17  18
HETATM   18  O1  UNL     1      -2.917   1.570  12.284  1.00  0.00    -0.398 OA
ATOM     19  H1  UNL     1      -2.708   1.341  11.386  1.00  0.00     0.209 HD
ENDBRANCH  17  18
ENDBRANCH   1  17
BRANCH   9  20
HETATM   20  O4  UNL     1      -5.201   3.458  12.242  1.00  0.00    -0.392 OA
ATOM     21  H4  UNL     1      -4.877   2.946  11.510  1.00  0.00     0.210 HD
ENDBRANCH   9  20
TORSDOF 5
ENDMDL