MODEL 3
REMARK VINA RESULT: -5.183862522      3.542      6.867
REMARK  12 active torsions:
REMARK  status: ('A' for Active; 'I' for Inactive)
REMARK    1  A    between atoms: C2_2  and  O1_3
REMARK    2  A    between atoms: C2_2  and  C3_5
REMARK    3  A    between atoms: C4_8  and  C5_9
REMARK    4  A    between atoms: C5_9  and  C6_12
REMARK    5  A    between atoms: C6_12  and  C7_13
REMARK    6  A    between atoms: C7_13  and  C8_14
REMARK    7  A    between atoms: C8_14  and  N2_15
REMARK    8  A    between atoms: N2_15  and  N3_17
REMARK    9  A    between atoms: C10_22  and  N5_23
REMARK   10  A    between atoms: C12_30  and  C13_31
REMARK   11  A    between atoms: C13_31  and  S1_32
REMARK   12  A    between atoms: S1_32  and  N8_33
REMARK       I    between atoms: N8_33  and  C14_35
REMARK       I    between atoms: C14_35  and  N9_36
REMARK       I    between atoms: C14_35  and  N10_40
ROOT
HETATM    1  N3  UNL     1      57.397  13.359  27.328  1.00  0.00    -0.285 N
ATOM      2  H3  UNL     1      58.300  13.762  27.079  1.00  0.00     0.188 HD
HETATM    3  C9  UNL     1      56.664  13.264  26.340  1.00  0.00     0.145 A
HETATM    4  N4  UNL     1      57.110  13.701  25.102  1.00  0.00    -0.175 N
ATOM      5  H4  UNL     1      58.074  14.023  25.010  1.00  0.00     0.186 HD
HETATM    6  C10 UNL     1      56.311  13.714  24.019  1.00  0.00     0.678 A
HETATM    7  N6  UNL     1      55.040  13.320  24.033  1.00  0.00    -0.178 N
ATOM      8  H6  UNL     1      54.445  13.340  23.204  1.00  0.00     0.185 HD
HETATM    9  C11 UNL     1      54.591  12.880  25.265  1.00  0.00     0.142 A
HETATM   10  N7  UNL     1      53.165  12.914  25.390  1.00  0.00    -0.081 NA
HETATM   11  C12 UNL     1      55.362  12.836  26.359  1.00  0.00     0.040 A
ENDROOT
BRANCH   1  12
HETATM   12  N2  UNL     1      57.335  13.075  28.664  1.00  0.00    -0.314 N
ATOM     13  H2  UNL     1      56.605  13.459  29.262  1.00  0.00     0.185 HD
BRANCH  12  14
HETATM   14  C8  UNL     1      58.316  12.240  29.157  1.00  0.00     0.080 C
BRANCH  14  15
HETATM   15  C7  UNL     1      57.911  11.398  30.284  1.00  0.00     0.052 C
BRANCH  15  16
HETATM   16  C6  UNL     1      57.018  10.253  29.910  1.00  0.00     0.093 C
BRANCH  16  17
HETATM   17  C5  UNL     1      57.564   8.899  29.800  1.00  0.00     0.301 C
HETATM   18  F1  UNL     1      56.978   8.196  28.711  1.00  0.00    -0.198 F
HETATM   19  F2  UNL     1      57.231   8.169  30.951  1.00  0.00    -0.198 F
BRANCH  17  20
HETATM   20  C4  UNL     1      59.004   8.782  29.583  1.00  0.00     0.160 A
HETATM   21  N1  UNL     1      59.500   9.074  28.319  1.00  0.00    -0.328 N
HETATM   22  C3  UNL     1      60.784   9.001  27.992  1.00  0.00     0.115 A
ATOM     23  H1  UNL     1      58.839   9.362  27.599  1.00  0.00     0.168 HD
HETATM   24  N12 UNL     1      61.638   8.636  28.926  1.00  0.00    -0.296 N
HETATM   25  C15 UNL     1      61.244   8.340  30.190  1.00  0.00     0.327 A
ATOM     26  H12 UNL     1      62.628   8.574  28.692  1.00  0.00     0.172 HD
HETATM   27  N11 UNL     1      59.912   8.427  30.471  1.00  0.00    -0.293 N
HETATM   28  O2  UNL     1      62.009   7.991  31.107  1.00  0.00    -0.247 OA
ATOM     29  H11 UNL     1      59.602   8.206  31.418  1.00  0.00     0.172 HD
BRANCH  22  30
HETATM   30  C2  UNL     1      61.201   9.314  26.595  1.00  0.00     0.181 C
HETATM   31  C1  UNL     1      61.384  10.859  26.531  1.00  0.00     0.047 C
BRANCH  30  32
HETATM   32  O1  UNL     1      62.367   8.680  26.193  1.00  0.00    -0.388 OA
ATOM     33  H1  UNL     1      62.951   8.571  26.934  1.00  0.00     0.210 HD
ENDBRANCH  30  32
ENDBRANCH  22  30
ENDBRANCH  17  20
ENDBRANCH  16  17
ENDBRANCH  15  16
ENDBRANCH  14  15
ENDBRANCH  12  14
ENDBRANCH   1  12
BRANCH  11  34
HETATM   34  C13 UNL     1      54.793  12.093  27.609  1.00  0.00     0.143 C
BRANCH  34  35
HETATM   35  S1  UNL     1      54.748  10.462  27.363  1.00  0.00    -0.052 SA
BRANCH  35  36
HETATM   36  N8  UNL     1      54.744   8.962  27.113  1.00  0.00    -0.315 N
HETATM   37  C14 UNL     1      54.099   7.896  27.846  1.00  0.00     0.485 C
HETATM   38  N9  UNL     1      52.692   7.905  27.909  1.00  0.00    -0.032 N
HETATM   39  N10 UNL     1      54.526   6.624  27.205  1.00  0.00    -0.032 N
ATOM     40  H93 UNL     1      52.377   8.804  28.275  1.00  0.00     0.279 HD
ATOM     41  H92 UNL     1      52.314   7.939  26.962  1.00  0.00     0.279 HD
ATOM     42  H91 UNL     1      52.237   7.152  28.426  1.00  0.00     0.279 HD
ATOM     43 3H10 UNL     1      54.341   6.594  26.202  1.00  0.00     0.279 HD
ATOM     44 2H10 UNL     1      55.539   6.520  27.149  1.00  0.00     0.279 HD
ATOM     45 1H10 UNL     1      54.071   5.871  27.722  1.00  0.00     0.279 HD
ATOM     46  H8  UNL     1      55.281   8.661  26.301  1.00  0.00     0.171 HD
ENDBRANCH  35  36
ENDBRANCH  34  35
ENDBRANCH  11  34
BRANCH   6  47
HETATM   47  N5  UNL     1      56.786  14.077  22.832  1.00  0.00    -0.234 N
ATOM     48  H52 UNL     1      57.717  14.494  22.839  1.00  0.00     0.174 HD
ATOM     49  H51 UNL     1      56.217  13.977  21.992  1.00  0.00     0.174 HD
ENDBRANCH   6  47
TORSDOF 12
ENDMDL