MODEL 2
REMARK VINA RESULT: -1.412493988      1.362      2.507
REMARK  15 active torsions:
REMARK  status: ('A' for Active; 'I' for Inactive)
REMARK    1  A    between atoms: C5_10  and  N4_11
REMARK    2  A    between atoms: C6_14  and  C7_15
REMARK    3  A    between atoms: C8_18  and  N6_19
REMARK    4  A    between atoms: N7_22  and  C9_23
REMARK    5  A    between atoms: C9_23  and  C10_24
REMARK    6  A    between atoms: C10_24  and  C11_25
REMARK    7  A    between atoms: C11_25  and  C13_27
REMARK    8  A    between atoms: C11_25  and  C17_41
REMARK    9  A    between atoms: C13_27  and  O1_28
REMARK   10  A    between atoms: N8_30  and  C14_32
REMARK   11  A    between atoms: C14_32  and  C15_33
REMARK   12  A    between atoms: C14_32  and  C16_36
REMARK   13  A    between atoms: C15_33  and  O2_34
REMARK   14  A    between atoms: C16_36  and  O3_37
REMARK   15  A    between atoms: C16_36  and  O4_39
ROOT
HETATM    1  C1  UNL     1      55.545  10.239  29.547  1.00  0.00     0.069 C
HETATM    2  C2  UNL     1      55.759  11.315  28.517  1.00  0.00     0.025 A
HETATM    3  N1  UNL     1      54.809  11.543  27.594  1.00  0.00    -0.337 N
ATOM      4  H1  UNL     1      53.969  10.965  27.613  1.00  0.00     0.168 HD
HETATM    5  C3  UNL     1      54.907  12.485  26.655  1.00  0.00     0.190 A
HETATM    6  C4  UNL     1      53.847  12.695  25.676  1.00  0.00     0.137 C
HETATM    7  N2  UNL     1      53.031  12.866  24.900  1.00  0.00    -0.188 NA
HETATM    8  N3  UNL     1      56.011  13.224  26.650  1.00  0.00    -0.319 N
ATOM      9  H3  UNL     1      56.096  13.947  25.935  1.00  0.00     0.169 HD
HETATM   10  C5  UNL     1      57.047  13.077  27.545  1.00  0.00     0.117 A
HETATM   11  C6  UNL     1      56.930  12.094  28.517  1.00  0.00     0.076 A
ENDROOT
BRANCH  10  12
HETATM   12  N4  UNL     1      58.051  13.809  27.425  1.00  0.00    -0.385 N
ATOM     13  H42 UNL     1      58.877  13.547  26.886  1.00  0.00     0.157 HD
ATOM     14  H41 UNL     1      58.042  14.729  27.864  1.00  0.00     0.157 HD
ENDBRANCH  10  12
BRANCH  11  15
HETATM   15  C7  UNL     1      57.957  11.807  29.486  1.00  0.00     0.152 A
HETATM   16  N5  UNL     1      58.235  12.616  30.540  1.00  0.00    -0.173 N
HETATM   17  C8  UNL     1      59.194  12.080  31.308  1.00  0.00     0.694 A
ATOM     18  H5  UNL     1      57.778  13.508  30.722  1.00  0.00     0.186 HD
HETATM   19  N7  UNL     1      59.526  10.915  30.730  1.00  0.00    -0.122 N
HETATM   20  N9  UNL     1      58.770  10.776  29.640  1.00  0.00    -0.268 N
ATOM     21  H9  UNL     1      58.813   9.977  29.007  1.00  0.00     0.189 HD
BRANCH  17  22
HETATM   22  N6  UNL     1      59.681  12.610  32.394  1.00  0.00    -0.233 N
ATOM     23  H62 UNL     1      59.221  12.740  33.295  1.00  0.00     0.174 HD
ATOM     24  H61 UNL     1      60.623  12.987  32.501  1.00  0.00     0.174 HD
ENDBRANCH  17  22
BRANCH  19  25
HETATM   25  C9  UNL     1      60.553  10.007  31.267  1.00  0.00     0.169 C
BRANCH  25  26
HETATM   26  C10 UNL     1      61.204   9.341  30.129  1.00  0.00     0.049 C
BRANCH  26  27
HETATM   27  C11 UNL     1      60.511   8.262  29.379  1.00  0.00     0.120 C
HETATM   28  C12 UNL     1      59.632   7.543  30.352  1.00  0.00     0.034 C
BRANCH  27  29
HETATM   29  C13 UNL     1      59.837   8.740  28.168  1.00  0.00     0.129 C
HETATM   30  N8  UNL     1      59.183   7.885  27.333  1.00  0.00    -0.362 N
ATOM     31  H8  UNL     1      59.649   7.673  26.451  1.00  0.00     0.162 HD
BRANCH  29  32
HETATM   32  O1  UNL     1      60.488   9.853  27.576  1.00  0.00    -0.349 OA
ATOM     33  H1  UNL     1      60.752  10.508  28.212  1.00  0.00     0.219 HD
ENDBRANCH  29  32
BRANCH  30  34
HETATM   34  C14 UNL     1      57.962   7.271  27.542  1.00  0.00     0.161 C
BRANCH  34  35
HETATM   35  C15 UNL     1      56.912   8.320  27.991  1.00  0.00     0.194 C
BRANCH  35  36
HETATM   36  O2  UNL     1      55.700   7.681  28.144  1.00  0.00    -0.399 OA
ATOM     37  H2  UNL     1      55.015   8.338  28.147  1.00  0.00     0.209 HD
ENDBRANCH  35  36
ENDBRANCH  34  35
BRANCH  34  38
HETATM   38  C16 UNL     1      57.364   6.602  26.311  1.00  0.00     0.278 C
BRANCH  38  39
HETATM   39  O3  UNL     1      56.830   5.381  26.689  1.00  0.00    -0.369 OA
ATOM     40  H3  UNL     1      56.103   5.178  26.112  1.00  0.00     0.212 HD
ENDBRANCH  38  39
BRANCH  38  41
HETATM   41  O4  UNL     1      56.454   7.389  25.643  1.00  0.00    -0.369 OA
ATOM     42  H4  UNL     1      56.852   8.091  25.141  1.00  0.00     0.212 HD
ENDBRANCH  38  41
ENDBRANCH  34  38
ENDBRANCH  30  34
ENDBRANCH  27  29
BRANCH  27  43
HETATM   43  C17 UNL     1      61.542   7.152  28.990  1.00  0.00     0.402 C
HETATM   44  F1  UNL     1      62.467   7.119  30.028  1.00  0.00    -0.170 F
HETATM   45  F2  UNL     1      60.999   5.929  28.904  1.00  0.00    -0.170 F
HETATM   46  F3  UNL     1      62.205   7.490  27.849  1.00  0.00    -0.170 F
ENDBRANCH  27  43
ENDBRANCH  26  27
ENDBRANCH  25  26
ENDBRANCH  19  25
ENDBRANCH  11  15
TORSDOF 15
ENDMDL