MODEL 1
REMARK VINA RESULT: -4.067951081      0.000      0.000
REMARK  16 active torsions:
REMARK  status: ('A' for Active; 'I' for Inactive)
REMARK    1  A    between atoms: N1_1  and  C1_4
REMARK    2  A    between atoms: C3_8  and  N3_9
REMARK    3  A    between atoms: N3_9  and  C4_11
REMARK    4  A    between atoms: C7_14  and  C8_15
REMARK    5  A    between atoms: N4_17  and  C9_18
REMARK    6  A    between atoms: C9_18  and  C10_19
REMARK    7  A    between atoms: C10_19  and  O1_20
REMARK    8  A    between atoms: C10_19  and  N5_22
REMARK    9  A    between atoms: N5_22  and  N6_23
REMARK   10  A    between atoms: N9_33  and  C13_34
REMARK   11  A    between atoms: C13_34  and  O2_35
REMARK   12  A    between atoms: O2_35  and  C14_36
REMARK   13  A    between atoms: C14_36  and  C15_37
REMARK   14  A    between atoms: C14_36  and  C16_40
REMARK   15  A    between atoms: C15_37  and  O3_38
REMARK   16  A    between atoms: C16_40  and  O4_41
ROOT
HETATM    1  C1  UNL     1      57.590  11.929  29.023  1.00  0.00     0.682 A
HETATM    2  N2  UNL     1      57.111  10.854  28.337  1.00  0.00    -0.184 N
ATOM      3  H2  UNL     1      56.329  10.867  27.682  1.00  0.00     0.184 HD
HETATM    4  C2  UNL     1      57.828   9.790  28.659  1.00  0.00     0.138 A
HETATM    5  C3  UNL     1      57.776   8.474  28.268  1.00  0.00     0.140 A
HETATM    6  N7  UNL     1      58.706   7.651  28.835  1.00  0.00    -0.317 N
ATOM      7  H7  UNL     1      58.714   6.663  28.582  1.00  0.00     0.170 HD
HETATM    8  C11 UNL     1      59.610   8.106  29.716  1.00  0.00     0.182 A
HETATM    9 CL1  UNL     1      60.800   7.013  30.431  1.00  0.00    -0.045 Cl
HETATM   10  N8  UNL     1      59.667   9.391  30.105  1.00  0.00    -0.316 N
ATOM     11  H8  UNL     1      60.366   9.706  30.777  1.00  0.00     0.170 HD
HETATM   12  C12 UNL     1      58.776  10.246  29.579  1.00  0.00     0.159 A
HETATM   13  N9  UNL     1      58.623  11.559  29.797  1.00  0.00    -0.144 N
ENDROOT
BRANCH   5  14
HETATM   14  N3  UNL     1      56.984   7.966  27.466  1.00  0.00    -0.326 N
ATOM     15  H3  UNL     1      56.324   8.659  27.113  1.00  0.00     0.169 HD
BRANCH  14  16
HETATM   16  C4  UNL     1      56.744   6.729  26.919  1.00  0.00     0.109 A
HETATM   17  C5  UNL     1      57.700   5.957  26.291  1.00  0.00     0.051 A
HETATM   18  C6  UNL     1      57.072   4.805  25.875  1.00  0.00     0.031 A
HETATM   19  C7  UNL     1      55.718   4.870  26.252  1.00  0.00     0.042 A
HETATM   20  N4  UNL     1      55.552   6.046  26.878  1.00  0.00    -0.331 N
BRANCH  19  21
HETATM   21  C8  UNL     1      54.807   3.766  25.956  1.00  0.00     0.279 C
HETATM   22  F1  UNL     1      54.970   3.237  24.692  1.00  0.00    -0.249 F
ENDBRANCH  19  21
BRANCH  20  23
HETATM   23  C9  UNL     1      54.326   6.507  27.446  1.00  0.00     0.181 C
BRANCH  23  24
HETATM   24  C10 UNL     1      54.357   7.887  28.031  1.00  0.00     0.248 C
BRANCH  24  25
HETATM   25  O1  UNL     1      53.821   7.777  29.332  1.00  0.00    -0.376 OA
ATOM     26  H1  UNL     1      54.047   8.583  29.781  1.00  0.00     0.211 HD
ENDBRANCH  24  25
BRANCH  24  27
HETATM   27  N5  UNL     1      53.692   8.904  27.299  1.00  0.00    -0.115 NA
BRANCH  27  28
HETATM   28  N6  UNL     1      54.077  10.195  27.689  1.00  0.00    -0.346 N
ATOM     29  H62 UNL     1      54.581  10.382  28.556  1.00  0.00     0.172 HD
ATOM     30  H61 UNL     1      53.801  10.910  27.017  1.00  0.00     0.172 HD
ENDBRANCH  27  28
ENDBRANCH  24  27
ENDBRANCH  23  24
ENDBRANCH  20  23
ENDBRANCH  14  16
ENDBRANCH   5  14
BRANCH   1  31
HETATM   31  N1  UNL     1      57.063  13.120  28.894  1.00  0.00    -0.234 N
ATOM     32  H12 UNL     1      56.382  13.436  28.204  1.00  0.00     0.174 HD
ATOM     33  H11 UNL     1      57.310  13.888  29.520  1.00  0.00     0.174 HD
ENDBRANCH   1  31
BRANCH  13  34
HETATM   34  C13 UNL     1      59.361  12.451  30.654  1.00  0.00     0.319 C
BRANCH  34  35
HETATM   35  O2  UNL     1      58.508  13.294  31.360  1.00  0.00    -0.361 OA
BRANCH  35  36
HETATM   36  C14 UNL     1      59.164  14.028  32.321  1.00  0.00     0.170 C
BRANCH  36  37
HETATM   37  C15 UNL     1      58.377  15.306  32.603  1.00  0.00     0.198 C
BRANCH  37  38
HETATM   38  O3  UNL     1      59.138  16.165  33.363  1.00  0.00    -0.398 OA
ATOM     39  H3  UNL     1      59.941  16.378  32.901  1.00  0.00     0.209 HD
ENDBRANCH  37  38
ENDBRANCH  36  37
BRANCH  36  40
HETATM   40  C16 UNL     1      60.541  14.483  31.846  1.00  0.00     0.198 C
BRANCH  40  41
HETATM   41  O4  UNL     1      61.430  14.395  32.915  1.00  0.00    -0.398 OA
ATOM     42  H4  UNL     1      61.160  15.014  33.583  1.00  0.00     0.209 HD
ENDBRANCH  40  41
ENDBRANCH  36  40
ENDBRANCH  35  36
ENDBRANCH  34  35
ENDBRANCH  13  34
TORSDOF 16
ENDMDL