MODEL 2
REMARK VINA RESULT: -3.739476598      1.397      2.100
REMARK  12 active torsions:
REMARK  status: ('A' for Active; 'I' for Inactive)
REMARK    1  A    between atoms: N1_2  and  C3_4
REMARK    2  A    between atoms: C3_4  and  C4_5
REMARK    3  A    between atoms: C4_5  and  C5_6
REMARK    4  A    between atoms: C5_6  and  C6_9
REMARK    5  A    between atoms: C6_9  and  N2_10
REMARK    6  A    between atoms: N2_10  and  C7_12
REMARK    7  A    between atoms: C8_15  and  N4_16
REMARK    8  A    between atoms: C9_21  and  N6_22
REMARK    9  A    between atoms: C10_25  and  N7_26
REMARK   10  A    between atoms: C11_30  and  C12_31
REMARK   11  A    between atoms: C12_31  and  N10_32
REMARK   12  A    between atoms: C14_39  and  N13_40
ROOT
HETATM    1  C7  UNL     1      57.734   8.810  27.995  1.00  0.00     0.151 A
HETATM    2  N3  UNL     1      57.192   7.753  27.328  1.00  0.00    -0.175 N
ATOM      3  H3  UNL     1      57.804   7.112  26.823  1.00  0.00     0.186 HD
HETATM    4  C8  UNL     1      55.864   7.540  27.324  1.00  0.00     0.679 A
HETATM    5  N5  UNL     1      55.067   8.386  27.989  1.00  0.00    -0.175 N
ATOM      6  H5  UNL     1      54.060   8.226  27.987  1.00  0.00     0.186 HD
HETATM    7  C9  UNL     1      55.565   9.450  28.663  1.00  0.00     0.148 A
HETATM    8  C10 UNL     1      56.909   9.693  28.687  1.00  0.00     0.161 A
ENDROOT
BRANCH   8   9
HETATM    9  N7  UNL     1      57.481  10.793  29.382  1.00  0.00    -0.172 N
HETATM   10  N8  UNL     1      57.809  11.987  28.906  1.00  0.00     0.003 NA
HETATM   11  N9  UNL     1      58.318  12.748  29.859  1.00  0.00    -0.269 N
HETATM   12  C11 UNL     1      58.331  12.041  31.001  1.00  0.00     0.129 A
ATOM     13  H9  UNL     1      58.646  13.707  29.746  1.00  0.00     0.185 HD
HETATM   14  N15 UNL     1      57.806  10.843  30.664  1.00  0.00    -0.266 N
ATOM     15  H15 UNL     1      57.677  10.071  31.318  1.00  0.00     0.190 HD
BRANCH  12  16
HETATM   16  C12 UNL     1      58.813  12.487  32.336  1.00  0.00     0.231 C
BRANCH  16  17
HETATM   17  N10 UNL     1      59.069  13.903  32.406  1.00  0.00    -0.125 N
HETATM   18  C13 UNL     1      58.146  14.763  32.864  1.00  0.00     0.697 A
HETATM   19  N11 UNL     1      56.979  14.417  33.291  1.00  0.00    -0.234 N
HETATM   20  N12 UNL     1      58.447  16.099  32.895  1.00  0.00    -0.022 N
ATOM     21 2H11 UNL     1      56.755  13.422  33.268  1.00  0.00     0.174 HD
ATOM     22 1H11 UNL     1      56.278  15.071  33.639  1.00  0.00     0.174 HD
HETATM   23  C14 UNL     1      59.623  16.594  32.490  1.00  0.00     0.694 A
ATOM     24  H12 UNL     1      57.742  16.748  33.245  1.00  0.00     0.203 HD
HETATM   25  N14 UNL     1      60.517  15.691  32.039  1.00  0.00    -0.140 N
HETATM   26  C15 UNL     1      60.254  14.379  31.995  1.00  0.00     0.355 A
ATOM     27  H14 UNL     1      61.427  16.020  31.720  1.00  0.00     0.189 HD
HETATM   28  O1  UNL     1      61.167  13.600  31.551  1.00  0.00    -0.245 OA
BRANCH  23  29
HETATM   29  N13 UNL     1      59.886  17.854  32.528  1.00  0.00    -0.234 N
ATOM     30 2H13 UNL     1      59.160  18.561  32.412  1.00  0.00     0.174 HD
ATOM     31 1H13 UNL     1      60.831  18.207  32.676  1.00  0.00     0.174 HD
ENDBRANCH  23  29
ENDBRANCH  16  17
ENDBRANCH  12  16
ENDBRANCH   8   9
BRANCH   1  32
HETATM   32  N2  UNL     1      59.104   9.087  27.993  1.00  0.00    -0.368 N
ATOM     33  H2  UNL     1      59.565   9.295  28.880  1.00  0.00     0.161 HD
BRANCH  32  34
HETATM   34  C6  UNL     1      59.887   9.091  26.789  1.00  0.00     0.200 C
BRANCH  34  35
HETATM   35  C5  UNL     1      61.320   9.443  26.983  1.00  0.00     0.260 C
HETATM   36  F1  UNL     1      62.120   8.543  26.224  1.00  0.00    -0.204 F
HETATM   37  F2  UNL     1      61.706  10.685  26.544  1.00  0.00    -0.204 F
BRANCH  35  38
HETATM   38  C4  UNL     1      61.696   9.322  28.433  1.00  0.00     0.111 C
BRANCH  38  39
HETATM   39  C3  UNL     1      61.741   7.905  28.871  1.00  0.00     0.277 C
BRANCH  39  40
HETATM   40  N1  UNL     1      61.295   7.744  30.257  1.00  0.00     0.080 N
HETATM   41  C1  UNL     1      61.398   8.976  30.998  1.00  0.00     0.309 C
HETATM   42  C2  UNL     1      59.999   7.125  30.329  1.00  0.00     0.309 C
ENDBRANCH  39  40
ENDBRANCH  38  39
ENDBRANCH  35  38
ENDBRANCH  34  35
ENDBRANCH  32  34
ENDBRANCH   1  32
BRANCH   7  43
HETATM   43  N6  UNL     1      54.782  10.258  29.295  1.00  0.00    -0.383 N
ATOM     44  H62 UNL     1      53.846  10.419  28.923  1.00  0.00     0.157 HD
ATOM     45  H61 UNL     1      55.090  10.725  30.148  1.00  0.00     0.157 HD
ENDBRANCH   7  43
BRANCH   4  46
HETATM   46  N4  UNL     1      55.336   6.528  26.691  1.00  0.00    -0.234 N
ATOM     47  H42 UNL     1      55.572   5.579  26.981  1.00  0.00     0.174 HD
ATOM     48  H41 UNL     1      54.693   6.662  25.910  1.00  0.00     0.174 HD
ENDBRANCH   4  46
TORSDOF 12
ENDMDL