MODEL 1
REMARK VINA RESULT: -4.296848089      0.000      0.000
REMARK  15 active torsions:
REMARK  status: ('A' for Active; 'I' for Inactive)
REMARK    1  A    between atoms: C3_3  and  C4_4
REMARK    2  A    between atoms: C4_4  and  C5_6
REMARK    3  A    between atoms: C5_6  and  N1_7
REMARK    4  A    between atoms: C5_6  and  C6_11
REMARK    5  A    between atoms: C6_11  and  C7_12
REMARK    6  A    between atoms: C6_11  and  C9_15
REMARK    7  A    between atoms: C7_12  and  C8_13
REMARK    8  A    between atoms: N3_18  and  C10_19
REMARK    9  A    between atoms: C11_22  and  N5_23
REMARK   10  A    between atoms: C12_28  and  N7_29
REMARK   11  A    between atoms: C14_34  and  N8_35
REMARK   12  A    between atoms: C15_43  and  C16_44
REMARK   13  A    between atoms: C16_44  and  O3_45
REMARK   14  A    between atoms: C16_44  and  C17_47
REMARK   15  A    between atoms: C17_47  and  O4_48
ROOT
HETATM    1  C9  UNL     1      57.426  10.489  29.601  1.00  0.00     0.145 A
HETATM    2  N2  UNL     1      57.880  11.096  30.705  1.00  0.00    -0.262 N
ATOM      3  H2  UNL     1      57.897  10.672  31.632  1.00  0.00     0.190 HD
HETATM    4  N3  UNL     1      58.309  12.342  30.428  1.00  0.00    -0.065 N
HETATM    5  C14 UNL     1      58.100  12.479  29.092  1.00  0.00     0.700 A
HETATM    6  N9  UNL     1      57.556  11.332  28.590  1.00  0.00    -0.173 N
ATOM      7  H9  UNL     1      57.297  11.158  27.619  1.00  0.00     0.186 HD
ENDROOT
BRANCH   1   8
HETATM    8  C6  UNL     1      56.887   9.073  29.524  1.00  0.00     0.024 C
BRANCH   8   9
HETATM    9  C5  UNL     1      55.478   8.987  29.106  1.00  0.00     0.295 C
BRANCH   9  10
HETATM   10  C4  UNL     1      55.066   8.476  27.818  1.00  0.00     0.213 C
HETATM   11  O1  UNL     1      54.612   9.269  26.929  1.00  0.00    -0.288 OA
BRANCH  10  12
HETATM   12  C3  UNL     1      55.103   7.050  27.393  1.00  0.00     0.112 A
HETATM   13  C2  UNL     1      56.068   6.473  26.554  1.00  0.00     0.009 A
HETATM   14  C1  UNL     1      57.373   7.094  26.177  1.00  0.00     0.054 C
HETATM   15  C15 UNL     1      55.676   5.146  26.287  1.00  0.00     0.138 A
HETATM   16  O2  UNL     1      54.566   4.976  26.950  1.00  0.00    -0.234 OA
HETATM   17  N10 UNL     1      54.231   6.067  27.586  1.00  0.00    -0.256 N
ATOM     18  H10 UNL     1      53.396   6.154  28.164  1.00  0.00     0.195 HD
BRANCH  15  19
HETATM   19  C16 UNL     1      56.454   4.278  25.395  1.00  0.00     0.103 C
BRANCH  19  20
HETATM   20  O3  UNL     1      57.758   4.055  25.661  1.00  0.00    -0.360 OA
ATOM     21  H3  UNL     1      58.319   3.704  24.979  1.00  0.00     0.217 HD
ENDBRANCH  19  20
BRANCH  19  22
HETATM   22  C17 UNL     1      55.700   3.192  24.641  1.00  0.00     0.231 C
BRANCH  22  23
HETATM   23  O4  UNL     1      55.317   3.547  23.385  1.00  0.00    -0.394 OA
ATOM     24  H4  UNL     1      54.533   4.083  23.353  1.00  0.00     0.209 HD
ENDBRANCH  22  23
ENDBRANCH  19  22
ENDBRANCH  15  19
ENDBRANCH  10  12
ENDBRANCH   9  10
BRANCH   9  25
HETATM   25  N1  UNL     1      54.747  10.259  29.394  1.00  0.00    -0.064 N
ATOM     26  H13 UNL     1      55.370  11.067  29.402  1.00  0.00     0.275 HD
ATOM     27  H12 UNL     1      54.148  10.543  28.619  1.00  0.00     0.275 HD
ATOM     28  H11 UNL     1      54.229  10.162  30.267  1.00  0.00     0.275 HD
ENDBRANCH   9  25
ENDBRANCH   8   9
BRANCH   8  29
HETATM   29  C7  UNL     1      57.909   8.139  29.082  1.00  0.00     0.017 C
BRANCH  29  30
HETATM   30  C8  UNL     1      59.212   7.959  29.737  1.00  0.00     0.250 C
HETATM   31  F1  UNL     1      59.954   6.847  29.333  1.00  0.00    -0.251 F
ENDBRANCH  29  30
ENDBRANCH   8  29
ENDBRANCH   1   8
BRANCH   4  32
HETATM   32  C10 UNL     1      58.828  13.356  31.298  1.00  0.00     0.203 A
HETATM   33  N4  UNL     1      58.061  14.403  31.700  1.00  0.00    -0.171 N
HETATM   34  C11 UNL     1      58.515  15.390  32.459  1.00  0.00     0.679 A
ATOM     35  H4  UNL     1      57.086  14.432  31.401  1.00  0.00     0.186 HD
HETATM   36  N6  UNL     1      59.813  15.354  32.857  1.00  0.00    -0.174 N
HETATM   37  C12 UNL     1      60.663  14.361  32.515  1.00  0.00     0.157 A
ATOM     38  H6  UNL     1      60.163  16.112  33.442  1.00  0.00     0.186 HD
HETATM   39  C13 UNL     1      60.141  13.338  31.713  1.00  0.00     0.207 A
HETATM   40  F2  UNL     1      61.023  12.355  31.416  1.00  0.00    -0.198 F
BRANCH  34  41
HETATM   41  N5  UNL     1      57.740  16.396  32.802  1.00  0.00    -0.234 N
ATOM     42  H52 UNL     1      56.804  16.486  32.407  1.00  0.00     0.174 HD
ATOM     43  H51 UNL     1      58.048  17.092  33.480  1.00  0.00     0.174 HD
ENDBRANCH  34  41
BRANCH  37  44
HETATM   44  N7  UNL     1      61.878  14.383  32.927  1.00  0.00    -0.382 N
ATOM     45  H72 UNL     1      62.337  15.226  33.270  1.00  0.00     0.157 HD
ATOM     46  H71 UNL     1      62.437  13.529  32.918  1.00  0.00     0.157 HD
ENDBRANCH  37  44
ENDBRANCH   4  32
BRANCH   5  47
HETATM   47  N8  UNL     1      58.363  13.540  28.380  1.00  0.00    -0.233 N
ATOM     48  H82 UNL     1      59.284  13.768  28.006  1.00  0.00     0.174 HD
ATOM     49  H81 UNL     1      57.693  14.259  28.104  1.00  0.00     0.174 HD
ENDBRANCH   5  47
TORSDOF 15
ENDMDL