MODEL 1
REMARK VINA RESULT: -3.675427988      0.000      0.000
REMARK  17 active torsions:
REMARK  status: ('A' for Active; 'I' for Inactive)
REMARK    1  A    between atoms: C4_6  and  O2_7
REMARK    2  A    between atoms: C4_6  and  C5_9
REMARK    3  A    between atoms: C6_10  and  C7_11
REMARK    4  A    between atoms: C8_12  and  O3_13
REMARK    5  A    between atoms: O3_13  and  C9_14
REMARK    6  A    between atoms: C9_14  and  C10_15
REMARK    7  A    between atoms: C10_15  and  C11_16
REMARK    8  A    between atoms: C11_16  and  N1_17
REMARK    9  A    between atoms: C12_23  and  N3_24
REMARK   10  A    between atoms: C13_29  and  N5_30
REMARK   11  A    between atoms: N5_30  and  C14_32
REMARK   12  A    between atoms: C14_32  and  C15_33
REMARK   13  A    between atoms: C14_32  and  C16_36
REMARK   14  A    between atoms: C15_33  and  O4_34
REMARK   15  A    between atoms: C16_36  and  N6_37
REMARK   16  A    between atoms: C16_36  and  C17_41
REMARK   17  A    between atoms: C17_41  and  O5_42
ROOT
HETATM    1  C7  UNL     1      57.555   9.454  28.617  1.00  0.00     0.113 A
HETATM    2  C8  UNL     1      56.754  10.584  28.696  1.00  0.00     0.180 A
HETATM    3  N2  UNL     1      57.125  11.543  29.547  1.00  0.00    -0.169 N
ATOM      4  H2  UNL     1      56.558  12.388  29.630  1.00  0.00     0.186 HD
HETATM    5  C12 UNL     1      58.244  11.412  30.305  1.00  0.00     0.679 A
HETATM    6  N4  UNL     1      59.037  10.329  30.248  1.00  0.00    -0.176 N
ATOM      7  H4  UNL     1      59.872  10.262  30.830  1.00  0.00     0.186 HD
HETATM    8  C13 UNL     1      58.703   9.338  29.406  1.00  0.00     0.140 A
ENDROOT
BRANCH   8   9
HETATM    9  N5  UNL     1      59.490   8.173  29.267  1.00  0.00    -0.366 N
ATOM     10  H5  UNL     1      59.156   7.339  29.748  1.00  0.00     0.161 HD
BRANCH   9  11
HETATM   11  C14 UNL     1      60.700   8.040  28.527  1.00  0.00     0.139 C
BRANCH  11  12
HETATM   12  C15 UNL     1      61.091   9.246  27.708  1.00  0.00     0.191 C
BRANCH  12  13
HETATM   13  O4  UNL     1      61.634   8.748  26.498  1.00  0.00    -0.399 OA
ATOM     14  H4  UNL     1      61.646   9.478  25.890  1.00  0.00     0.209 HD
ENDBRANCH  12  13
ENDBRANCH  11  12
BRANCH  11  15
HETATM   15  C16 UNL     1      61.842   7.691  29.435  1.00  0.00     0.231 C
BRANCH  15  16
HETATM   16  N6  UNL     1      61.732   6.302  29.911  1.00  0.00    -0.071 N
ATOM     17  H63 UNL     1      60.967   6.191  30.576  1.00  0.00     0.274 HD
ATOM     18  H62 UNL     1      61.390   5.680  29.178  1.00  0.00     0.274 HD
ATOM     19  H61 UNL     1      62.618   5.977  30.297  1.00  0.00     0.274 HD
ENDBRANCH  15  16
BRANCH  15  20
HETATM   20  C17 UNL     1      61.875   8.571  30.652  1.00  0.00     0.199 C
BRANCH  20  21
HETATM   21  O5  UNL     1      60.988   8.111  31.639  1.00  0.00    -0.399 OA
ATOM     22  H5  UNL     1      61.110   8.577  32.458  1.00  0.00     0.209 HD
ENDBRANCH  20  21
ENDBRANCH  15  20
ENDBRANCH  11  15
ENDBRANCH   9  11
ENDBRANCH   8   9
BRANCH   1  23
HETATM   23  C6  UNL     1      57.198   8.396  27.717  1.00  0.00    -0.053 C
HETATM   24  C5  UNL     1      56.906   7.511  26.943  1.00  0.00    -0.030 C
BRANCH  24  25
HETATM   25  C4  UNL     1      56.554   6.449  25.980  1.00  0.00     0.256 C
HETATM   26  C3  UNL     1      57.692   5.465  26.002  1.00  0.00     0.256 C
HETATM   27  O1  UNL     1      57.103   4.235  26.113  1.00  0.00    -0.336 OA
HETATM   28  C2  UNL     1      55.749   4.384  26.242  1.00  0.00     0.246 C
HETATM   29  C1  UNL     1      54.953   3.796  25.121  1.00  0.00     0.099 C
HETATM   30 CL1  UNL     1      55.263   3.528  27.747  1.00  0.00    -0.057 Cl
HETATM   31  O6  UNL     1      55.457   5.723  26.384  1.00  0.00    -0.292 OA
BRANCH  25  32
HETATM   32  O2  UNL     1      56.397   6.960  24.695  1.00  0.00    -0.354 OA
ATOM     33  H2  UNL     1      55.545   6.715  24.353  1.00  0.00     0.214 HD
ENDBRANCH  25  32
ENDBRANCH  24  25
ENDBRANCH   1  23
BRANCH   2  34
HETATM   34  O3  UNL     1      55.641  10.624  27.890  1.00  0.00    -0.334 OA
BRANCH  34  35
HETATM   35  C9  UNL     1      54.311  10.467  28.253  1.00  0.00     0.179 C
BRANCH  35  36
HETATM   36  C10 UNL     1      54.155   9.297  29.182  1.00  0.00     0.054 C
BRANCH  36  37
HETATM   37  C11 UNL     1      53.766   8.105  28.325  1.00  0.00     0.231 C
BRANCH  37  38
HETATM   38  N1  UNL     1      53.683   8.417  26.932  1.00  0.00    -0.079 N
ATOM     39  H13 UNL     1      53.626   9.424  26.789  1.00  0.00     0.274 HD
ATOM     40  H12 UNL     1      54.570   8.231  26.466  1.00  0.00     0.274 HD
ATOM     41  H11 UNL     1      52.916   7.938  26.458  1.00  0.00     0.274 HD
ENDBRANCH  37  38
ENDBRANCH  36  37
ENDBRANCH  35  36
ENDBRANCH  34  35
ENDBRANCH   2  34
BRANCH   5  42
HETATM   42  N3  UNL     1      58.573  12.376  31.129  1.00  0.00    -0.234 N
ATOM     43  H32 UNL     1      58.088  12.429  32.025  1.00  0.00     0.174 HD
ATOM     44  H31 UNL     1      59.298  13.039  30.854  1.00  0.00     0.174 HD
ENDBRANCH   5  42
TORSDOF 17
ENDMDL