MODEL 1
REMARK VINA RESULT: -3.994500275      0.000      0.000
REMARK  15 active torsions:
REMARK  status: ('A' for Active; 'I' for Inactive)
REMARK    1  A    between atoms: O1_2  and  C2_3
REMARK    2  A    between atoms: C3_4  and  O2_5
REMARK    3  A    between atoms: C4_7  and  C5_8
REMARK    4  A    between atoms: C5_8  and  N1_9
REMARK    5  A    between atoms: N1_9  and  C7_11
REMARK    6  A    between atoms: C7_11  and  C8_12
REMARK    7  A    between atoms: C8_12  and  C9_13
REMARK    8  A    between atoms: C11_18  and  C12_19
REMARK    9  A    between atoms: C12_19  and  O5_20
REMARK   10  A    between atoms: C12_19  and  C13_22
REMARK   11  A    between atoms: C14_23  and  C15_24
REMARK   12  A    between atoms: C15_24  and  O6_26
REMARK   13  A    between atoms: C16_30  and  N4_31
REMARK   14  A    between atoms: C17_36  and  N6_37
REMARK   15  A    between atoms: N6_37  and  N7_39
ROOT
HETATM    1  C12 UNL     1      55.419  10.187  28.379  1.00  0.00     0.199 C
ENDROOT
BRANCH   1   2
HETATM    2  C11 UNL     1      56.527  10.828  29.174  1.00  0.00     0.087 A
HETATM    3  C2  UNL     1      57.296  11.816  28.648  1.00  0.00     0.119 A
HETATM    4  C3  UNL     1      58.304  12.359  29.456  1.00  0.00     0.131 A
HETATM    5  C4  UNL     1      58.514  11.903  30.758  1.00  0.00     0.110 A
HETATM    6  O3  UNL     1      57.752  10.951  31.219  1.00  0.00    -0.275 OA
HETATM    7  C10 UNL     1      56.780  10.411  30.478  1.00  0.00     0.300 A
HETATM    8  O4  UNL     1      56.083   9.500  31.036  1.00  0.00    -0.259 OA
BRANCH   3   9
HETATM    9  O1  UNL     1      57.187  12.346  27.360  1.00  0.00    -0.352 OA
HETATM   10  C1  UNL     1      56.785  13.646  27.043  1.00  0.00     0.210 C
ENDBRANCH   3   9
BRANCH   4  11
HETATM   11  O2  UNL     1      59.079  13.353  28.921  1.00  0.00    -0.356 OA
ATOM     12  H2  UNL     1      59.546  13.162  28.116  1.00  0.00     0.218 HD
ENDBRANCH   4  11
BRANCH   5  13
HETATM   13  C5  UNL     1      59.562  12.545  31.532  1.00  0.00     0.184 C
BRANCH  13  14
HETATM   14  N1  UNL     1      59.500  13.956  31.698  1.00  0.00    -0.411 N
HETATM   15  C6  UNL     1      60.596  14.784  31.718  1.00  0.00     0.143 C
BRANCH  14  16
HETATM   16  C7  UNL     1      58.339  14.247  32.488  1.00  0.00     0.119 C
BRANCH  16  17
HETATM   17  C8  UNL     1      57.901  15.618  32.721  1.00  0.00     0.051 C
BRANCH  17  18
HETATM   18  C9  UNL     1      56.724  15.699  33.702  1.00  0.00     0.224 C
HETATM   19  F1  UNL     1      55.670  16.381  33.104  1.00  0.00    -0.255 F
ENDBRANCH  17  18
ENDBRANCH  16  17
ENDBRANCH  14  16
ENDBRANCH  13  14
ENDBRANCH   5  13
ENDBRANCH   1   2
BRANCH   1  20
HETATM   20  O5  UNL     1      55.223  11.182  27.395  1.00  0.00    -0.386 OA
ATOM     21  H5  UNL     1      55.469  10.692  26.619  1.00  0.00     0.210 HD
ENDBRANCH   1  20
BRANCH   1  22
HETATM   22  C13 UNL     1      55.803   8.879  27.880  1.00  0.00     0.052 A
HETATM   23  C14 UNL     1      54.826   7.983  27.484  1.00  0.00     0.109 A
HETATM   24  N3  UNL     1      55.237   6.782  26.964  1.00  0.00    -0.187 N
HETATM   25  C16 UNL     1      56.530   6.427  26.826  1.00  0.00     0.678 A
ATOM     26  H3  UNL     1      54.523   6.119  26.665  1.00  0.00     0.184 HD
HETATM   27  N5  UNL     1      57.439   7.322  27.225  1.00  0.00    -0.175 N
HETATM   28  C17 UNL     1      57.178   8.531  27.742  1.00  0.00     0.146 A
ATOM     29  H5  UNL     1      58.421   7.061  27.128  1.00  0.00     0.186 HD
BRANCH  23  30
HETATM   30  C15 UNL     1      53.376   8.141  27.710  1.00  0.00     0.178 C
HETATM   31  N2  UNL     1      52.994   9.352  28.406  1.00  0.00    -0.073 NA
BRANCH  30  32
HETATM   32  O6  UNL     1      52.577   7.067  27.827  1.00  0.00    -0.347 OA
ATOM     33  H6  UNL     1      51.644   7.135  27.663  1.00  0.00     0.219 HD
ENDBRANCH  30  32
ENDBRANCH  23  30
BRANCH  25  34
HETATM   34  N4  UNL     1      56.881   5.279  26.329  1.00  0.00    -0.234 N
ATOM     35  H42 UNL     1      56.203   4.531  26.184  1.00  0.00     0.174 HD
ATOM     36  H41 UNL     1      57.846   5.074  26.066  1.00  0.00     0.174 HD
ENDBRANCH  25  34
BRANCH  28  37
HETATM   37  N6  UNL     1      58.129   9.331  28.035  1.00  0.00    -0.291 N
ATOM     38  H6  UNL     1      57.956  10.335  28.022  1.00  0.00     0.188 HD
BRANCH  37  39
HETATM   39  N7  UNL     1      59.398   8.862  28.374  1.00  0.00    -0.344 N
ATOM     40  H72 UNL     1      59.963   8.427  27.644  1.00  0.00     0.176 HD
ATOM     41  H71 UNL     1      59.763   8.946  29.323  1.00  0.00     0.176 HD
ENDBRANCH  37  39
ENDBRANCH  28  37
ENDBRANCH   1  22
TORSDOF 15
ENDMDL