MODEL 3
REMARK VINA RESULT: -4.161889055      2.051      3.267
REMARK  14 active torsions:
REMARK  status: ('A' for Active; 'I' for Inactive)
REMARK    1  A    between atoms: N1_2  and  C2_3
REMARK    2  A    between atoms: N1_2  and  C3_5
REMARK    3  A    between atoms: C4_8  and  N3_9
REMARK    4  A    between atoms: C6_16  and  C7_17
REMARK    5  A    between atoms: C7_17  and  N7_21
REMARK    6  A    between atoms: N7_21  and  C8_23
REMARK    7  A    between atoms: C8_23  and  C9_24
REMARK    8  A    between atoms: C9_24  and  C10_25
REMARK    9  A    between atoms: C10_25  and  C11_26
REMARK   10  A    between atoms: C11_26  and  N8_27
REMARK   11  A    between atoms: C11_26  and  C14_38
REMARK   12  A    between atoms: N8_27  and  C12_29
REMARK   13  A    between atoms: C14_38  and  O2_39
REMARK   14  A    between atoms: C14_38  and  O3_41
ROOT
HETATM    1  N7  UNL     1      57.852  11.379  30.600  1.00  0.00    -0.376 N
ATOM      2  H7  UNL     1      57.102  11.349  31.291  1.00  0.00     0.161 HD
ENDROOT
BRANCH   1   3
HETATM    3  C7  UNL     1      57.632  10.804  29.277  1.00  0.00     0.112 C
HETATM    4  N6  UNL     1      58.343   9.855  29.025  1.00  0.00    -0.385 N
ATOM      5  H62 UNL     1      58.190   9.452  28.101  1.00  0.00     0.157 HD
ATOM      6  H61 UNL     1      59.042   9.473  29.663  1.00  0.00     0.157 HD
BRANCH   3   7
HETATM    7  C6  UNL     1      56.624  11.355  28.357  1.00  0.00     0.094 A
HETATM    8  C3  UNL     1      55.470  10.666  28.139  1.00  0.00     0.142 A
HETATM    9  N2  UNL     1      54.553  11.210  27.259  1.00  0.00    -0.176 N
HETATM   10  C4  UNL     1      54.760  12.372  26.631  1.00  0.00     0.678 A
ATOM     11  H2  UNL     1      53.684  10.705  27.082  1.00  0.00     0.186 HD
HETATM   12  N4  UNL     1      55.875  13.069  26.825  1.00  0.00    -0.178 N
HETATM   13  C5  UNL     1      56.808  12.559  27.689  1.00  0.00     0.149 A
ATOM     14  H4  UNL     1      56.031  13.957  26.346  1.00  0.00     0.185 HD
HETATM   15  N5  UNL     1      57.985  13.313  27.910  1.00  0.00    -0.081 NA
BRANCH   8  16
HETATM   16  N1  UNL     1      55.108   9.437  28.753  1.00  0.00    -0.314 N
HETATM   17  C1  UNL     1      55.051   8.228  27.939  1.00  0.00     0.160 C
BRANCH  16  18
HETATM   18  C2  UNL     1      54.848   9.299  30.145  1.00  0.00     0.356 C
HETATM   19  O1  UNL     1      55.786   9.080  30.948  1.00  0.00    -0.283 OA
ENDBRANCH  16  18
ENDBRANCH   8  16
BRANCH  10  20
HETATM   20  N3  UNL     1      53.849  12.829  25.819  1.00  0.00    -0.234 N
ATOM     21  H32 UNL     1      53.672  12.346  24.938  1.00  0.00     0.174 HD
ATOM     22  H31 UNL     1      53.329  13.668  26.075  1.00  0.00     0.174 HD
ENDBRANCH  10  20
ENDBRANCH   3   7
ENDBRANCH   1   3
BRANCH   1  23
HETATM   23  C8  UNL     1      59.105  11.987  30.947  1.00  0.00     0.121 C
BRANCH  23  24
HETATM   24  C9  UNL     1      59.133  12.860  32.140  1.00  0.00     0.022 C
BRANCH  24  25
HETATM   25  C10 UNL     1      58.781  14.272  31.908  1.00  0.00     0.032 C
BRANCH  25  26
HETATM   26  C11 UNL     1      59.307  15.272  32.933  1.00  0.00     0.138 C
BRANCH  26  27
HETATM   27  N8  UNL     1      58.239  16.015  33.474  1.00  0.00    -0.363 N
ATOM     28  H8  UNL     1      58.502  16.933  33.832  1.00  0.00     0.161 HD
BRANCH  27  29
HETATM   29  C12 UNL     1      56.860  15.705  33.603  1.00  0.00     0.160 A
HETATM   30  N9  UNL     1      56.231  14.913  34.481  1.00  0.00    -0.267 N
HETATM   31  N10 UNL     1      54.943  14.950  34.241  1.00  0.00    -0.223 N
ATOM     32  H9  UNL     1      56.681  14.369  35.217  1.00  0.00     0.190 HD
HETATM   33  N11 UNL     1      54.686  15.752  33.217  1.00  0.00    -0.165 N
ATOM     34  H10 UNL     1      54.238  14.435  34.768  1.00  0.00     0.210 HD
HETATM   35 CL1  UNL     1      53.119  16.131  32.513  1.00  0.00     0.038 Cl
HETATM   36  C13 UNL     1      55.857  16.241  32.793  1.00  0.00     0.185 A
HETATM   37 CL2  UNL     1      56.046  17.349  31.423  1.00  0.00    -0.057 Cl
ENDBRANCH  27  29
ENDBRANCH  26  27
BRANCH  26  38
HETATM   38  C14 UNL     1      60.405  16.005  32.234  1.00  0.00     0.276 C
BRANCH  38  39
HETATM   39  O2  UNL     1      60.923  15.446  31.113  1.00  0.00    -0.369 OA
ATOM     40  H2  UNL     1      61.315  16.026  30.471  1.00  0.00     0.212 HD
ENDBRANCH  38  39
BRANCH  38  41
HETATM   41  O3  UNL     1      59.855  17.255  31.844  1.00  0.00    -0.369 OA
ATOM     42  H3  UNL     1      59.307  17.076  31.090  1.00  0.00     0.212 HD
ENDBRANCH  38  41
ENDBRANCH  26  38
ENDBRANCH  25  26
ENDBRANCH  24  25
ENDBRANCH  23  24
ENDBRANCH   1  23
TORSDOF 14
ENDMDL