MODEL 1
REMARK VINA RESULT: -4.431767466      0.000      0.000
REMARK  14 active torsions:
REMARK  status: ('A' for Active; 'I' for Inactive)
REMARK    1  A    between atoms: C2_3  and  N2_4
REMARK    2  A    between atoms: N2_4  and  C3_5
REMARK    3  A    between atoms: N2_4  and  C5_9
REMARK    4  A    between atoms: C3_5  and  C4_6
REMARK    5  A    between atoms: C4_6  and  O1_7
REMARK    6  A    between atoms: C6_12  and  N4_13
REMARK    7  A    between atoms: C8_22  and  C9_23
REMARK    8  A    between atoms: C11_28  and  C12_29
REMARK    9  A    between atoms: C12_29  and  N9_33
REMARK   10  A    between atoms: N9_33  and  C13_35
REMARK   11  A    between atoms: C13_35  and  C14_36
REMARK   12  A    between atoms: C14_36  and  C15_38
REMARK   13  A    between atoms: C15_38  and  O2_39
REMARK   14  A    between atoms: C15_38  and  O3_41
ROOT
HETATM    1  N1  UNL     1      52.509   7.226  28.059  1.00  0.00    -0.196 NA
HETATM    2  C1  UNL     1      53.522   7.785  27.920  1.00  0.00     0.079 C
HETATM    3  C2  UNL     1      54.804   8.451  27.748  1.00  0.00     0.248 C
ENDROOT
BRANCH   3   4
HETATM    4  N2  UNL     1      55.011   9.598  28.595  1.00  0.00    -0.351 N
BRANCH   4   5
HETATM    5  C3  UNL     1      54.839   9.513  30.001  1.00  0.00     0.151 C
BRANCH   5   6
HETATM    6  C4  UNL     1      55.851   8.753  30.784  1.00  0.00     0.183 C
BRANCH   6   7
HETATM    7  O1  UNL     1      56.089   9.533  31.950  1.00  0.00    -0.399 OA
ATOM      8  H1  UNL     1      56.976   9.324  32.216  1.00  0.00     0.209 HD
ENDBRANCH   6   7
ENDBRANCH   5   6
ENDBRANCH   4   5
BRANCH   4   9
HETATM    9  C5  UNL     1      55.306  10.830  27.959  1.00  0.00     0.138 A
HETATM   10  N3  UNL     1      54.343  11.253  27.055  1.00  0.00    -0.176 N
HETATM   11  C6  UNL     1      54.455  12.377  26.357  1.00  0.00     0.679 A
ATOM     12  H3  UNL     1      53.513  10.676  26.920  1.00  0.00     0.186 HD
HETATM   13  N5  UNL     1      55.546  13.157  26.520  1.00  0.00    -0.176 N
HETATM   14  C7  UNL     1      56.522  12.831  27.366  1.00  0.00     0.132 A
ATOM     15  H5  UNL     1      55.624  14.019  25.980  1.00  0.00     0.186 HD
HETATM   16  N6  UNL     1      57.579  13.564  27.534  1.00  0.00    -0.384 N
HETATM   17  C8  UNL     1      56.365  11.632  28.086  1.00  0.00     0.098 A
ATOM     18  H62 UNL     1      57.692  14.433  27.013  1.00  0.00     0.157 HD
ATOM     19  H61 UNL     1      58.325  13.315  28.183  1.00  0.00     0.157 HD
BRANCH  11  20
HETATM   20  N4  UNL     1      53.513  12.720  25.517  1.00  0.00    -0.234 N
ATOM     21  H42 UNL     1      52.626  12.217  25.499  1.00  0.00     0.174 HD
ATOM     22  H41 UNL     1      53.662  13.498  24.874  1.00  0.00     0.174 HD
ENDBRANCH  11  20
BRANCH  17  23
HETATM   23  C9  UNL     1      57.459  11.337  29.002  1.00  0.00     0.141 A
HETATM   24  N7  UNL     1      57.951  12.039  30.008  1.00  0.00    -0.329 N
HETATM   25  C10 UNL     1      59.011  11.391  30.549  1.00  0.00     0.137 A
ATOM     26  H7  UNL     1      57.587  12.936  30.329  1.00  0.00     0.168 HD
HETATM   27 CL1  UNL     1      59.933  12.010  31.908  1.00  0.00    -0.062 Cl
HETATM   28  C11 UNL     1      59.197  10.207  29.840  1.00  0.00     0.133 A
HETATM   29  N10 UNL     1      58.234  10.213  28.909  1.00  0.00    -0.226 N
HETATM   30  C16 UNL     1      58.026   9.194  27.950  1.00  0.00     0.191 C
HETATM   31  N11 UNL     1      57.823   8.367  27.142  1.00  0.00    -0.171 NA
BRANCH  28  32
HETATM   32  C12 UNL     1      60.237   9.205  30.087  1.00  0.00     0.126 C
HETATM   33  N8  UNL     1      60.195   8.365  31.017  1.00  0.00    -0.384 N
ATOM     34  H82 UNL     1      59.382   8.360  31.634  1.00  0.00     0.157 HD
ATOM     35  H81 UNL     1      60.918   7.668  31.189  1.00  0.00     0.157 HD
BRANCH  32  36
HETATM   36  N9  UNL     1      61.388   9.213  29.215  1.00  0.00    -0.372 N
ATOM     37  H9  UNL     1      62.185   9.832  29.364  1.00  0.00     0.161 HD
BRANCH  36  38
HETATM   38  C13 UNL     1      61.325   8.271  28.111  1.00  0.00     0.163 C
BRANCH  38  39
HETATM   39  C14 UNL     1      61.583   8.995  26.833  1.00  0.00     0.242 C
HETATM   40  F1  UNL     1      60.533   8.717  25.973  1.00  0.00    -0.243 F
BRANCH  39  41
HETATM   41  C15 UNL     1      61.613  10.493  27.114  1.00  0.00     0.289 C
BRANCH  41  42
HETATM   42  O2  UNL     1      62.665  11.033  26.380  1.00  0.00    -0.368 OA
ATOM     43  H2  UNL     1      63.280  11.407  26.999  1.00  0.00     0.212 HD
ENDBRANCH  41  42
BRANCH  41  44
HETATM   44  O3  UNL     1      60.392  11.005  26.667  1.00  0.00    -0.368 OA
ATOM     45  H3  UNL     1      60.084  11.597  27.343  1.00  0.00     0.212 HD
ENDBRANCH  41  44
ENDBRANCH  39  41
ENDBRANCH  38  39
ENDBRANCH  36  38
ENDBRANCH  32  36
ENDBRANCH  28  32
ENDBRANCH  17  23
ENDBRANCH   4   9
ENDBRANCH   3   4
TORSDOF 14
ENDMDL