MODEL 4
REMARK VINA RESULT: -5.073318743      0.453      1.515
REMARK  12 active torsions:
REMARK  status: ('A' for Active; 'I' for Inactive)
REMARK    1  A    between atoms: N1_1  and  C1_4
REMARK    2  A    between atoms: N5_16  and  C6_17
REMARK    3  A    between atoms: C6_17  and  C7_18
REMARK    4  A    between atoms: C7_18  and  C8_19
REMARK    5  A    between atoms: C7_18  and  N13_44
REMARK    6  A    between atoms: C8_19  and  C9_20
REMARK    7  A    between atoms: C9_20  and  N6_21
REMARK    8  A    between atoms: C10_26  and  C11_27
REMARK    9  A    between atoms: C11_27  and  N9_28
REMARK   10  A    between atoms: N9_28  and  C12_30
REMARK   11  A    between atoms: N13_44  and  C17_46
REMARK   12  A    between atoms: C17_46  and  O1_47
ROOT
HETATM    1  C7  UNL     1      58.609  12.180  28.972  1.00  0.00     0.102 C
ENDROOT
BRANCH   1   2
HETATM    2  C6  UNL     1      58.231  10.967  28.054  1.00  0.00     0.155 C
BRANCH   2   3
HETATM    3  N5  UNL     1      59.356  10.097  27.955  1.00  0.00    -0.335 N
HETATM    4  C3  UNL     1      59.835   9.032  28.539  1.00  0.00     0.125 A
HETATM    5  C2  UNL     1      59.355   8.253  29.541  1.00  0.00     0.145 A
HETATM    6  C4  UNL     1      61.103   8.710  28.010  1.00  0.00     0.152 A
HETATM    7  N2  UNL     1      60.093   7.217  30.010  1.00  0.00    -0.175 N
HETATM    8  N3  UNL     1      58.205   8.443  29.972  1.00  0.00    -0.383 N
HETATM    9  C1  UNL     1      61.306   6.956  29.480  1.00  0.00     0.679 A
ATOM     10  H2  UNL     1      59.732   6.634  30.764  1.00  0.00     0.186 HD
HETATM   11  N14 UNL     1      61.822   7.688  28.479  1.00  0.00    -0.174 N
ATOM     12  H14 UNL     1      62.738   7.468  28.088  1.00  0.00     0.186 HD
ATOM     13  H32 UNL     1      57.844   7.858  30.726  1.00  0.00     0.157 HD
ATOM     14  H31 UNL     1      57.649   9.223  29.619  1.00  0.00     0.157 HD
HETATM   15  N4  UNL     1      61.338   9.634  27.074  1.00  0.00    -0.336 N
HETATM   16  C5  UNL     1      60.320  10.462  27.021  1.00  0.00     0.185 A
ATOM     17  H4  UNL     1      62.175   9.688  26.494  1.00  0.00     0.168 HD
BRANCH   9  18
HETATM   18  N1  UNL     1      62.037   6.000  29.953  1.00  0.00    -0.234 N
ATOM     19  H12 UNL     1      61.826   5.052  29.642  1.00  0.00     0.174 HD
ATOM     20  H11 UNL     1      62.808   6.205  30.588  1.00  0.00     0.174 HD
ENDBRANCH   9  18
ENDBRANCH   2   3
ENDBRANCH   1   2
BRANCH   1  21
HETATM   21  C8  UNL     1      57.406  13.128  28.858  1.00  0.00     0.050 C
BRANCH  21  22
HETATM   22  C9  UNL     1      56.829  13.155  27.435  1.00  0.00     0.173 C
BRANCH  22  23
HETATM   23  N6  UNL     1      55.740  12.186  27.555  1.00  0.00    -0.218 N
HETATM   24  N7  UNL     1      54.652  11.992  26.873  1.00  0.00    -0.225 N
HETATM   25  N8  UNL     1      54.049  10.903  27.328  1.00  0.00    -0.271 N
ATOM     26  H7  UNL     1      54.318  12.583  26.111  1.00  0.00     0.210 HD
HETATM   27  C10 UNL     1      54.797  10.401  28.327  1.00  0.00     0.131 A
ATOM     28  H8  UNL     1      53.172  10.515  26.981  1.00  0.00     0.190 HD
HETATM   29  N12 UNL     1      55.838  11.197  28.466  1.00  0.00    -0.269 N
ATOM     30  H12 UNL     1      56.589  11.085  29.147  1.00  0.00     0.190 HD
BRANCH  27  31
HETATM   31  C11 UNL     1      54.470   9.052  28.964  1.00  0.00     0.200 C
BRANCH  31  32
HETATM   32  N9  UNL     1      54.128   8.270  27.765  1.00  0.00    -0.367 N
ATOM     33  H9  UNL     1      53.308   8.552  27.229  1.00  0.00     0.161 HD
BRANCH  32  34
HETATM   34  C12 UNL     1      54.849   7.180  27.321  1.00  0.00     0.142 A
HETATM   35  N10 UNL     1      54.408   5.923  27.176  1.00  0.00    -0.324 N
HETATM   36  C13 UNL     1      55.179   4.939  26.718  1.00  0.00     0.140 A
ATOM     37  H10 UNL     1      53.443   5.711  27.425  1.00  0.00     0.169 HD
HETATM   38  N11 UNL     1      54.717   3.712  26.620  1.00  0.00    -0.383 N
HETATM   39  C14 UNL     1      56.482   5.161  26.362  1.00  0.00     0.162 A
ATOM     40 2H11 UNL     1      53.747   3.546  26.886  1.00  0.00     0.157 HD
ATOM     41 1H11 UNL     1      55.308   2.958  26.270  1.00  0.00     0.157 HD
HETATM   42  F1  UNL     1      57.288   4.184  25.871  1.00  0.00    -0.202 F
HETATM   43  C15 UNL     1      57.012   6.447  26.488  1.00  0.00     0.092 A
HETATM   44  C16 UNL     1      56.201   7.435  26.965  1.00  0.00     0.163 A
HETATM   45  F2  UNL     1      56.664   8.720  27.095  1.00  0.00    -0.202 F
ENDBRANCH  32  34
ENDBRANCH  31  32
ENDBRANCH  27  31
ENDBRANCH  22  23
ENDBRANCH  21  22
ENDBRANCH   1  21
BRANCH   1  46
HETATM   46  N13 UNL     1      58.634  11.797  30.382  1.00  0.00    -0.375 N
ATOM     47  H13 UNL     1      58.400  10.854  30.695  1.00  0.00     0.161 HD
BRANCH  46  48
HETATM   48  C17 UNL     1      59.002  12.817  31.282  1.00  0.00     0.219 C
BRANCH  48  49
HETATM   49  O1  UNL     1      58.609  12.814  32.571  1.00  0.00    -0.357 OA
ATOM     50  H1  UNL     1      57.693  12.781  32.820  1.00  0.00     0.218 HD
ENDBRANCH  48  49
ENDBRANCH  46  48
ENDBRANCH   1  46
TORSDOF 12
ENDMDL