MODEL 1
REMARK VINA RESULT: -8.104716749      0.000      0.000
REMARK  13 active torsions:
REMARK  status: ('A' for Active; 'I' for Inactive)
REMARK    1  A    between atoms: N1_1  and  C1_4
REMARK    2  A    between atoms: C3_9  and  C4_10
REMARK    3  A    between atoms: C4_10  and  C5_11
REMARK    4  A    between atoms: C4_10  and  C8_23
REMARK    5  A    between atoms: C5_11  and  N4_12
REMARK    6  A    between atoms: C7_19  and  N7_20
REMARK    7  A    between atoms: N9_30  and  C11_31
REMARK    8  A    between atoms: C11_31  and  C12_32
REMARK    9  A    between atoms: C12_32  and  N10_33
REMARK   10  A    between atoms: N10_33  and  C13_35
REMARK   11  A    between atoms: C13_35  and  C14_36
REMARK   12  A    between atoms: C14_36  and  O2_37
REMARK   13  A    between atoms: C15_39  and  N11_40
ROOT
HETATM    1  C4  UNL     1    -128.336  32.355 124.740  1.00  0.00     0.091 C
ENDROOT
BRANCH   1   2
HETATM    2  C3  UNL     1    -127.976  31.111 124.023  1.00  0.00     0.038 A
HETATM    3  C2  UNL     1    -128.665  29.916 123.968  1.00  0.00     0.132 A
HETATM    4  N2  UNL     1    -128.121  28.944 123.264  1.00  0.00    -0.325 N
HETATM    5  N3  UNL     1    -129.943  29.752 124.666  1.00  0.00    -0.082 NA
HETATM    6  C1  UNL     1    -126.955  29.167 122.657  1.00  0.00     0.143 A
ATOM      7  H2  UNL     1    -128.582  28.038 123.185  1.00  0.00     0.169 HD
HETATM    8  S1  UNL     1    -126.610  30.778 123.079  1.00  0.00    -0.055 SA
BRANCH   6   9
HETATM    9  N1  UNL     1    -126.264  28.326 121.916  1.00  0.00    -0.380 N
ATOM     10  H12 UNL     1    -126.309  27.308 121.874  1.00  0.00     0.158 HD
ATOM     11  H11 UNL     1    -125.538  28.551 121.236  1.00  0.00     0.158 HD
ENDBRANCH   6   9
ENDBRANCH   1   2
BRANCH   1  12
HETATM   12  C5  UNL     1    -127.455  33.525 124.495  1.00  0.00     0.183 C
BRANCH  12  13
HETATM   13  N4  UNL     1    -127.741  34.275 123.295  1.00  0.00    -0.120 N
HETATM   14  N5  UNL     1    -128.245  33.776 122.173  1.00  0.00    -0.244 N
HETATM   15  C6  UNL     1    -128.370  34.746 121.248  1.00  0.00     0.295 A
ATOM     16  H5  UNL     1    -128.501  32.799 122.032  1.00  0.00     0.191 HD
HETATM   17  F1  UNL     1    -128.856  34.541 120.000  1.00  0.00    -0.163 F
HETATM   18  N6  UNL     1    -127.937  35.874 121.800  1.00  0.00    -0.149 N
HETATM   19  C7  UNL     1    -127.548  35.588 123.063  1.00  0.00     0.696 A
ATOM     20  H6  UNL     1    -127.903  36.790 121.353  1.00  0.00     0.188 HD
BRANCH  19  21
HETATM   21  N7  UNL     1    -127.084  36.443 123.909  1.00  0.00    -0.233 N
ATOM     22  H72 UNL     1    -126.258  37.023 123.765  1.00  0.00     0.174 HD
ATOM     23  H71 UNL     1    -127.488  36.660 124.820  1.00  0.00     0.174 HD
ENDBRANCH  19  21
ENDBRANCH  12  13
ENDBRANCH   1  12
BRANCH   1  24
HETATM   24  C8  UNL     1    -128.614  32.146 126.167  1.00  0.00     0.053 A
HETATM   25  C9  UNL     1    -127.646  32.051 127.145  1.00  0.00     0.203 A
HETATM   26  F2  UNL     1    -126.328  32.167 126.817  1.00  0.00    -0.185 F
HETATM   27  N8  UNL     1    -127.972  31.847 128.435  1.00  0.00    -0.284 N
HETATM   28  C10 UNL     1    -129.232  31.725 128.865  1.00  0.00     0.330 A
ATOM     29  H8  UNL     1    -127.218  31.782 129.120  1.00  0.00     0.173 HD
HETATM   30  O1  UNL     1    -129.516  31.534 130.081  1.00  0.00    -0.246 OA
HETATM   31  N9  UNL     1    -130.219  31.813 127.938  1.00  0.00    -0.283 N
HETATM   32  C15 UNL     1    -129.937  32.014 126.643  1.00  0.00     0.116 A
BRANCH  31  33
HETATM   33  C11 UNL     1    -131.583  31.678 128.394  1.00  0.00     0.154 C
BRANCH  33  34
HETATM   34  C12 UNL     1    -132.187  30.355 128.054  1.00  0.00     0.134 C
BRANCH  34  35
HETATM   35  N10 UNL     1    -131.209  29.321 128.202  1.00  0.00    -0.418 N
ATOM     36  H10 UNL     1    -130.294  29.506 128.613  1.00  0.00     0.153 HD
BRANCH  35  37
HETATM   37  C13 UNL     1    -131.573  28.028 127.750  1.00  0.00     0.139 C
BRANCH  37  38
HETATM   38  C14 UNL     1    -132.215  27.178 128.840  1.00  0.00     0.183 C
BRANCH  38  39
HETATM   39  O2  UNL     1    -132.578  25.923 128.329  1.00  0.00    -0.399 OA
ATOM     40  H2  UNL     1    -132.583  25.273 129.022  1.00  0.00     0.209 HD
ENDBRANCH  38  39
ENDBRANCH  37  38
ENDBRANCH  35  37
ENDBRANCH  34  35
ENDBRANCH  33  34
ENDBRANCH  31  33
BRANCH  32  41
HETATM   41  N11 UNL     1    -130.841  32.096 125.741  1.00  0.00    -0.385 N
ATOM     42 2H11 UNL     1    -131.059  31.329 125.104  1.00  0.00     0.157 HD
ATOM     43 1H11 UNL     1    -131.325  32.992 125.702  1.00  0.00     0.157 HD
ENDBRANCH  32  41
ENDBRANCH   1  24
TORSDOF 13
ENDMDL