MODEL 4
REMARK VINA RESULT: -7.175694074      2.117      4.484
REMARK  14 active torsions:
REMARK  status: ('A' for Active; 'I' for Inactive)
REMARK    1  A    between atoms: C2_7  and  C3_8
REMARK    2  A    between atoms: C3_8  and  N4_9
REMARK    3  A    between atoms: C3_8  and  C11_27
REMARK    4  A    between atoms: N4_9  and  C4_11
REMARK    5  A    between atoms: C4_11  and  O1_12
REMARK    6  A    between atoms: C4_11  and  C5_14
REMARK    7  A    between atoms: C9_23  and  C10_24
REMARK    8  A    between atoms: C11_27  and  O5_28
REMARK    9  A    between atoms: C11_27  and  C12_30
REMARK   10  A    between atoms: C12_30  and  O6_31
REMARK   11  A    between atoms: C12_30  and  C13_33
REMARK   12  A    between atoms: C13_33  and  C14_34
REMARK   13  A    between atoms: C14_34  and  C15_35
REMARK   14  A    between atoms: C15_35  and  N6_36
ROOT
HETATM    1  C3  UNL     1    -129.278  31.917 127.164  1.00  0.00     0.086 C
ENDROOT
BRANCH   1   2
HETATM    2  C2  UNL     1    -130.468  31.080 126.931  1.00  0.00     0.162 A
HETATM    3  N3  UNL     1    -131.546  31.318 126.180  1.00  0.00    -0.267 N
HETATM    4  N2  UNL     1    -132.353  30.298 126.240  1.00  0.00    -0.225 N
ATOM      5  H3  UNL     1    -131.712  32.169 125.641  1.00  0.00     0.190 HD
HETATM    6  N1  UNL     1    -131.825  29.383 127.023  1.00  0.00    -0.223 N
ATOM      7  H2  UNL     1    -133.248  30.221 125.759  1.00  0.00     0.210 HD
HETATM    8  C1  UNL     1    -132.415  28.091 127.352  1.00  0.00     0.202 C
HETATM    9  N7  UNL     1    -130.672  29.834 127.459  1.00  0.00    -0.265 N
ATOM     10  H7  UNL     1    -130.037  29.339 128.085  1.00  0.00     0.190 HD
ENDBRANCH   1   2
BRANCH   1  11
HETATM   11  N4  UNL     1    -128.154  31.537 126.360  1.00  0.00    -0.357 N
ATOM     12  H4  UNL     1    -128.054  30.575 126.036  1.00  0.00     0.162 HD
BRANCH  11  13
HETATM   13  C4  UNL     1    -127.188  32.506 126.022  1.00  0.00     0.270 C
BRANCH  13  14
HETATM   14  O1  UNL     1    -125.933  31.934 125.888  1.00  0.00    -0.371 OA
ATOM     15  H1  UNL     1    -125.694  31.846 124.973  1.00  0.00     0.212 HD
ENDBRANCH  13  14
BRANCH  13  16
HETATM   16  C5  UNL     1    -127.553  33.138 124.721  1.00  0.00     0.079 A
HETATM   17  N5  UNL     1    -127.770  34.486 124.720  1.00  0.00    -0.321 N
HETATM   18  C6  UNL     1    -128.001  35.202 123.614  1.00  0.00     0.269 A
ATOM     19  H5  UNL     1    -127.757  34.975 125.615  1.00  0.00     0.169 HD
HETATM   20  O2  UNL     1    -128.197  36.449 123.651  1.00  0.00    -0.266 OA
HETATM   21  C7  UNL     1    -128.030  34.597 122.395  1.00  0.00     0.124 A
HETATM   22 CL1  UNL     1    -128.325  35.484 120.910  1.00  0.00    -0.076 Cl
HETATM   23  C8  UNL     1    -127.823  33.247 122.333  1.00  0.00     0.080 A
HETATM   24 CL2  UNL     1    -127.845  32.387 120.806  1.00  0.00    -0.081 Cl
HETATM   25  C9  UNL     1    -127.582  32.502 123.518  1.00  0.00     0.091 A
BRANCH  25  26
HETATM   26  C10 UNL     1    -127.495  31.045 123.398  1.00  0.00     0.213 C
HETATM   27  O3  UNL     1    -126.198  30.532 123.459  1.00  0.00    -0.644 OA
HETATM   28  O4  UNL     1    -128.483  30.271 123.912  1.00  0.00    -0.644 OA
ENDBRANCH  25  26
ENDBRANCH  13  16
ENDBRANCH  11  13
ENDBRANCH   1  11
BRANCH   1  29
HETATM   29  C11 UNL     1    -129.031  32.236 128.579  1.00  0.00     0.200 C
BRANCH  29  30
HETATM   30  O5  UNL     1    -127.830  31.737 129.079  1.00  0.00    -0.387 OA
ATOM     31  H5  UNL     1    -127.691  31.906 130.004  1.00  0.00     0.210 HD
ENDBRANCH  29  30
BRANCH  29  32
HETATM   32  C12 UNL     1    -130.185  31.868 129.462  1.00  0.00     0.153 C
BRANCH  32  33
HETATM   33  O6  UNL     1    -129.751  31.508 130.752  1.00  0.00    -0.393 OA
ATOM     34  H6  UNL     1    -130.062  32.122 131.407  1.00  0.00     0.210 HD
ENDBRANCH  32  33
BRANCH  32  35
HETATM   35  C13 UNL     1    -131.223  32.943 129.635  1.00  0.00     0.036 C
BRANCH  35  36
HETATM   36  C14 UNL     1    -131.464  33.197 131.126  1.00  0.00     0.030 C
BRANCH  36  37
HETATM   37  C15 UNL     1    -132.316  34.428 131.315  1.00  0.00     0.230 C
BRANCH  37  38
HETATM   38  N6  UNL     1    -131.775  35.186 132.420  1.00  0.00    -0.079 N
ATOM     39  H63 UNL     1    -132.034  34.799 133.327  1.00  0.00     0.274 HD
ATOM     40  H62 UNL     1    -130.765  35.083 132.510  1.00  0.00     0.274 HD
ATOM     41  H61 UNL     1    -132.063  36.159 132.311  1.00  0.00     0.274 HD
ENDBRANCH  37  38
ENDBRANCH  36  37
ENDBRANCH  35  36
ENDBRANCH  32  35
ENDBRANCH  29  32
ENDBRANCH   1  29
TORSDOF 14
ENDMDL