MODEL 2
REMARK VINA RESULT: -8.065550850      1.051      2.532
REMARK  17 active torsions:
REMARK  status: ('A' for Active; 'I' for Inactive)
REMARK    1  A    between atoms: N1_1  and  C1_4
REMARK    2  A    between atoms: N3_8  and  C3_9
REMARK    3  A    between atoms: C3_9  and  C4_10
REMARK    4  A    between atoms: C3_9  and  C7_14
REMARK    5  A    between atoms: C4_10  and  C5_11
REMARK    6  A    between atoms: C5_11  and  C6_12
REMARK    7  A    between atoms: C7_14  and  C8_15
REMARK    8  A    between atoms: C8_15  and  C9_16
REMARK    9  A    between atoms: C9_16  and  C10_17
REMARK   10  A    between atoms: C10_17  and  O1_18
REMARK   11  A    between atoms: C10_17  and  C11_20
REMARK   12  A    between atoms: C12_23  and  N5_24
REMARK   13  A    between atoms: C13_29  and  N7_30
REMARK   14  A    between atoms: C14_33  and  C15_34
REMARK   15  A    between atoms: C15_34  and  N8_35
REMARK   16  A    between atoms: C15_34  and  N9_39
REMARK   17  A    between atoms: C17_47  and  N12_48
ROOT
HETATM    1  C9  UNL     1    -127.889  32.872 127.036  1.00  0.00     0.067 C
ENDROOT
BRANCH   1   2
HETATM    2  C8  UNL     1    -127.874  31.442 127.695  1.00  0.00     0.013 C
BRANCH   2   3
HETATM    3  C7  UNL     1    -128.585  31.493 128.984  1.00  0.00     0.058 C
BRANCH   3   4
HETATM    4  C3  UNL     1    -130.072  31.695 128.842  1.00  0.00     0.031 C
BRANCH   4   5
HETATM    5  N3  UNL     1    -130.821  31.049 127.816  1.00  0.00    -0.143 N
HETATM    6  C2  UNL     1    -131.508  29.874 127.919  1.00  0.00     0.741 A
HETATM    7  N2  UNL     1    -131.586  28.932 128.879  1.00  0.00    -0.019 N
HETATM    8  N11 UNL     1    -132.207  29.636 126.779  1.00  0.00     0.092 N
HETATM    9  C1  UNL     1    -132.311  27.820 128.726  1.00  0.00     0.705 A
ATOM     10  H2  UNL     1    -131.074  29.072 129.751  1.00  0.00     0.203 HD
HETATM   11  N13 UNL     1    -133.000  27.611 127.577  1.00  0.00    -0.020 N
HETATM   12  C17 UNL     1    -132.954  28.516 126.595  1.00  0.00     0.727 A
ATOM     13  H13 UNL     1    -133.553  26.761 127.463  1.00  0.00     0.203 HD
HETATM   14  N10 UNL     1    -131.983  30.619 125.960  1.00  0.00    -0.259 N
HETATM   15  C16 UNL     1    -131.134  31.492 126.585  1.00  0.00     0.225 A
ATOM     16  H10 UNL     1    -132.370  30.722 125.022  1.00  0.00     0.189 HD
BRANCH   9  17
HETATM   17  N1  UNL     1    -132.374  26.916 129.671  1.00  0.00    -0.234 N
ATOM     18  H12 UNL     1    -133.241  26.821 130.199  1.00  0.00     0.174 HD
ATOM     19  H11 UNL     1    -131.577  26.316 129.882  1.00  0.00     0.174 HD
ENDBRANCH   9  17
BRANCH  12  20
HETATM   20  N12 UNL     1    -133.602  28.329 125.500  1.00  0.00    -0.232 N
ATOM     21 2H12 UNL     1    -133.109  28.111 124.634  1.00  0.00     0.174 HD
ATOM     22 1H12 UNL     1    -134.619  28.396 125.477  1.00  0.00     0.174 HD
ENDBRANCH  12  20
ENDBRANCH   4   5
BRANCH   4  23
HETATM   23  C4  UNL     1    -130.597  32.436 129.781  1.00  0.00     0.002 C
BRANCH  23  24
HETATM   24  C5  UNL     1    -131.881  33.130 129.817  1.00  0.00     0.060 C
BRANCH  24  25
HETATM   25  C6  UNL     1    -131.937  33.882 131.189  1.00  0.00     0.226 C
HETATM   26  F1  UNL     1    -133.110  34.585 131.280  1.00  0.00    -0.255 F
ENDBRANCH  24  25
ENDBRANCH  23  24
ENDBRANCH   4  23
ENDBRANCH   3   4
ENDBRANCH   2   3
ENDBRANCH   1   2
BRANCH   1  27
HETATM   27  C10 UNL     1    -127.124  32.786 125.802  1.00  0.00     0.071 C
BRANCH  27  28
HETATM   28  O1  UNL     1    -126.118  31.962 125.868  1.00  0.00    -0.363 OA
ATOM     29  H1  UNL     1    -125.385  32.210 125.317  1.00  0.00     0.217 HD
ENDBRANCH  27  28
BRANCH  27  30
HETATM   30  C11 UNL     1    -127.264  33.436 124.528  1.00  0.00     0.092 A
HETATM   31  N4  UNL     1    -127.106  34.807 124.480  1.00  0.00    -0.189 N
HETATM   32  C12 UNL     1    -127.235  35.501 123.347  1.00  0.00     0.678 A
ATOM     33  H4  UNL     1    -126.882  35.307 125.340  1.00  0.00     0.184 HD
HETATM   34  N6  UNL     1    -127.526  34.911 122.178  1.00  0.00    -0.177 N
HETATM   35  C13 UNL     1    -127.685  33.587 122.189  1.00  0.00     0.127 A
ATOM     36  H6  UNL     1    -127.623  35.451 121.318  1.00  0.00     0.186 HD
HETATM   37  C14 UNL     1    -127.562  32.806 123.347  1.00  0.00     0.072 A
BRANCH  32  38
HETATM   38  N5  UNL     1    -127.074  36.793 123.357  1.00  0.00    -0.234 N
ATOM     39  H52 UNL     1    -126.955  37.254 124.259  1.00  0.00     0.174 HD
ATOM     40  H51 UNL     1    -127.072  37.311 122.478  1.00  0.00     0.174 HD
ENDBRANCH  32  38
BRANCH  35  41
HETATM   41  N7  UNL     1    -127.968  33.007 121.063  1.00  0.00    -0.384 N
ATOM     42  H72 UNL     1    -128.048  33.575 120.218  1.00  0.00     0.157 HD
ATOM     43  H71 UNL     1    -128.098  31.996 121.073  1.00  0.00     0.157 HD
ENDBRANCH  35  41
BRANCH  37  44
HETATM   44  C15 UNL     1    -127.766  31.377 123.124  1.00  0.00     0.417 C
BRANCH  44  45
HETATM   45  N8  UNL     1    -128.509  30.898 124.339  1.00  0.00    -0.046 N
ATOM     46  H83 UNL     1    -128.014  31.058 125.217  1.00  0.00     0.277 HD
ATOM     47  H82 UNL     1    -129.332  31.457 124.568  1.00  0.00     0.277 HD
ATOM     48  H81 UNL     1    -128.714  29.917 124.151  1.00  0.00     0.277 HD
ENDBRANCH  44  45
BRANCH  44  49
HETATM   49  N9  UNL     1    -126.432  30.758 123.315  1.00  0.00    -0.046 N
ATOM     50  H93 UNL     1    -125.684  31.433 123.472  1.00  0.00     0.277 HD
ATOM     51  H92 UNL     1    -126.332  30.262 124.200  1.00  0.00     0.277 HD
ATOM     52  H91 UNL     1    -126.290  30.169 122.494  1.00  0.00     0.277 HD
ENDBRANCH  44  49
ENDBRANCH  37  44
ENDBRANCH  27  30
ENDBRANCH   1  27
TORSDOF 17
ENDMDL