MODEL 1
REMARK VINA RESULT: -6.866438177      0.000      0.000
REMARK  17 active torsions:
REMARK  status: ('A' for Active; 'I' for Inactive)
REMARK    1  A    between atoms: N1_1  and  C1_4
REMARK    2  A    between atoms: C3_9  and  C4_10
REMARK    3  A    between atoms: C4_10  and  N4_11
REMARK    4  A    between atoms: C4_10  and  N6_22
REMARK    5  A    between atoms: N4_11  and  O1_13
REMARK    6  A    between atoms: O1_13  and  C5_14
REMARK    7  A    between atoms: C5_14  and  C6_15
REMARK    8  A    between atoms: C6_15  and  N5_16
REMARK    9  A    between atoms: N5_16  and  C7_18
REMARK   10  A    between atoms: C7_18  and  C8_19
REMARK   11  A    between atoms: C8_19  and  O2_20
REMARK   12  A    between atoms: N6_22  and  C9_24
REMARK   13  A    between atoms: C9_24  and  N7_25
REMARK   14  A    between atoms: C9_24  and  C10_30
REMARK   15  A    between atoms: N7_25  and  N8_27
REMARK   16  A    between atoms: C12_35  and  C13_36
REMARK   17  A    between atoms: C13_36  and  N10_37
ROOT
HETATM    1  C4  UNL     1    -127.735  33.147 123.890  1.00  0.00     0.146 C
ENDROOT
BRANCH   1   2
HETATM    2  C3  UNL     1    -127.975  33.936 122.695  1.00  0.00     0.120 A
HETATM    3  C2  UNL     1    -127.843  35.302 122.662  1.00  0.00     0.151 A
HETATM    4  N2  UNL     1    -128.069  35.946 121.476  1.00  0.00    -0.178 N
HETATM    5  N3  UNL     1    -127.485  36.045 123.809  1.00  0.00    -0.081 NA
HETATM    6  C1  UNL     1    -128.402  35.311 120.373  1.00  0.00     0.680 A
ATOM      7  H2  UNL     1    -127.976  36.961 121.445  1.00  0.00     0.185 HD
HETATM    8  N11 UNL     1    -128.550  33.960 120.335  1.00  0.00    -0.155 N
HETATM    9  C14 UNL     1    -128.328  33.286 121.510  1.00  0.00     0.277 A
ATOM     10  H11 UNL     1    -128.813  33.473 119.479  1.00  0.00     0.187 HD
HETATM   11  O3  UNL     1    -128.443  32.040 121.538  1.00  0.00    -0.267 OA
BRANCH   6  12
HETATM   12  N1  UNL     1    -128.604  35.930 119.240  1.00  0.00    -0.234 N
ATOM     13  H12 UNL     1    -129.384  35.581 118.683  1.00  0.00     0.174 HD
ATOM     14  H11 UNL     1    -128.020  36.705 118.927  1.00  0.00     0.174 HD
ENDBRANCH   6  12
ENDBRANCH   1   2
BRANCH   1  15
HETATM   15  N4  UNL     1    -126.981  32.205 123.938  1.00  0.00    -0.249 N
ATOM     16  H4  UNL     1    -126.442  32.449 124.769  1.00  0.00     0.196 HD
BRANCH  15  17
HETATM   17  O1  UNL     1    -126.421  31.101 123.621  1.00  0.00    -0.274 OA
BRANCH  17  18
HETATM   18  C5  UNL     1    -127.310  29.908 123.617  1.00  0.00     0.245 C
BRANCH  18  19
HETATM   19  C6  UNL     1    -127.005  29.397 122.237  1.00  0.00     0.084 C
BRANCH  19  20
HETATM   20  N5  UNL     1    -127.990  28.920 121.437  1.00  0.00    -0.398 N
ATOM     21  H5  UNL     1    -127.884  28.928 120.423  1.00  0.00     0.158 HD
BRANCH  20  22
HETATM   22  C7  UNL     1    -129.170  28.410 122.034  1.00  0.00     0.144 C
BRANCH  22  23
HETATM   23  C8  UNL     1    -129.633  27.296 121.075  1.00  0.00     0.183 C
BRANCH  23  24
HETATM   24  O2  UNL     1    -130.053  26.223 121.800  1.00  0.00    -0.399 OA
ATOM     25  H2  UNL     1    -129.690  26.274 122.676  1.00  0.00     0.209 HD
ENDBRANCH  23  24
ENDBRANCH  22  23
ENDBRANCH  20  22
ENDBRANCH  19  20
ENDBRANCH  18  19
ENDBRANCH  17  18
ENDBRANCH  15  17
ENDBRANCH   1  15
BRANCH   1  26
HETATM   26  N6  UNL     1    -128.538  33.335 125.090  1.00  0.00    -0.323 N
ATOM     27  H6  UNL     1    -128.938  34.247 125.311  1.00  0.00     0.169 HD
BRANCH  26  28
HETATM   28  C9  UNL     1    -128.742  32.260 125.914  1.00  0.00     0.155 C
BRANCH  28  29
HETATM   29  N7  UNL     1    -127.730  31.846 126.639  1.00  0.00    -0.290 N
ATOM     30  H7  UNL     1    -127.094  31.123 126.302  1.00  0.00     0.188 HD
BRANCH  29  31
HETATM   31  N8  UNL     1    -127.564  32.432 127.876  1.00  0.00    -0.344 N
ATOM     32  H82 UNL     1    -127.143  31.911 128.645  1.00  0.00     0.176 HD
ATOM     33  H81 UNL     1    -127.880  33.397 127.979  1.00  0.00     0.176 HD
ENDBRANCH  29  31
ENDBRANCH  28  29
BRANCH  28  34
HETATM   34  C10 UNL     1    -129.990  31.508 126.070  1.00  0.00     0.121 A
HETATM   35  N9  UNL     1    -130.892  31.763 127.060  1.00  0.00    -0.337 N
HETATM   36  C11 UNL     1    -131.911  30.994 127.172  1.00  0.00     0.119 A
ATOM     37  H9  UNL     1    -130.758  32.547 127.697  1.00  0.00     0.167 HD
HETATM   38 CL1  UNL     1    -133.244  31.319 128.316  1.00  0.00    -0.063 Cl
HETATM   39  C12 UNL     1    -132.046  29.922 126.283  1.00  0.00     0.049 A
HETATM   40  S1  UNL     1    -130.666  30.139 125.332  1.00  0.00    -0.068 SA
BRANCH  39  41
HETATM   41  C13 UNL     1    -133.025  28.822 126.453  1.00  0.00     0.278 C
BRANCH  41  42
HETATM   42  N10 UNL     1    -132.820  27.915 127.534  1.00  0.00    -0.075 N
ATOM     43 3H10 UNL     1    -131.853  27.982 127.851  1.00  0.00     0.274 HD
ATOM     44 2H10 UNL     1    -133.316  28.256 128.357  1.00  0.00     0.274 HD
ATOM     45 1H10 UNL     1    -133.057  26.934 127.381  1.00  0.00     0.274 HD
ENDBRANCH  41  42
ENDBRANCH  39  41
ENDBRANCH  28  34
ENDBRANCH  26  28
ENDBRANCH   1  26
TORSDOF 17
ENDMDL