MODEL 1
REMARK VINA RESULT: -6.126397225      0.000      0.000
REMARK  12 active torsions:
REMARK  status: ('A' for Active; 'I' for Inactive)
REMARK       I    between atoms: C1_4  and  N3_6
REMARK    1  A    between atoms: N3_6  and  C2_8
REMARK    2  A    between atoms: C2_8  and  C3_9
REMARK    3  A    between atoms: N4_11  and  C4_13
REMARK    4  A    between atoms: C4_13  and  C5_14
REMARK    5  A    between atoms: C5_14  and  N5_15
REMARK    6  A    between atoms: C7_17  and  C8_18
REMARK    7  A    between atoms: C10_22  and  N7_23
REMARK    8  A    between atoms: C11_28  and  N9_29
REMARK    9  A    between atoms: C13_37  and  N12_38
REMARK   10  A    between atoms: N12_38  and  C14_40
REMARK   11  A    between atoms: C16_42  and  C17_43
REMARK   12  A    between atoms: C17_43  and  N13_44
ROOT
HETATM    1  C8  UNL     1    -127.463  32.763 124.369  1.00  0.00     0.107 A
HETATM    2  N6  UNL     1    -127.631  34.103 124.048  1.00  0.00    -0.345 N
ATOM      3  H6  UNL     1    -127.560  34.801 124.788  1.00  0.00     0.166 HD
HETATM    4  C9  UNL     1    -127.878  34.501 122.813  1.00  0.00     0.122 A
HETATM    5  C10 UNL     1    -128.044  35.856 122.508  1.00  0.00     0.145 A
HETATM    6  N8  UNL     1    -128.289  36.162 121.237  1.00  0.00    -0.175 N
ATOM      7  H8  UNL     1    -128.414  37.144 120.994  1.00  0.00     0.186 HD
HETATM    8  C11 UNL     1    -128.383  35.251 120.252  1.00  0.00     0.679 A
HETATM    9  N10 UNL     1    -128.219  33.959 120.572  1.00  0.00    -0.174 N
ATOM     10  H10 UNL     1    -128.289  33.264 119.829  1.00  0.00     0.186 HD
HETATM   11  C12 UNL     1    -127.964  33.527 121.840  1.00  0.00     0.153 A
HETATM   12  N11 UNL     1    -127.807  32.238 122.124  1.00  0.00    -0.325 N
ATOM     13  H11 UNL     1    -127.879  31.549 121.375  1.00  0.00     0.169 HD
HETATM   14  C13 UNL     1    -127.548  31.811 123.416  1.00  0.00     0.132 A
ENDROOT
BRANCH   1  15
HETATM   15  C7  UNL     1    -127.203  32.518 125.766  1.00  0.00     0.097 A
HETATM   16  C6  UNL     1    -127.957  32.469 126.875  1.00  0.00     0.145 A
HETATM   17  N5  UNL     1    -127.193  32.194 127.977  1.00  0.00    -0.285 N
HETATM   18  N15 UNL     1    -125.962  32.073 127.545  1.00  0.00    -0.240 N
HETATM   19  N14 UNL     1    -125.924  32.258 126.246  1.00  0.00    -0.283 N
ATOM     20  H15 UNL     1    -125.153  31.867 128.131  1.00  0.00     0.208 HD
ATOM     21  H14 UNL     1    -125.081  32.216 125.673  1.00  0.00     0.188 HD
BRANCH  17  22
HETATM   22  C5  UNL     1    -127.703  32.073 129.320  1.00  0.00     0.169 C
BRANCH  22  23
HETATM   23  C4  UNL     1    -129.019  31.281 129.315  1.00  0.00     0.143 C
BRANCH  23  24
HETATM   24  N4  UNL     1    -130.140  32.089 129.544  1.00  0.00    -0.367 N
HETATM   25  C3  UNL     1    -131.200  32.119 128.863  1.00  0.00     0.178 C
HETATM   26  F1  UNL     1    -132.240  32.963 129.195  1.00  0.00    -0.190 F
ATOM     27  H4  UNL     1    -130.094  32.719 130.344  1.00  0.00     0.161 HD
BRANCH  25  28
HETATM   28  C2  UNL     1    -131.392  31.257 127.678  1.00  0.00     0.211 C
BRANCH  28  29
HETATM   29  N3  UNL     1    -132.388  30.219 127.931  1.00  0.00    -0.357 N
HETATM   30  C1  UNL     1    -132.061  28.887 127.603  1.00  0.00     0.182 C
HETATM   31  N1  UNL     1    -132.977  28.068 127.252  1.00  0.00    -0.374 N
HETATM   32  N2  UNL     1    -130.721  28.462 127.663  1.00  0.00    -0.064 NA
ATOM     33  H12 UNL     1    -132.740  27.104 127.015  1.00  0.00     0.158 HD
ATOM     34  H11 UNL     1    -133.948  28.377 127.209  1.00  0.00     0.158 HD
ATOM     35  H3  UNL     1    -133.296  30.450 128.336  1.00  0.00     0.162 HD
ENDBRANCH  28  29
ENDBRANCH  25  28
ENDBRANCH  23  24
ENDBRANCH  22  23
ENDBRANCH  17  22
ENDBRANCH   1  15
BRANCH  14  36
HETATM   36  N12 UNL     1    -127.396  30.407 123.584  1.00  0.00    -0.369 N
ATOM     37  H12 UNL     1    -127.264  30.005 124.511  1.00  0.00     0.161 HD
BRANCH  36  38
HETATM   38  C14 UNL     1    -127.436  29.544 122.384  1.00  0.00     0.089 A
HETATM   39  C15 UNL     1    -126.857  28.171 122.574  1.00  0.00     0.033 A
HETATM   40  C16 UNL     1    -128.316  28.306 122.459  1.00  0.00     0.036 A
BRANCH  40  41
HETATM   41  C17 UNL     1    -128.939  27.787 121.188  1.00  0.00     0.236 C
BRANCH  41  42
HETATM   42  N13 UNL     1    -130.184  27.075 121.469  1.00  0.00    -0.079 N
ATOM     43 3H13 UNL     1    -130.453  27.159 122.449  1.00  0.00     0.274 HD
ATOM     44 2H13 UNL     1    -130.987  27.542 121.047  1.00  0.00     0.274 HD
ATOM     45 1H13 UNL     1    -130.121  26.099 121.178  1.00  0.00     0.274 HD
ENDBRANCH  41  42
ENDBRANCH  40  41
ENDBRANCH  36  38
ENDBRANCH  14  36
BRANCH   5  46
HETATM   46  N7  UNL     1    -127.956  36.743 123.447  1.00  0.00    -0.383 N
ATOM     47  H72 UNL     1    -128.433  36.658 124.344  1.00  0.00     0.157 HD
ATOM     48  H71 UNL     1    -127.385  37.576 123.305  1.00  0.00     0.157 HD
ENDBRANCH   5  46
BRANCH   8  49
HETATM   49  N9  UNL     1    -128.627  35.615 119.015  1.00  0.00    -0.234 N
ATOM     50  H92 UNL     1    -128.361  36.540 118.678  1.00  0.00     0.174 HD
ATOM     51  H91 UNL     1    -129.090  34.983 118.363  1.00  0.00     0.174 HD
ENDBRANCH   8  49
TORSDOF 12
ENDMDL