MODEL 5
REMARK VINA RESULT: -6.837166569      1.195      1.228
REMARK  10 active torsions:
REMARK  status: ('A' for Active; 'I' for Inactive)
REMARK    1  A    between atoms: N1_1  and  C1_4
REMARK    2  A    between atoms: N5_13  and  C4_14
REMARK    3  A    between atoms: C4_14  and  C5_15
REMARK    4  A    between atoms: C5_15  and  C6_16
REMARK    5  A    between atoms: C6_16  and  C7_17
REMARK    6  A    between atoms: C7_17  and  N6_18
REMARK    7  A    between atoms: N6_18  and  C8_20
REMARK       I    between atoms: N7_23  and  C11_25
REMARK       I    between atoms: C11_25  and  N8_26
REMARK       I    between atoms: C11_25  and  N9_30
REMARK    8  A    between atoms: C12_34  and  N10_35
REMARK       I    between atoms: N10_35  and  C13_37
REMARK    9  A    between atoms: C13_37  and  C14_39
REMARK   10  A    between atoms: C14_39  and  N11_40
ROOT
HETATM    1  C8  UNL     1    -126.799  32.789 125.837  1.00  0.00     0.104 A
HETATM    2  C9  UNL     1    -127.026  31.600 125.222  1.00  0.00     0.080 A
HETATM    3  C10 UNL     1    -127.258  31.513 123.807  1.00  0.00     0.065 A
HETATM    4  N7  UNL     1    -127.474  30.391 123.339  1.00  0.00    -0.339 N
ATOM      5  H7  UNL     1    -127.450  29.680 124.070  1.00  0.00     0.163 HD
HETATM    6  C11 UNL     1    -127.738  29.826 122.112  1.00  0.00     0.480 C
HETATM    7  N8  UNL     1    -128.695  28.673 122.232  1.00  0.00    -0.033 N
ATOM      8  H81 UNL     1    -128.891  28.255 121.323  1.00  0.00     0.278 HD
ATOM      9  H82 UNL     1    -129.554  28.949 122.709  1.00  0.00     0.278 HD
ATOM     10  H83 UNL     1    -128.361  27.978 122.899  1.00  0.00     0.278 HD
HETATM   11  N9  UNL     1    -126.547  29.182 121.497  1.00  0.00    -0.033 N
ATOM     12  H91 UNL     1    -126.743  28.764 120.588  1.00  0.00     0.278 HD
ATOM     13  H92 UNL     1    -126.135  28.498 122.131  1.00  0.00     0.278 HD
ATOM     14  H93 UNL     1    -125.770  29.840 121.434  1.00  0.00     0.278 HD
HETATM   15  C12 UNL     1    -127.238  32.679 123.108  1.00  0.00     0.103 A
HETATM   16  C15 UNL     1    -127.002  33.889 123.775  1.00  0.00     0.147 A
HETATM   17  N12 UNL     1    -126.996  35.068 122.986  1.00  0.00    -0.080 NA
HETATM   18  N13 UNL     1    -126.790  33.927 125.099  1.00  0.00    -0.329 N
ATOM     19  H13 UNL     1    -126.619  34.823 125.556  1.00  0.00     0.168 HD
ENDROOT
BRANCH   1  20
HETATM   20  N6  UNL     1    -126.566  32.869 127.262  1.00  0.00    -0.376 N
ATOM     21  H6  UNL     1    -126.150  33.698 127.688  1.00  0.00     0.161 HD
BRANCH  20  22
HETATM   22  C7  UNL     1    -126.944  31.734 128.051  1.00  0.00     0.121 C
BRANCH  22  23
HETATM   23  C6  UNL     1    -127.848  32.109 129.203  1.00  0.00     0.021 C
BRANCH  23  24
HETATM   24  C5  UNL     1    -129.246  31.707 128.878  1.00  0.00     0.023 C
BRANCH  24  25
HETATM   25  C4  UNL     1    -129.864  32.366 127.681  1.00  0.00     0.152 C
BRANCH  25  26
HETATM   26  N5  UNL     1    -130.618  31.433 126.908  1.00  0.00    -0.260 N
HETATM   27  C2  UNL     1    -131.758  30.801 127.093  1.00  0.00     0.172 A
HETATM   28  N2  UNL     1    -132.666  30.823 128.083  1.00  0.00    -0.173 N
HETATM   29  C3  UNL     1    -132.010  29.966 125.992  1.00  0.00     0.152 A
HETATM   30  C1  UNL     1    -133.779  30.084 128.048  1.00  0.00     0.679 A
ATOM     31  H2  UNL     1    -132.500  31.424 128.890  1.00  0.00     0.186 HD
HETATM   32  N14 UNL     1    -134.069  29.270 127.023  1.00  0.00    -0.164 N
HETATM   33  C16 UNL     1    -133.167  29.236 126.017  1.00  0.00     0.234 A
ATOM     34  H14 UNL     1    -134.922  28.710 127.003  1.00  0.00     0.186 HD
HETATM   35  F1  UNL     1    -133.416  28.427 124.957  1.00  0.00    -0.183 F
HETATM   36  N3  UNL     1    -130.974  30.144 125.173  1.00  0.00    -0.278 N
HETATM   37  N4  UNL     1    -130.153  31.011 125.712  1.00  0.00    -0.238 N
ATOM     38  H3  UNL     1    -130.843  29.682 124.273  1.00  0.00     0.189 HD
ATOM     39  H4  UNL     1    -129.281  31.324 125.287  1.00  0.00     0.208 HD
BRANCH  30  40
HETATM   40  N1  UNL     1    -134.606  30.158 129.037  1.00  0.00    -0.234 N
ATOM     41  H12 UNL     1    -135.604  30.058 128.850  1.00  0.00     0.174 HD
ATOM     42  H11 UNL     1    -134.238  30.315 129.975  1.00  0.00     0.174 HD
ENDBRANCH  30  40
ENDBRANCH  25  26
ENDBRANCH  24  25
ENDBRANCH  23  24
ENDBRANCH  22  23
ENDBRANCH  20  22
ENDBRANCH   1  20
BRANCH  15  43
HETATM   43  N10 UNL     1    -127.407  32.764 121.726  1.00  0.00    -0.321 N
HETATM   44  C13 UNL     1    -128.588  33.135 121.067  1.00  0.00     0.247 C
HETATM   45  O1  UNL     1    -129.604  33.421 121.734  1.00  0.00    -0.271 OA
ATOM     46  H10 UNL     1    -126.600  32.538 121.143  1.00  0.00     0.169 HD
BRANCH  44  47
HETATM   47  C14 UNL     1    -128.659  33.193 119.596  1.00  0.00     0.332 C
BRANCH  47  48
HETATM   48  N11 UNL     1    -128.594  34.546 119.092  1.00  0.00    -0.071 N
ATOM     49 3H11 UNL     1    -129.433  35.071 119.338  1.00  0.00     0.274 HD
ATOM     50 2H11 UNL     1    -127.901  35.094 119.602  1.00  0.00     0.274 HD
ATOM     51 1H11 UNL     1    -128.421  34.580 118.087  1.00  0.00     0.274 HD
ENDBRANCH  47  48
ENDBRANCH  44  47
ENDBRANCH  15  43
TORSDOF 10
ENDMDL