MODEL 4
REMARK VINA RESULT: -6.193136468      3.150      6.125
REMARK  15 active torsions:
REMARK  status: ('A' for Active; 'I' for Inactive)
REMARK    1  A    between atoms: N1_1  and  C1_4
REMARK    2  A    between atoms: C4_14  and  S1_15
REMARK    3  A    between atoms: S1_15  and  C5_16
REMARK    4  A    between atoms: C5_16  and  C6_17
REMARK    5  A    between atoms: C5_16  and  O1_22
REMARK    6  A    between atoms: C6_17  and  N5_18
REMARK    7  A    between atoms: O1_22  and  N6_23
REMARK    8  A    between atoms: N7_26  and  C7_27
REMARK    9  A    between atoms: C7_27  and  O2_28
REMARK   10  A    between atoms: O2_28  and  C8_29
REMARK   11  A    between atoms: C8_29  and  C9_30
REMARK   12  A    between atoms: C8_29  and  C10_32
REMARK   13  A    between atoms: C10_32  and  O3_33
REMARK   14  A    between atoms: C10_32  and  C11_35
REMARK   15  A    between atoms: C11_35  and  O4_36
ROOT
HETATM    1  C1  UNL     1    -126.784  32.363 128.135  1.00  0.00     0.679 A
HETATM    2  N2  UNL     1    -127.277  32.149 129.359  1.00  0.00    -0.175 N
ATOM      3  H2  UNL     1    -126.683  32.347 130.164  1.00  0.00     0.186 HD
HETATM    4  C2  UNL     1    -128.518  31.687 129.579  1.00  0.00     0.145 A
HETATM    5  N3  UNL     1    -128.961  31.495 130.764  1.00  0.00    -0.383 N
ATOM      6  H31 UNL     1    -129.904  31.144 130.932  1.00  0.00     0.157 HD
ATOM      7  H32 UNL     1    -128.393  31.682 131.591  1.00  0.00     0.157 HD
HETATM    8  C3  UNL     1    -129.287  31.434 128.459  1.00  0.00     0.124 A
HETATM    9  N4  UNL     1    -130.531  30.975 128.338  1.00  0.00    -0.330 N
ATOM     10  H4  UNL     1    -131.159  30.724 129.101  1.00  0.00     0.168 HD
HETATM   11  C4  UNL     1    -130.813  30.902 126.992  1.00  0.00     0.153 A
HETATM   12  N7  UNL     1    -129.753  31.311 126.278  1.00  0.00    -0.289 N
HETATM   13  C12 UNL     1    -128.808  31.643 127.178  1.00  0.00     0.157 A
HETATM   14  N8  UNL     1    -127.545  32.112 127.068  1.00  0.00    -0.174 N
ATOM     15  H8  UNL     1    -127.160  32.279 126.138  1.00  0.00     0.186 HD
ENDROOT
BRANCH  11  16
HETATM   16  S1  UNL     1    -132.403  30.372 126.342  1.00  0.00    -0.057 SA
BRANCH  16  17
HETATM   17  C5  UNL     1    -133.119  29.054 127.355  1.00  0.00     0.246 C
BRANCH  17  18
HETATM   18  C6  UNL     1    -132.319  27.793 127.364  1.00  0.00     0.275 C
BRANCH  18  19
HETATM   19  N5  UNL     1    -132.759  26.861 128.380  1.00  0.00    -0.076 N
ATOM     20  H53 UNL     1    -133.576  27.217 128.876  1.00  0.00     0.274 HD
ATOM     21  H52 UNL     1    -133.173  26.028 127.959  1.00  0.00     0.274 HD
ATOM     22  H51 UNL     1    -132.016  26.611 129.032  1.00  0.00     0.274 HD
ENDBRANCH  18  19
ENDBRANCH  17  18
BRANCH  17  23
HETATM   23  O1  UNL     1    -133.328  29.442 128.687  1.00  0.00    -0.269 OA
BRANCH  23  24
HETATM   24  N6  UNL     1    -134.440  30.214 128.820  1.00  0.00    -0.310 N
ATOM     25  H62 UNL     1    -135.322  30.012 128.346  1.00  0.00     0.184 HD
ATOM     26  H61 UNL     1    -134.280  31.005 129.443  1.00  0.00     0.184 HD
ENDBRANCH  23  24
ENDBRANCH  17  23
ENDBRANCH  16  17
ENDBRANCH  11  16
BRANCH  12  27
HETATM   27  C7  UNL     1    -129.641  31.267 124.798  1.00  0.00     0.303 C
BRANCH  27  28
HETATM   28  O2  UNL     1    -129.085  32.233 124.271  1.00  0.00    -0.363 OA
BRANCH  28  29
HETATM   29  C8  UNL     1    -128.520  33.211 123.734  1.00  0.00     0.164 C
BRANCH  29  30
HETATM   30  C9  UNL     1    -127.754  34.144 124.751  1.00  0.00     0.120 C
HETATM   31 BR1  UNL     1    -127.100  35.655 123.733  1.00  0.00    -0.094 Br
ENDBRANCH  29  30
BRANCH  29  32
HETATM   32  C10 UNL     1    -127.656  32.962 122.524  1.00  0.00     0.171 C
BRANCH  32  33
HETATM   33  O3  UNL     1    -128.368  33.217 121.341  1.00  0.00    -0.391 OA
ATOM     34  H3  UNL     1    -128.071  34.023 120.934  1.00  0.00     0.210 HD
ENDBRANCH  32  33
BRANCH  32  35
HETATM   35  C11 UNL     1    -127.073  31.592 122.470  1.00  0.00     0.198 C
BRANCH  35  36
HETATM   36  O4  UNL     1    -126.240  31.370 123.591  1.00  0.00    -0.398 OA
ATOM     37  H4  UNL     1    -126.609  30.694 124.145  1.00  0.00     0.209 HD
ENDBRANCH  35  36
ENDBRANCH  32  35
ENDBRANCH  29  32
ENDBRANCH  28  29
ENDBRANCH  27  28
ENDBRANCH  12  27
BRANCH   1  38
HETATM   38  N1  UNL     1    -125.576  32.814 127.999  1.00  0.00    -0.234 N
ATOM     39  H12 UNL     1    -124.965  32.924 128.808  1.00  0.00     0.174 HD
ATOM     40  H11 UNL     1    -125.230  33.060 127.072  1.00  0.00     0.174 HD
ENDBRANCH   1  38
TORSDOF 15
ENDMDL