MODEL 1
REMARK VINA RESULT: -7.891033130      0.000      0.000
REMARK  9 active torsions:
REMARK  status: ('A' for Active; 'I' for Inactive)
REMARK    1  A    between atoms: O1_2  and  C2_3
REMARK    2  A    between atoms: C4_5  and  N1_6
REMARK    3  A    between atoms: C5_11  and  N4_12
REMARK    4  A    between atoms: N4_12  and  C6_14
REMARK    5  A    between atoms: C8_19  and  N7_20
REMARK    6  A    between atoms: C10_27  and  N9_28
REMARK    7  A    between atoms: N9_28  and  C11_30
REMARK    8  A    between atoms: C11_30  and  C12_31
REMARK    9  A    between atoms: C12_31  and  N10_32
REMARK       I    between atoms: N10_32  and  C13_34
ROOT
HETATM    1  N1  UNL     1    -128.458  31.826 125.913  1.00  0.00    -0.218 N
HETATM    2  N2  UNL     1    -127.664  31.983 126.948  1.00  0.00    -0.232 N
ATOM      3  H2  UNL     1    -126.690  32.278 126.886  1.00  0.00     0.209 HD
HETATM    4  N3  UNL     1    -128.283  31.713 128.068  1.00  0.00    -0.267 N
ATOM      5  H3  UNL     1    -127.872  31.763 129.001  1.00  0.00     0.190 HD
HETATM    6  C5  UNL     1    -129.578  31.349 127.780  1.00  0.00     0.169 A
HETATM    7  C10 UNL     1    -129.678  31.422 126.422  1.00  0.00     0.174 A
ENDROOT
BRANCH   6   8
HETATM    8  N4  UNL     1    -130.526  31.026 128.771  1.00  0.00    -0.331 N
ATOM      9  H4  UNL     1    -130.855  30.064 128.858  1.00  0.00     0.168 HD
BRANCH   8  10
HETATM   10  C6  UNL     1    -131.037  32.030 129.661  1.00  0.00     0.145 A
HETATM   11  C7  UNL     1    -130.439  32.318 130.855  1.00  0.00     0.164 A
HETATM   12  N5  UNL     1    -129.281  31.609 131.226  1.00  0.00    -0.080 NA
HETATM   13  N6  UNL     1    -130.960  33.272 131.660  1.00  0.00    -0.177 N
HETATM   14  C8  UNL     1    -132.063  33.945 131.301  1.00  0.00     0.680 A
ATOM     15  H6  UNL     1    -130.508  33.482 132.550  1.00  0.00     0.185 HD
HETATM   16  N8  UNL     1    -132.662  33.673 130.131  1.00  0.00    -0.154 N
HETATM   17  C9  UNL     1    -132.172  32.719 129.288  1.00  0.00     0.289 A
ATOM     18  H8  UNL     1    -133.501  34.189 129.868  1.00  0.00     0.187 HD
HETATM   19  O2  UNL     1    -132.772  32.502 128.200  1.00  0.00    -0.265 OA
BRANCH  14  20
HETATM   20  N7  UNL     1    -132.519  34.844 132.102  1.00  0.00    -0.234 N
ATOM     21  H72 UNL     1    -131.993  35.153 132.919  1.00  0.00     0.174 HD
ATOM     22  H71 UNL     1    -133.433  35.252 131.905  1.00  0.00     0.174 HD
ENDBRANCH  14  20
ENDBRANCH   8  10
ENDBRANCH   6   8
BRANCH   7  23
HETATM   23  N9  UNL     1    -130.761  31.198 125.581  1.00  0.00    -0.350 N
ATOM     24  H9  UNL     1    -131.094  32.011 125.064  1.00  0.00     0.166 HD
BRANCH  23  25
HETATM   25  C11 UNL     1    -131.462  30.000 125.347  1.00  0.00     0.082 C
BRANCH  25  26
HETATM   26  C12 UNL     1    -132.657  29.752 126.256  1.00  0.00     0.166 C
BRANCH  26  27
HETATM   27  N10 UNL     1    -132.694  28.352 126.626  1.00  0.00    -0.360 N
HETATM   28  C13 UNL     1    -132.028  27.943 127.825  1.00  0.00     0.182 C
HETATM   29  N11 UNL     1    -132.769  27.702 128.853  1.00  0.00    -0.374 N
HETATM   30  N12 UNL     1    -130.623  27.818 127.851  1.00  0.00    -0.064 NA
ATOM     31 2H11 UNL     1    -133.785  27.792 128.835  1.00  0.00     0.158 HD
ATOM     32 1H11 UNL     1    -132.295  27.411 129.707  1.00  0.00     0.158 HD
ATOM     33  H10 UNL     1    -133.185  27.673 126.045  1.00  0.00     0.162 HD
ENDBRANCH  26  27
ENDBRANCH  25  26
ENDBRANCH  23  25
ENDBRANCH   7  23
BRANCH   1  34
HETATM   34  C4  UNL     1    -128.120  32.030 124.549  1.00  0.00     0.107 A
HETATM   35  C3  UNL     1    -127.741  31.023 123.689  1.00  0.00     0.091 A
HETATM   36  C2  UNL     1    -127.417  31.240 122.371  1.00  0.00     0.146 A
HETATM   37  N13 UNL     1    -127.469  32.493 121.891  1.00  0.00    -0.311 N
HETATM   38  C15 UNL     1    -127.832  33.546 122.672  1.00  0.00     0.231 A
ATOM     39  H13 UNL     1    -127.229  32.661 120.914  1.00  0.00     0.170 HD
HETATM   40  C14 UNL     1    -128.151  33.303 123.983  1.00  0.00     0.201 A
HETATM   41  F2  UNL     1    -127.853  34.759 122.097  1.00  0.00    -0.183 F
HETATM   42  F1  UNL     1    -128.510  34.361 124.744  1.00  0.00    -0.199 F
BRANCH  36  43
HETATM   43  O1  UNL     1    -127.037  30.224 121.508  1.00  0.00    -0.341 OA
HETATM   44  C1  UNL     1    -127.300  28.874 121.717  1.00  0.00     0.211 C
ENDBRANCH  36  43
ENDBRANCH   1  34
TORSDOF 9
ENDMDL