MODEL 2
REMARK VINA RESULT: -7.939309474      1.105      1.597
REMARK  14 active torsions:
REMARK  status: ('A' for Active; 'I' for Inactive)
REMARK    1  A    between atoms: N1_1  and  C1_4
REMARK    2  A    between atoms: N5_15  and  C5_16
REMARK    3  A    between atoms: C5_16  and  C6_17
REMARK    4  A    between atoms: C6_17  and  O1_18
REMARK    5  A    between atoms: C6_17  and  C7_20
REMARK    6  A    between atoms: C7_20  and  N6_21
REMARK    7  A    between atoms: C7_20  and  C10_27
REMARK    8  A    between atoms: N6_21  and  O2_23
REMARK    9  A    between atoms: O2_23  and  C8_24
REMARK   10  A    between atoms: C8_24  and  C9_25
REMARK   11  A    between atoms: C10_27  and  O3_28
REMARK   12  A    between atoms: C10_27  and  O4_30
REMARK   13  A    between atoms: O4_30  and  N7_31
REMARK   14  A    between atoms: N7_31  and  C11_33
ROOT
HETATM    1  C6  UNL     1    -127.865  31.923 126.397  1.00  0.00     0.166 C
ENDROOT
BRANCH   1   2
HETATM    2  C5  UNL     1    -127.018  33.061 125.825  1.00  0.00     0.165 C
BRANCH   2   3
HETATM    3  N5  UNL     1    -127.275  33.204 124.387  1.00  0.00    -0.324 N
HETATM    4  C4  UNL     1    -127.579  34.355 123.746  1.00  0.00     0.185 A
HETATM    5  N4  UNL     1    -127.750  34.065 122.454  1.00  0.00    -0.346 N
HETATM    6  C3  UNL     1    -127.561  32.750 122.255  1.00  0.00     0.123 A
ATOM      7  H4  UNL     1    -127.989  34.741 121.727  1.00  0.00     0.167 HD
HETATM    8  C2  UNL     1    -127.606  31.928 121.147  1.00  0.00     0.145 A
HETATM    9  C15 UNL     1    -127.257  32.214 123.503  1.00  0.00     0.155 A
HETATM   10  N2  UNL     1    -127.357  30.615 121.278  1.00  0.00    -0.175 N
HETATM   11  N3  UNL     1    -127.893  32.473 120.015  1.00  0.00    -0.383 N
HETATM   12  C1  UNL     1    -127.061  30.081 122.473  1.00  0.00     0.679 A
ATOM     13  H2  UNL     1    -127.393  30.014 120.455  1.00  0.00     0.186 HD
HETATM   14  N10 UNL     1    -127.019  30.879 123.548  1.00  0.00    -0.174 N
ATOM     15  H10 UNL     1    -126.794  30.461 124.450  1.00  0.00     0.186 HD
ATOM     16  H32 UNL     1    -127.926  31.866 119.197  1.00  0.00     0.157 HD
ATOM     17  H31 UNL     1    -128.082  33.470 119.916  1.00  0.00     0.157 HD
BRANCH  12  18
HETATM   18  N1  UNL     1    -126.823  28.797 122.571  1.00  0.00    -0.234 N
ATOM     19  H12 UNL     1    -125.869  28.435 122.559  1.00  0.00     0.174 HD
ATOM     20  H11 UNL     1    -127.599  28.142 122.663  1.00  0.00     0.174 HD
ENDBRANCH  12  18
ENDBRANCH   2   3
ENDBRANCH   1   2
BRANCH   1  21
HETATM   21  O1  UNL     1    -127.201  31.454 127.508  1.00  0.00    -0.392 OA
ATOM     22  H1  UNL     1    -127.601  30.624 127.736  1.00  0.00     0.210 HD
ENDBRANCH   1  21
BRANCH   1  23
HETATM   23  C7  UNL     1    -129.228  32.392 126.748  1.00  0.00     0.193 C
BRANCH  23  24
HETATM   24  N6  UNL     1    -129.724  32.177 128.032  1.00  0.00    -0.290 N
ATOM     25  H6  UNL     1    -129.123  31.585 128.606  1.00  0.00     0.188 HD
BRANCH  24  26
HETATM   26  O2  UNL     1    -130.733  32.553 128.612  1.00  0.00    -0.283 OA
BRANCH  26  27
HETATM   27  C8  UNL     1    -131.226  32.562 129.824  1.00  0.00     0.215 C
BRANCH  27  28
HETATM   28  C9  UNL     1    -132.296  33.666 130.027  1.00  0.00     0.143 C
HETATM   29 CL1  UNL     1    -132.158  34.344 131.649  1.00  0.00    -0.128 Cl
ENDBRANCH  27  28
ENDBRANCH  26  27
ENDBRANCH  24  26
ENDBRANCH  23  24
BRANCH  23  30
HETATM   30  C10 UNL     1    -130.285  31.815 125.776  1.00  0.00     0.313 C
BRANCH  30  31
HETATM   31  O3  UNL     1    -130.516  32.658 124.708  1.00  0.00    -0.367 OA
ATOM     32  H3  UNL     1    -131.364  32.499 124.309  1.00  0.00     0.212 HD
ENDBRANCH  30  31
BRANCH  30  33
HETATM   33  O4  UNL     1    -129.619  30.689 125.222  1.00  0.00    -0.231 OA
BRANCH  33  34
HETATM   34  N7  UNL     1    -130.456  29.649 125.116  1.00  0.00    -0.094 N
ATOM     35  H7  UNL     1    -130.304  28.964 124.376  1.00  0.00     0.213 HD
BRANCH  34  36
HETATM   36  C11 UNL     1    -131.552  29.475 126.008  1.00  0.00     0.693 C
HETATM   37  N8  UNL     1    -132.568  30.251 125.862  1.00  0.00    -0.225 N
HETATM   38  C12 UNL     1    -133.685  30.067 126.778  1.00  0.00     0.139 C
ATOM     39  H8  UNL     1    -132.590  30.965 125.134  1.00  0.00     0.177 HD
HETATM   40  C13 UNL     1    -133.178  29.823 128.183  1.00  0.00     0.040 C
HETATM   41  C14 UNL     1    -132.254  28.654 128.268  1.00  0.00     0.139 C
HETATM   42  N9  UNL     1    -131.550  28.490 127.027  1.00  0.00    -0.225 N
ATOM     43  H9  UNL     1    -131.027  27.629 126.873  1.00  0.00     0.177 HD
ENDBRANCH  34  36
ENDBRANCH  33  34
ENDBRANCH  30  33
ENDBRANCH  23  30
ENDBRANCH   1  23
TORSDOF 14
ENDMDL