MODEL 2
REMARK VINA RESULT: -8.725079381      1.697      7.927
REMARK  16 active torsions:
REMARK  status: ('A' for Active; 'I' for Inactive)
REMARK    1  A    between atoms: N1_1  and  C1_4
REMARK    2  A    between atoms: C3_11  and  N4_12
REMARK    3  A    between atoms: N4_12  and  C4_14
REMARK    4  A    between atoms: C6_16  and  C7_17
REMARK    5  A    between atoms: C7_17  and  O1_18
REMARK    6  A    between atoms: C7_17  and  O2_20
REMARK    7  A    between atoms: C8_23  and  C9_24
REMARK    8  A    between atoms: C9_24  and  C10_26
REMARK    9  A    between atoms: C10_26  and  N5_27
REMARK   10  A    between atoms: C10_26  and  C11_31
REMARK   11  A    between atoms: C11_31  and  C12_32
REMARK   12  A    between atoms: C12_32  and  N6_33
REMARK   13  A    between atoms: C12_32  and  C13_37
REMARK   14  A    between atoms: C13_37  and  C14_38
REMARK   15  A    between atoms: C14_38  and  C15_40
REMARK   16  A    between atoms: C15_40  and  N7_41
ROOT
HETATM    1  C4  UNL     1    -129.849  31.946 127.124  1.00  0.00     0.079 A
HETATM    2  C5  UNL     1    -128.975  31.932 128.187  1.00  0.00     0.070 A
HETATM    3  C6  UNL     1    -127.623  32.069 127.950  1.00  0.00     0.110 A
HETATM    4  O3  UNL     1    -127.165  32.210 126.736  1.00  0.00    -0.304 OA
HETATM    5  C8  UNL     1    -127.935  32.232 125.687  1.00  0.00     0.150 A
HETATM    6  C16 UNL     1    -129.306  32.099 125.855  1.00  0.00     0.111 A
HETATM    7  N8  UNL     1    -130.151  32.121 124.721  1.00  0.00    -0.097 NA
ENDROOT
BRANCH   5   8
HETATM    8  C9  UNL     1    -127.434  32.388 124.335  1.00  0.00     0.215 C
HETATM    9  O4  UNL     1    -126.541  31.670 123.845  1.00  0.00    -0.288 OA
BRANCH   8  10
HETATM   10  C10 UNL     1    -128.034  33.481 123.490  1.00  0.00     0.261 C
BRANCH  10  11
HETATM   11  N5  UNL     1    -127.555  34.711 124.109  1.00  0.00    -0.068 N
ATOM     12  H53 UNL     1    -128.159  35.520 123.955  1.00  0.00     0.275 HD
ATOM     13  H52 UNL     1    -127.616  34.720 125.127  1.00  0.00     0.275 HD
ATOM     14  H51 UNL     1    -126.609  34.821 123.745  1.00  0.00     0.275 HD
ENDBRANCH  10  11
BRANCH  10  15
HETATM   15  C11 UNL     1    -127.504  33.297 122.114  1.00  0.00     0.074 C
BRANCH  15  16
HETATM   16  C12 UNL     1    -128.324  32.545 121.139  1.00  0.00     0.187 C
BRANCH  16  17
HETATM   17  N6  UNL     1    -127.387  31.768 120.303  1.00  0.00    -0.075 N
ATOM     18  H63 UNL     1    -126.863  32.344 119.645  1.00  0.00     0.274 HD
ATOM     19  H62 UNL     1    -126.588  31.407 120.824  1.00  0.00     0.274 HD
ATOM     20  H61 UNL     1    -127.934  31.036 119.850  1.00  0.00     0.274 HD
ENDBRANCH  16  17
BRANCH  16  21
HETATM   21  C13 UNL     1    -129.218  33.341 120.240  1.00  0.00     0.054 C
BRANCH  21  22
HETATM   22  C14 UNL     1    -128.466  34.526 119.623  1.00  0.00     0.109 C
HETATM   23 CL2  UNL     1    -128.606  35.982 120.596  1.00  0.00    -0.123 Cl
BRANCH  22  24
HETATM   24  C15 UNL     1    -128.985  34.803 118.228  1.00  0.00     0.249 C
BRANCH  24  25
HETATM   25  N7  UNL     1    -129.099  36.201 117.954  1.00  0.00    -0.078 N
ATOM     26  H73 UNL     1    -128.181  36.624 117.815  1.00  0.00     0.274 HD
ATOM     27  H72 UNL     1    -129.495  36.362 117.029  1.00  0.00     0.274 HD
ATOM     28  H71 UNL     1    -129.627  36.698 118.671  1.00  0.00     0.274 HD
ENDBRANCH  24  25
ENDBRANCH  22  24
ENDBRANCH  21  22
ENDBRANCH  16  21
ENDBRANCH  15  16
ENDBRANCH  10  15
ENDBRANCH   8  10
ENDBRANCH   5   8
BRANCH   3  29
HETATM   29  C7  UNL     1    -126.673  32.054 129.101  1.00  0.00     0.312 C
BRANCH  29  30
HETATM   30  O1  UNL     1    -127.380  31.689 130.245  1.00  0.00    -0.365 OA
ATOM     31  H1  UNL     1    -126.760  31.596 130.960  1.00  0.00     0.213 HD
ENDBRANCH  29  30
BRANCH  29  32
HETATM   32  O2  UNL     1    -126.058  33.269 129.284  1.00  0.00    -0.365 OA
ATOM     33  H2  UNL     1    -125.617  33.327 130.123  1.00  0.00     0.213 HD
ENDBRANCH  29  32
ENDBRANCH   3  29
BRANCH   1  34
HETATM   34  N4  UNL     1    -131.112  31.821 127.300  1.00  0.00    -0.189 N
ATOM     35  H4  UNL     1    -131.702  32.642 127.440  1.00  0.00     0.184 HD
BRANCH  34  36
HETATM   36  C3  UNL     1    -131.674  30.515 127.294  1.00  0.00     0.699 A
HETATM   37  N3  UNL     1    -131.367  29.606 128.259  1.00  0.00    -0.164 N
HETATM   38  C2  UNL     1    -131.893  28.371 128.262  1.00  0.00     0.208 A
ATOM     39  H3  UNL     1    -130.720  29.871 129.001  1.00  0.00     0.186 HD
HETATM   40  N2  UNL     1    -132.747  28.015 127.285  1.00  0.00    -0.165 N
HETATM   41 CL1  UNL     1    -131.498  27.191 129.510  1.00  0.00    -0.044 Cl
HETATM   42  C1  UNL     1    -133.053  28.928 126.317  1.00  0.00     0.692 A
ATOM     43  H2  UNL     1    -133.157  27.081 127.267  1.00  0.00     0.186 HD
HETATM   44  N9  UNL     1    -132.530  30.155 126.317  1.00  0.00    -0.022 N
ATOM     45  H9  UNL     1    -132.777  30.817 125.582  1.00  0.00     0.203 HD
BRANCH  42  46
HETATM   46  N1  UNL     1    -133.870  28.574 125.393  1.00  0.00    -0.234 N
ATOM     47  H12 UNL     1    -133.953  27.592 125.131  1.00  0.00     0.174 HD
ATOM     48  H11 UNL     1    -134.422  29.301 124.939  1.00  0.00     0.174 HD
ENDBRANCH  42  46
ENDBRANCH  34  36
ENDBRANCH   1  34
TORSDOF 16
ENDMDL