MODEL 2
REMARK VINA RESULT: -8.639577009      0.804      1.271
REMARK  12 active torsions:
REMARK  status: ('A' for Active; 'I' for Inactive)
REMARK    1  A    between atoms: C3_4  and  C4_5
REMARK    2  A    between atoms: C4_5  and  O2_6
REMARK    3  A    between atoms: C4_5  and  C5_8
REMARK    4  A    between atoms: C5_8  and  O3_9
REMARK    5  A    between atoms: C5_8  and  C6_11
REMARK    6  A    between atoms: C6_11  and  O4_12
REMARK    7  A    between atoms: C6_11  and  C7_14
REMARK    8  A    between atoms: C7_14  and  O5_15
REMARK    9  A    between atoms: C8_19  and  C9_20
REMARK   10  A    between atoms: C9_20  and  N2_21
REMARK   11  A    between atoms: N2_21  and  C10_23
REMARK   12  A    between atoms: C14_33  and  N6_34
REMARK       I    between atoms: N6_34  and  C15_36
REMARK       I    between atoms: C15_36  and  N7_37
REMARK       I    between atoms: C15_36  and  N8_41
ROOT
HETATM    1  C10 UNL     1    -127.187  33.743 123.753  1.00  0.00     0.046 C
HETATM    2  C11 UNL     1    -127.223  34.933 123.067  1.00  0.00     0.119 C
HETATM    3  N3  UNL     1    -127.223  35.129 121.711  1.00  0.00    -0.347 N
ATOM      4  H3  UNL     1    -126.714  35.933 121.344  1.00  0.00     0.167 HD
HETATM    5  C12 UNL     1    -127.868  34.308 120.814  1.00  0.00     0.150 A
HETATM    6  N4  UNL     1    -128.599  34.219 119.704  1.00  0.00    -0.283 N
ATOM      7  H4  UNL     1    -128.967  34.909 119.047  1.00  0.00     0.188 HD
HETATM    8  N5  UNL     1    -128.671  32.895 119.774  1.00  0.00    -0.293 N
ATOM      9  H5  UNL     1    -129.101  32.160 119.214  1.00  0.00     0.187 HD
HETATM   10  C13 UNL     1    -127.946  32.937 120.874  1.00  0.00     0.120 A
HETATM   11  C14 UNL     1    -127.366  32.101 121.866  1.00  0.00     0.065 C
HETATM   12  C16 UNL     1    -127.159  32.473 123.194  1.00  0.00     0.062 C
ENDROOT
BRANCH   1  13
HETATM   13  N2  UNL     1    -127.179  33.807 125.202  1.00  0.00    -0.383 N
ATOM     14  H2  UNL     1    -127.312  34.705 125.667  1.00  0.00     0.160 HD
BRANCH  13  15
HETATM   15  C9  UNL     1    -126.986  32.631 125.989  1.00  0.00     0.179 C
BRANCH  15  16
HETATM   16  C8  UNL     1    -128.135  32.361 126.894  1.00  0.00     0.058 A
HETATM   17  C2  UNL     1    -127.992  31.995 128.233  1.00  0.00     0.076 A
HETATM   18  C1  UNL     1    -126.692  32.047 128.947  1.00  0.00     0.079 C
HETATM   19  O1  UNL     1    -129.132  31.636 128.669  1.00  0.00    -0.294 OA
HETATM   20  C3  UNL     1    -130.055  31.740 127.696  1.00  0.00     0.180 A
HETATM   21  N1  UNL     1    -129.422  32.196 126.604  1.00  0.00    -0.335 N
ATOM     22  H1  UNL     1    -129.857  32.383 125.701  1.00  0.00     0.168 HD
BRANCH  20  23
HETATM   23  C4  UNL     1    -131.471  31.387 127.899  1.00  0.00     0.126 C
BRANCH  23  24
HETATM   24  O2  UNL     1    -132.261  32.356 128.455  1.00  0.00    -0.358 OA
ATOM     25  H2  UNL     1    -132.312  32.363 129.404  1.00  0.00     0.217 HD
ENDBRANCH  23  24
BRANCH  23  26
HETATM   26  C5  UNL     1    -132.097  30.503 126.891  1.00  0.00     0.209 C
BRANCH  26  27
HETATM   27  O3  UNL     1    -133.356  31.052 126.560  1.00  0.00    -0.386 OA
ATOM     28  H3  UNL     1    -134.017  30.397 126.754  1.00  0.00     0.210 HD
ENDBRANCH  26  27
BRANCH  26  29
HETATM   29  C6  UNL     1    -132.215  29.066 127.241  1.00  0.00     0.177 C
BRANCH  29  30
HETATM   30  O4  UNL     1    -132.690  28.786 128.486  1.00  0.00    -0.390 OA
ATOM     31  H4  UNL     1    -132.043  28.718 129.178  1.00  0.00     0.210 HD
ENDBRANCH  29  30
BRANCH  29  32
HETATM   32  C7  UNL     1    -131.023  28.270 126.835  1.00  0.00     0.198 C
BRANCH  32  33
HETATM   33  O5  UNL     1    -130.167  27.927 127.840  1.00  0.00    -0.398 OA
ATOM     34  H5  UNL     1    -129.808  27.048 127.796  1.00  0.00     0.209 HD
ENDBRANCH  32  33
ENDBRANCH  29  32
ENDBRANCH  26  29
ENDBRANCH  23  26
ENDBRANCH  20  23
ENDBRANCH  15  16
ENDBRANCH  13  15
ENDBRANCH   1  13
BRANCH  11  35
HETATM   35  N6  UNL     1    -127.056  30.973 121.443  1.00  0.00    -0.339 N
HETATM   36  C15 UNL     1    -127.438  29.695 121.823  1.00  0.00     0.480 C
HETATM   37  N7  UNL     1    -128.196  28.989 120.786  1.00  0.00    -0.033 N
HETATM   38  N8  UNL     1    -126.190  28.930 122.081  1.00  0.00    -0.033 N
ATOM     39  H73 UNL     1    -129.003  29.536 120.489  1.00  0.00     0.278 HD
ATOM     40  H72 UNL     1    -127.676  28.967 119.909  1.00  0.00     0.278 HD
ATOM     41  H71 UNL     1    -128.476  28.049 121.066  1.00  0.00     0.278 HD
ATOM     42  H83 UNL     1    -125.544  28.938 121.291  1.00  0.00     0.278 HD
ATOM     43  H82 UNL     1    -125.573  29.382 122.755  1.00  0.00     0.278 HD
ATOM     44  H81 UNL     1    -126.470  27.990 122.361  1.00  0.00     0.278 HD
ATOM     45  H6  UNL     1    -126.394  30.992 120.667  1.00  0.00     0.163 HD
ENDBRANCH  11  35
TORSDOF 12
ENDMDL