MODEL 2
REMARK VINA RESULT: -7.149294110      0.890      1.676
REMARK  11 active torsions:
REMARK  status: ('A' for Active; 'I' for Inactive)
REMARK    1  A    between atoms: S1_2  and  C2_3
REMARK    2  A    between atoms: C2_3  and  C3_4
REMARK    3  A    between atoms: C3_4  and  C4_5
REMARK    4  A    between atoms: C7_10  and  N2_11
REMARK    5  A    between atoms: N2_11  and  C8_13
REMARK    6  A    between atoms: C8_13  and  O1_14
REMARK    7  A    between atoms: C8_13  and  N3_16
REMARK    8  A    between atoms: N3_16  and  C9_19
REMARK    9  A    between atoms: C9_19  and  C10_20
REMARK   10  A    between atoms: C12_29  and  S2_30
REMARK   11  A    between atoms: C14_37  and  N10_38
ROOT
HETATM    1  C8  UNL     1    -127.255  32.826 127.035  1.00  0.00     0.440 C
ENDROOT
BRANCH   1   2
HETATM    2  N2  UNL     1    -126.465  32.358 125.960  1.00  0.00    -0.174 N
ATOM      3  H2  UNL     1    -125.604  31.875 126.215  1.00  0.00     0.182 HD
BRANCH   2   4
HETATM    4  C7  UNL     1    -126.699  32.465 124.711  1.00  0.00     0.683 A
HETATM    5  N1  UNL     1    -126.862  31.328 123.980  1.00  0.00    -0.195 N
HETATM    6  C5  UNL     1    -127.097  31.340 122.656  1.00  0.00     0.032 A
ATOM      7  H1  UNL     1    -126.804  30.428 124.457  1.00  0.00     0.184 HD
HETATM    8  C4  UNL     1    -127.186  32.508 121.945  1.00  0.00     0.009 A
HETATM    9  C6  UNL     1    -127.290  30.038 121.951  1.00  0.00     0.069 C
HETATM   10  C14 UNL     1    -127.018  33.672 122.689  1.00  0.00     0.122 A
HETATM   11  N9  UNL     1    -126.785  33.611 124.024  1.00  0.00    -0.177 N
ATOM     12  H9  UNL     1    -126.668  34.487 124.533  1.00  0.00     0.186 HD
BRANCH   8  13
HETATM   13  C3  UNL     1    -127.430  32.610 120.483  1.00  0.00     0.054 C
BRANCH  13  14
HETATM   14  C2  UNL     1    -128.690  33.382 120.184  1.00  0.00     0.078 C
BRANCH  14  15
HETATM   15  S1  UNL     1    -128.633  34.266 118.619  1.00  0.00    -0.173 SA
HETATM   16  C1  UNL     1    -128.646  36.065 118.923  1.00  0.00     0.089 C
ENDBRANCH  14  15
ENDBRANCH  13  14
ENDBRANCH   8  13
BRANCH  10  17
HETATM   17  N10 UNL     1    -127.113  34.791 122.051  1.00  0.00    -0.385 N
ATOM     18 2H10 UNL     1    -127.340  35.671 122.515  1.00  0.00     0.157 HD
ATOM     19 1H10 UNL     1    -126.962  34.760 121.042  1.00  0.00     0.157 HD
ENDBRANCH  10  17
ENDBRANCH   2   4
ENDBRANCH   1   2
BRANCH   1  20
HETATM   20  O1  UNL     1    -126.633  32.743 128.292  1.00  0.00    -0.354 OA
ATOM     21  H1  UNL     1    -126.572  31.862 128.642  1.00  0.00     0.214 HD
ENDBRANCH   1  20
BRANCH   1  22
HETATM   22  N3  UNL     1    -128.467  32.007 127.152  1.00  0.00    -0.027 N
ATOM     23  H32 UNL     1    -129.180  32.301 126.485  1.00  0.00     0.282 HD
ATOM     24  H31 UNL     1    -128.311  31.060 126.809  1.00  0.00     0.282 HD
BRANCH  22  25
HETATM   25  C9  UNL     1    -128.971  32.003 128.488  1.00  0.00     0.293 C
BRANCH  25  26
HETATM   26  C10 UNL     1    -130.366  31.381 128.446  1.00  0.00     0.328 C
HETATM   27  N4  UNL     1    -131.306  32.411 128.172  1.00  0.00    -0.302 N
HETATM   28  N5  UNL     1    -132.623  32.028 128.030  1.00  0.00    -0.276 N
ATOM     29  H4  UNL     1    -131.021  33.386 128.085  1.00  0.00     0.182 HD
HETATM   30  C11 UNL     1    -133.152  30.850 127.426  1.00  0.00     0.204 C
ATOM     31  H5  UNL     1    -133.314  32.676 128.408  1.00  0.00     0.189 HD
HETATM   32  N6  UNL     1    -134.429  30.972 126.787  1.00  0.00    -0.062 NA
HETATM   33  N7  UNL     1    -132.620  29.683 127.372  1.00  0.00    -0.327 N
HETATM   34  C12 UNL     1    -131.334  29.284 127.918  1.00  0.00     0.352 C
ATOM     35  H7  UNL     1    -133.157  28.959 126.895  1.00  0.00     0.165 HD
HETATM   36  N8  UNL     1    -130.365  30.279 127.500  1.00  0.00    -0.021 N
ATOM     37  H82 UNL     1    -130.523  30.594 126.543  1.00  0.00     0.283 HD
ATOM     38  H81 UNL     1    -129.435  29.882 127.371  1.00  0.00     0.283 HD
BRANCH  34  39
HETATM   39  S2  UNL     1    -130.885  27.602 127.523  1.00  0.00    -0.120 SA
HETATM   40  C13 UNL     1    -132.035  26.497 128.420  1.00  0.00     0.093 C
ENDBRANCH  34  39
ENDBRANCH  25  26
ENDBRANCH  22  25
ENDBRANCH   1  22
TORSDOF 11
ENDMDL