MODEL 1
REMARK VINA RESULT: -7.909342842      0.000      0.000
REMARK  16 active torsions:
REMARK  status: ('A' for Active; 'I' for Inactive)
REMARK    1  A    between atoms: C2_2  and  O1_3
REMARK    2  A    between atoms: C2_2  and  C3_5
REMARK    3  A    between atoms: C3_5  and  N1_6
REMARK    4  A    between atoms: N1_6  and  C4_8
REMARK    5  A    between atoms: C5_11  and  C6_12
REMARK    6  A    between atoms: C6_12  and  O2_13
REMARK    7  A    between atoms: C6_12  and  N3_15
REMARK    8  A    between atoms: N3_15  and  O3_16
REMARK    9  A    between atoms: C7_18  and  C8_19
REMARK   10  A    between atoms: N4_20  and  C9_22
REMARK   11  A    between atoms: C10_25  and  N6_26
REMARK   12  A    between atoms: C11_31  and  N8_32
REMARK   13  A    between atoms: N8_32  and  C12_34
REMARK   14  A    between atoms: C12_34  and  C13_35
REMARK   15  A    between atoms: C13_35  and  O4_36
REMARK   16  A    between atoms: C14_40  and  O5_41
ROOT
HETATM    1  C4  UNL     1    -130.614  30.119 127.572  1.00  0.00     0.680 A
HETATM    2  N2  UNL     1    -129.555  30.864 127.925  1.00  0.00    -0.191 N
ATOM      3  H2  UNL     1    -129.165  30.747 128.861  1.00  0.00     0.184 HD
HETATM    4  C5  UNL     1    -128.980  31.771 127.085  1.00  0.00     0.089 A
HETATM    5  C7  UNL     1    -129.498  31.934 125.841  1.00  0.00     0.058 A
HETATM    6  C14 UNL     1    -130.606  31.127 125.523  1.00  0.00     0.169 A
HETATM    7  N10 UNL     1    -131.149  30.250 126.352  1.00  0.00    -0.170 N
ATOM      8  H10 UNL     1    -131.953  29.690 126.068  1.00  0.00     0.186 HD
ENDROOT
BRANCH   5   9
HETATM    9  C8  UNL     1    -129.072  32.925 124.867  1.00  0.00     0.124 C
HETATM   10  N4  UNL     1    -128.268  32.800 123.901  1.00  0.00    -0.200 N
ATOM     11  H4  UNL     1    -127.826  31.896 123.737  1.00  0.00     0.183 HD
BRANCH  10  12
HETATM   12  C9  UNL     1    -127.964  33.891 123.035  1.00  0.00     0.711 A
HETATM   13  N5  UNL     1    -127.386  35.018 123.474  1.00  0.00    -0.021 N
HETATM   14  C10 UNL     1    -127.120  36.013 122.621  1.00  0.00     0.705 A
ATOM     15  H5  UNL     1    -127.149  35.116 124.462  1.00  0.00     0.203 HD
HETATM   16  N7  UNL     1    -127.433  35.889 121.310  1.00  0.00    -0.022 N
HETATM   17  C11 UNL     1    -128.012  34.779 120.823  1.00  0.00     0.707 A
ATOM     18  H7  UNL     1    -127.223  36.659 120.675  1.00  0.00     0.203 HD
HETATM   19  N9  UNL     1    -128.264  33.803 121.709  1.00  0.00    -0.021 N
ATOM     20  H9  UNL     1    -128.703  32.947 121.371  1.00  0.00     0.203 HD
BRANCH  14  21
HETATM   21  N6  UNL     1    -126.556  37.129 123.015  1.00  0.00    -0.234 N
ATOM     22  H62 UNL     1    -127.164  37.884 123.333  1.00  0.00     0.174 HD
ATOM     23  H61 UNL     1    -125.544  37.252 123.010  1.00  0.00     0.174 HD
ENDBRANCH  14  21
BRANCH  17  24
HETATM   24  N8  UNL     1    -128.317  34.648 119.569  1.00  0.00    -0.223 N
ATOM     25  H8  UNL     1    -128.342  33.727 119.132  1.00  0.00     0.177 HD
BRANCH  24  26
HETATM   26  C12 UNL     1    -128.619  35.838 118.808  1.00  0.00     0.164 C
BRANCH  26  27
HETATM   27  C13 UNL     1    -128.925  35.542 117.369  1.00  0.00     0.184 C
BRANCH  27  28
HETATM   28  O4  UNL     1    -128.578  36.605 116.540  1.00  0.00    -0.399 OA
ATOM     29  H4  UNL     1    -129.338  37.110 116.278  1.00  0.00     0.209 HD
ENDBRANCH  27  28
ENDBRANCH  26  27
ENDBRANCH  24  26
ENDBRANCH  17  24
ENDBRANCH  10  12
ENDBRANCH   5   9
BRANCH   4  30
HETATM   30  C6  UNL     1    -127.751  32.476 127.519  1.00  0.00     0.290 C
BRANCH  30  31
HETATM   31  O2  UNL     1    -126.707  32.385 126.619  1.00  0.00    -0.372 OA
ATOM     32  H2  UNL     1    -126.554  31.505 126.296  1.00  0.00     0.212 HD
ENDBRANCH  30  31
BRANCH  30  33
HETATM   33  N3  UNL     1    -127.274  32.012 128.784  1.00  0.00    -0.065 NA
BRANCH  33  34
HETATM   34  O3  UNL     1    -126.115  32.553 129.171  1.00  0.00    -0.293 OA
ATOM     35  H3  UNL     1    -125.804  32.256 130.017  1.00  0.00     0.238 HD
ENDBRANCH  33  34
ENDBRANCH  30  33
ENDBRANCH   4  30
BRANCH   6  36
HETATM   36  O5  UNL     1    -131.187  31.248 124.244  1.00  0.00    -0.345 OA
ATOM     37  H5  UNL     1    -131.982  30.763 124.056  1.00  0.00     0.219 HD
ENDBRANCH   6  36
BRANCH   1  38
HETATM   38  N1  UNL     1    -131.137  29.264 128.395  1.00  0.00    -0.224 N
ATOM     39  H1  UNL     1    -130.795  29.266 129.357  1.00  0.00     0.177 HD
BRANCH  38  40
HETATM   40  C3  UNL     1    -132.156  28.323 128.059  1.00  0.00     0.169 C
BRANCH  40  41
HETATM   41  C2  UNL     1    -132.101  27.099 128.986  1.00  0.00     0.132 C
HETATM   42  C1  UNL     1    -130.850  27.135 129.808  1.00  0.00     0.041 C
BRANCH  41  43
HETATM   43  O1  UNL     1    -132.007  25.995 128.117  1.00  0.00    -0.394 OA
ATOM     44  H1  UNL     1    -132.248  26.293 127.248  1.00  0.00     0.210 HD
ENDBRANCH  41  43
ENDBRANCH  40  41
ENDBRANCH  38  40
ENDBRANCH   1  38
TORSDOF 16
ENDMDL