MODEL 4
REMARK VINA RESULT: -7.917827203      1.810      3.065
REMARK  13 active torsions:
REMARK  status: ('A' for Active; 'I' for Inactive)
REMARK    1  A    between atoms: C2_3  and  O1_4
REMARK    2  A    between atoms: C4_9  and  C5_10
REMARK    3  A    between atoms: C5_10  and  N3_11
REMARK    4  A    between atoms: C5_10  and  N12_41
REMARK    5  A    between atoms: N3_11  and  C6_13
REMARK    6  A    between atoms: C6_13  and  C7_14
REMARK    7  A    between atoms: C7_14  and  C8_15
REMARK    8  A    between atoms: C8_15  and  O2_16
REMARK    9  A    between atoms: C8_15  and  C9_18
REMARK   10  A    between atoms: C9_18  and  C10_19
REMARK   11  A    between atoms: C10_19  and  N4_20
REMARK   12  A    between atoms: N4_20  and  C11_22
REMARK   13  A    between atoms: C14_36  and  N10_37
ROOT
HETATM    1  N12 UNL     1    -131.703  33.003 128.954  1.00  0.00    -0.276 N
ATOM      2  H12 UNL     1    -132.615  33.021 128.497  1.00  0.00     0.179 HD
HETATM    3  C15 UNL     1    -131.446  33.856 130.027  1.00  0.00     0.183 C
HETATM    4  N13 UNL     1    -131.231  34.571 130.935  1.00  0.00    -0.172 NA
ENDROOT
BRANCH   1   5
HETATM    5  C5  UNL     1    -130.700  32.112 128.496  1.00  0.00     0.155 C
BRANCH   5   6
HETATM    6  C4  UNL     1    -130.954  31.213 127.392  1.00  0.00     0.154 A
HETATM    7  N1  UNL     1    -131.339  29.911 127.469  1.00  0.00    -0.314 N
HETATM    8  C1  UNL     1    -131.578  29.143 128.653  1.00  0.00     0.160 C
HETATM    9  C2  UNL     1    -131.468  29.424 126.215  1.00  0.00     0.159 A
HETATM   10  C3  UNL     1    -131.159  30.438 125.344  1.00  0.00     0.145 A
HETATM   11  N2  UNL     1    -130.849  31.519 126.091  1.00  0.00    -0.345 N
ATOM     12  H2  UNL     1    -130.575  32.429 125.722  1.00  0.00     0.167 HD
BRANCH   9  13
HETATM   13  O1  UNL     1    -131.853  28.108 125.894  1.00  0.00    -0.345 OA
ATOM     14  H1  UNL     1    -132.527  27.875 125.267  1.00  0.00     0.219 HD
ENDBRANCH   9  13
ENDBRANCH   5   6
BRANCH   5  15
HETATM   15  N3  UNL     1    -129.560  32.121 129.084  1.00  0.00    -0.373 N
ATOM     16  H3  UNL     1    -129.426  32.711 129.906  1.00  0.00     0.161 HD
BRANCH  15  17
HETATM   17  C6  UNL     1    -128.440  31.299 128.599  1.00  0.00     0.123 C
BRANCH  17  18
HETATM   18  C7  UNL     1    -127.166  32.105 128.615  1.00  0.00     0.051 C
BRANCH  18  19
HETATM   19  C8  UNL     1    -126.473  32.173 127.295  1.00  0.00     0.121 C
BRANCH  19  20
HETATM   20  O2  UNL     1    -125.248  32.842 127.391  1.00  0.00    -0.395 OA
ATOM     21  H2  UNL     1    -125.262  33.502 128.074  1.00  0.00     0.210 HD
ENDBRANCH  19  20
BRANCH  19  22
HETATM   22  C9  UNL     1    -127.321  32.927 126.314  1.00  0.00     0.052 C
BRANCH  22  23
HETATM   23  C10 UNL     1    -127.609  32.082 125.087  1.00  0.00     0.140 C
BRANCH  23  24
HETATM   24  N4  UNL     1    -126.531  32.138 124.122  1.00  0.00    -0.223 N
ATOM     25  H4  UNL     1    -125.580  32.369 124.406  1.00  0.00     0.177 HD
BRANCH  24  26
HETATM   26  C11 UNL     1    -126.818  31.882 122.880  1.00  0.00     0.729 A
HETATM   27  N5  UNL     1    -126.715  30.672 122.258  1.00  0.00    -0.116 N
HETATM   28  N6  UNL     1    -127.103  30.851 121.009  1.00  0.00    -0.116 N
ATOM     29  H5  UNL     1    -126.400  29.797 122.677  1.00  0.00     0.206 HD
HETATM   30  C12 UNL     1    -127.455  32.127 120.788  1.00  0.00     0.748 A
ATOM     31  H6  UNL     1    -127.132  30.115 120.303  1.00  0.00     0.206 HD
HETATM   32  N7  UNL     1    -127.914  32.800 119.693  1.00  0.00    -0.019 N
HETATM   33  N11 UNL     1    -127.277  32.768 121.957  1.00  0.00     0.202 N
HETATM   34  C13 UNL     1    -128.201  34.113 119.742  1.00  0.00     0.705 A
ATOM     35  H7  UNL     1    -128.043  32.295 118.816  1.00  0.00     0.203 HD
HETATM   36  N8  UNL     1    -128.639  34.760 118.702  1.00  0.00    -0.234 N
HETATM   37  N9  UNL     1    -128.022  34.753 120.909  1.00  0.00    -0.021 N
ATOM     38  H82 UNL     1    -128.775  34.274 117.816  1.00  0.00     0.174 HD
ATOM     39  H81 UNL     1    -128.856  35.756 118.739  1.00  0.00     0.174 HD
HETATM   40  C14 UNL     1    -127.562  34.072 121.998  1.00  0.00     0.727 A
ATOM     41  H9  UNL     1    -128.230  35.749 120.982  1.00  0.00     0.203 HD
BRANCH  40  42
HETATM   42  N10 UNL     1    -127.399  34.716 123.115  1.00  0.00    -0.233 N
ATOM     43 2H10 UNL     1    -126.452  34.888 123.453  1.00  0.00     0.174 HD
ATOM     44 1H10 UNL     1    -128.225  35.032 123.623  1.00  0.00     0.174 HD
ENDBRANCH  40  42
ENDBRANCH  24  26
ENDBRANCH  23  24
ENDBRANCH  22  23
ENDBRANCH  19  22
ENDBRANCH  18  19
ENDBRANCH  17  18
ENDBRANCH  15  17
ENDBRANCH   5  15
ENDBRANCH   1   5
TORSDOF 13
ENDMDL