MODEL 4
REMARK VINA RESULT: -7.004197334      1.034      2.125
REMARK  14 active torsions:
REMARK  status: ('A' for Active; 'I' for Inactive)
REMARK    1  A    between atoms: N1_1  and  C1_4
REMARK    2  A    between atoms: C2_7  and  N3_8
REMARK    3  A    between atoms: C3_13  and  N5_14
REMARK    4  A    between atoms: N5_14  and  C4_16
REMARK    5  A    between atoms: C4_16  and  C5_17
REMARK    6  A    between atoms: C5_17  and  O1_18
REMARK    7  A    between atoms: O1_18  and  C6_19
REMARK    8  A    between atoms: C9_22  and  O2_23
REMARK    9  A    between atoms: C10_25  and  C11_26
REMARK   10  A    between atoms: C11_26  and  N6_27
REMARK   11  A    between atoms: C13_31  and  C14_32
REMARK   12  A    between atoms: C14_32  and  N8_33
REMARK   13  A    between atoms: C14_32  and  N9_37
REMARK   14  A    between atoms: C16_42  and  N10_43
ROOT
HETATM    1  C6  UNL     1    -127.299  31.963 125.019  1.00  0.00     0.143 C
HETATM    2  C7  UNL     1    -126.779  32.038 126.302  1.00  0.00     0.059 C
HETATM    3  C8  UNL     1    -127.490  32.074 127.486  1.00  0.00     0.041 C
HETATM    4  C9  UNL     1    -128.859  32.207 127.687  1.00  0.00     0.077 C
HETATM    5  C10 UNL     1    -129.828  31.850 126.787  1.00  0.00     0.037 C
HETATM    6  C16 UNL     1    -129.721  31.740 125.396  1.00  0.00     0.111 C
HETATM    7  N11 UNL     1    -128.571  31.698 124.688  1.00  0.00    -0.323 N
ATOM      8  H11 UNL     1    -128.694  31.410 123.717  1.00  0.00     0.169 HD
ENDROOT
BRANCH   1   9
HETATM    9  O1  UNL     1    -126.400  32.187 124.005  1.00  0.00    -0.334 OA
BRANCH   9  10
HETATM   10  C5  UNL     1    -126.104  31.277 122.975  1.00  0.00     0.197 C
BRANCH  10  11
HETATM   11  C4  UNL     1    -127.341  30.998 122.144  1.00  0.00     0.164 C
BRANCH  11  12
HETATM   12  N5  UNL     1    -127.358  31.700 120.901  1.00  0.00    -0.223 N
ATOM     13  H5  UNL     1    -127.139  31.155 120.067  1.00  0.00     0.177 HD
BRANCH  12  14
HETATM   14  C3  UNL     1    -127.617  32.939 120.722  1.00  0.00     0.707 A
HETATM   15  N4  UNL     1    -128.106  33.385 119.526  1.00  0.00    -0.022 N
HETATM   16  C2  UNL     1    -128.380  34.691 119.342  1.00  0.00     0.705 A
ATOM     17  H4  UNL     1    -128.264  32.723 118.767  1.00  0.00     0.203 HD
HETATM   18  N2  UNL     1    -128.183  35.580 120.315  1.00  0.00    -0.022 N
HETATM   19  C1  UNL     1    -127.695  35.158 121.516  1.00  0.00     0.705 A
ATOM     20  H2  UNL     1    -128.394  36.566 120.162  1.00  0.00     0.203 HD
HETATM   21  N12 UNL     1    -127.426  33.858 121.693  1.00  0.00    -0.022 N
ATOM     22  H12 UNL     1    -127.062  33.551 122.595  1.00  0.00     0.203 HD
BRANCH  16  23
HETATM   23  N3  UNL     1    -128.845  35.066 118.178  1.00  0.00    -0.234 N
ATOM     24  H32 UNL     1    -129.815  35.377 118.124  1.00  0.00     0.174 HD
ATOM     25  H31 UNL     1    -128.251  35.046 117.348  1.00  0.00     0.174 HD
ENDBRANCH  16  23
BRANCH  19  26
HETATM   26  N1  UNL     1    -127.515  36.042 122.440  1.00  0.00    -0.234 N
ATOM     27  H12 UNL     1    -126.612  36.199 122.886  1.00  0.00     0.174 HD
ATOM     28  H11 UNL     1    -128.318  36.602 122.727  1.00  0.00     0.174 HD
ENDBRANCH  19  26
ENDBRANCH  12  14
ENDBRANCH  11  12
ENDBRANCH  10  11
ENDBRANCH   9  10
ENDBRANCH   1   9
BRANCH   6  29
HETATM   29  N10 UNL     1    -130.828  31.675 124.765  1.00  0.00    -0.385 N
ATOM     30 2H10 UNL     1    -131.601  31.162 125.189  1.00  0.00     0.157 HD
ATOM     31 1H10 UNL     1    -130.847  32.155 123.865  1.00  0.00     0.157 HD
ENDBRANCH   6  29
BRANCH   4  32
HETATM   32  O2  UNL     1    -129.279  32.738 128.875  1.00  0.00    -0.360 OA
ATOM     33  H2  UNL     1    -128.905  32.386 129.674  1.00  0.00     0.217 HD
ENDBRANCH   4  32
BRANCH   5  34
HETATM   34  C11 UNL     1    -131.156  31.535 127.313  1.00  0.00     0.174 C
BRANCH  34  35
HETATM   35  N6  UNL     1    -131.420  30.100 127.284  1.00  0.00    -0.347 N
HETATM   36  C12 UNL     1    -131.860  29.323 126.287  1.00  0.00     0.183 A
HETATM   37  N7  UNL     1    -131.961  28.037 126.705  1.00  0.00    -0.351 N
HETATM   38  C13 UNL     1    -131.584  27.968 127.991  1.00  0.00     0.083 A
ATOM     39  H7  UNL     1    -132.272  27.251 126.135  1.00  0.00     0.166 HD
HETATM   40  C15 UNL     1    -131.248  29.253 128.349  1.00  0.00     0.121 A
BRANCH  38  41
HETATM   41  C14 UNL     1    -131.532  26.749 128.870  1.00  0.00     0.428 C
BRANCH  41  42
HETATM   42  N8  UNL     1    -132.907  26.364 129.175  1.00  0.00    -0.045 N
ATOM     43  H83 UNL     1    -133.054  25.356 129.140  1.00  0.00     0.277 HD
ATOM     44  H82 UNL     1    -133.148  26.502 130.156  1.00  0.00     0.277 HD
ATOM     45  H81 UNL     1    -133.519  26.877 128.540  1.00  0.00     0.277 HD
ENDBRANCH  41  42
BRANCH  41  46
HETATM   46  N9  UNL     1    -130.953  27.186 130.145  1.00  0.00    -0.045 N
ATOM     47  H93 UNL     1    -131.388  28.029 130.521  1.00  0.00     0.277 HD
ATOM     48  H92 UNL     1    -131.180  26.570 130.926  1.00  0.00     0.277 HD
ATOM     49  H91 UNL     1    -129.950  27.285 129.984  1.00  0.00     0.277 HD
ENDBRANCH  41  46
ENDBRANCH  38  41
ENDBRANCH  34  35
ENDBRANCH   5  34
TORSDOF 14
ENDMDL