MODEL 2
REMARK VINA RESULT: -6.043726954      0.341      1.085
REMARK  14 active torsions:
REMARK  status: ('A' for Active; 'I' for Inactive)
REMARK    1  A    between atoms: S1_2  and  C2_3
REMARK    2  A    between atoms: C3_6  and  N2_7
REMARK    3  A    between atoms: C5_13  and  N4_14
REMARK    4  A    between atoms: N4_14  and  C6_16
REMARK    5  A    between atoms: C6_16  and  C7_17
REMARK    6  A    between atoms: C6_16  and  C8_20
REMARK    7  A    between atoms: C7_17  and  O1_18
REMARK    8  A    between atoms: C8_20  and  O2_21
REMARK    9  A    between atoms: N7_28  and  C10_29
REMARK   10  A    between atoms: C10_29  and  C11_30
REMARK   11  A    between atoms: C11_30  and  O3_31
REMARK   12  A    between atoms: C11_30  and  C12_33
REMARK   13  A    between atoms: C12_33  and  O4_34
REMARK   14  A    between atoms: C15_38  and  N8_39
ROOT
HETATM    1  C2  UNL     1    -130.790  30.047 126.394  1.00  0.00     0.098 A
HETATM    2  N1  UNL     1    -130.769  31.090 127.196  1.00  0.00    -0.334 N
ATOM      3  H1  UNL     1    -131.411  31.105 127.989  1.00  0.00     0.168 HD
HETATM    4  C3  UNL     1    -129.952  32.124 127.022  1.00  0.00     0.128 A
HETATM    5  C4  UNL     1    -129.084  32.108 125.960  1.00  0.00     0.093 A
HETATM    6  N3  UNL     1    -128.289  33.171 125.773  1.00  0.00    -0.337 N
ATOM      7  H3  UNL     1    -128.336  33.947 126.433  1.00  0.00     0.167 HD
HETATM    8  C5  UNL     1    -127.442  33.241 124.752  1.00  0.00     0.133 A
HETATM    9  C9  UNL     1    -127.392  32.181 123.880  1.00  0.00     0.122 A
HETATM   10  N5  UNL     1    -126.630  31.937 122.811  1.00  0.00    -0.280 N
ATOM     11  H5  UNL     1    -125.930  32.569 122.422  1.00  0.00     0.188 HD
HETATM   12  N6  UNL     1    -126.925  30.776 122.357  1.00  0.00    -0.239 N
ATOM     13  H6  UNL     1    -126.482  30.352 121.542  1.00  0.00     0.208 HD
HETATM   14  N7  UNL     1    -127.921  30.165 123.105  1.00  0.00    -0.272 N
HETATM   15  C13 UNL     1    -128.204  31.042 124.027  1.00  0.00     0.099 A
HETATM   16  C14 UNL     1    -129.088  31.001 125.095  1.00  0.00     0.054 A
HETATM   17  C15 UNL     1    -129.915  29.963 125.264  1.00  0.00     0.075 A
ENDROOT
BRANCH   8  18
HETATM   18  N4  UNL     1    -126.675  34.227 124.533  1.00  0.00    -0.366 N
ATOM     19  H4  UNL     1    -126.007  34.448 125.272  1.00  0.00     0.161 HD
BRANCH  18  20
HETATM   20  C6  UNL     1    -126.634  35.058 123.385  1.00  0.00     0.130 C
BRANCH  20  21
HETATM   21  C7  UNL     1    -126.437  36.501 123.865  1.00  0.00     0.191 C
BRANCH  21  22
HETATM   22  O1  UNL     1    -127.671  37.074 124.195  1.00  0.00    -0.399 OA
ATOM     23  H1  UNL     1    -128.222  37.132 123.424  1.00  0.00     0.209 HD
ENDBRANCH  21  22
ENDBRANCH  20  21
BRANCH  20  24
HETATM   24  C8  UNL     1    -127.894  35.048 122.567  1.00  0.00     0.191 C
BRANCH  24  25
HETATM   25  O2  UNL     1    -127.693  35.934 121.496  1.00  0.00    -0.399 OA
ATOM     26  H2  UNL     1    -128.455  35.863 120.933  1.00  0.00     0.209 HD
ENDBRANCH  24  25
ENDBRANCH  20  24
ENDBRANCH  18  20
ENDBRANCH   8  18
BRANCH   4  27
HETATM   27  N2  UNL     1    -129.944  33.144 127.817  1.00  0.00    -0.384 N
ATOM     28  H22 UNL     1    -129.644  33.011 128.782  1.00  0.00     0.157 HD
ATOM     29  H21 UNL     1    -130.227  34.076 127.514  1.00  0.00     0.157 HD
ENDBRANCH   4  27
BRANCH  14  30
HETATM   30  C10 UNL     1    -128.216  28.882 122.718  1.00  0.00     0.184 C
BRANCH  30  31
HETATM   31  C11 UNL     1    -128.218  28.705 121.181  1.00  0.00     0.161 C
BRANCH  31  32
HETATM   32  O3  UNL     1    -127.014  27.942 120.984  1.00  0.00    -0.392 OA
ATOM     33  H3  UNL     1    -127.217  27.147 121.463  1.00  0.00     0.210 HD
ENDBRANCH  31  32
BRANCH  31  34
HETATM   34  C12 UNL     1    -129.308  27.836 120.652  1.00  0.00     0.197 C
BRANCH  34  35
HETATM   35  O4  UNL     1    -129.766  26.828 121.439  1.00  0.00    -0.398 OA
ATOM     36  H4  UNL     1    -130.663  26.537 121.320  1.00  0.00     0.209 HD
ENDBRANCH  34  35
ENDBRANCH  31  34
ENDBRANCH  30  31
ENDBRANCH  14  30
BRANCH  17  37
HETATM   37  N8  UNL     1    -130.253  28.871 124.515  1.00  0.00    -0.396 N
ATOM     38  H82 UNL     1    -131.113  28.539 124.078  1.00  0.00     0.156 HD
ATOM     39  H81 UNL     1    -129.476  28.211 124.516  1.00  0.00     0.156 HD
ENDBRANCH  17  37
BRANCH   1  40
HETATM   40  S1  UNL     1    -131.907  28.680 126.680  1.00  0.00    -0.114 SA
HETATM   41  C1  UNL     1    -131.271  27.605 127.964  1.00  0.00     0.097 C
ENDBRANCH   1  40
TORSDOF 14
ENDMDL