MODEL 4
REMARK VINA RESULT: -8.428926571      1.704      1.911
REMARK  9 active torsions:
REMARK  status: ('A' for Active; 'I' for Inactive)
REMARK    1  A    between atoms: N1_1  and  C1_4
REMARK    2  A    between atoms: C2_7  and  C3_8
REMARK    3  A    between atoms: C3_8  and  C4_9
REMARK    4  A    between atoms: C4_9  and  C5_11
REMARK       I    between atoms: C5_11  and  N3_13
REMARK    5  A    between atoms: N3_13  and  N4_15
REMARK    6  A    between atoms: N4_15  and  N5_17
REMARK    7  A    between atoms: N5_17  and  C6_19
REMARK    8  A    between atoms: C7_21  and  N6_22
REMARK    9  A    between atoms: C9_29  and  C10_30
ROOT
HETATM    1  C5  UNL     1    -128.244  32.824 126.364  1.00  0.00     0.307 C
HETATM    2  O2  UNL     1    -127.077  33.217 126.302  1.00  0.00    -0.263 OA
HETATM    3  N3  UNL     1    -129.252  33.199 125.445  1.00  0.00    -0.249 N
ATOM      4  H3  UNL     1    -130.189  32.818 125.577  1.00  0.00     0.192 HD
ENDROOT
BRANCH   3   5
HETATM    5  N4  UNL     1    -129.043  34.041 124.391  1.00  0.00    -0.239 N
ATOM      6  H4  UNL     1    -129.759  34.687 124.060  1.00  0.00     0.208 HD
BRANCH   5   7
HETATM    7  N5  UNL     1    -127.816  33.961 123.812  1.00  0.00    -0.278 N
ATOM      8  H5  UNL     1    -126.961  34.152 124.335  1.00  0.00     0.189 HD
BRANCH   7   9
HETATM    9  C6  UNL     1    -127.791  33.591 122.413  1.00  0.00     0.114 A
HETATM   10  S1  UNL     1    -128.251  34.634 121.151  1.00  0.00    -0.034 SA
HETATM   11  C7  UNL     1    -128.117  33.940 119.601  1.00  0.00     0.147 A
HETATM   12  N7  UNL     1    -127.668  32.669 119.609  1.00  0.00    -0.303 N
HETATM   13  C8  UNL     1    -127.339  31.959 120.674  1.00  0.00     0.265 A
ATOM     14  H7  UNL     1    -127.571  32.210 118.703  1.00  0.00     0.171 HD
HETATM   15  O3  UNL     1    -126.934  30.763 120.435  1.00  0.00    -0.267 OA
HETATM   16  C9  UNL     1    -127.376  32.332 121.993  1.00  0.00     0.132 A
BRANCH  11  17
HETATM   17  N6  UNL     1    -128.416  34.561 118.509  1.00  0.00    -0.380 N
ATOM     18  H62 UNL     1    -128.772  35.516 118.503  1.00  0.00     0.158 HD
ATOM     19  H61 UNL     1    -128.322  34.151 117.580  1.00  0.00     0.158 HD
ENDBRANCH  11  17
BRANCH  16  20
HETATM   20  C10 UNL     1    -126.978  31.386 123.020  1.00  0.00     0.273 C
HETATM   21  N8  UNL     1    -127.942  30.573 123.662  1.00  0.00    -0.057 NA
HETATM   22  O4  UNL     1    -125.786  31.283 123.343  1.00  0.00    -0.271 OA
ENDBRANCH  16  20
ENDBRANCH   7   9
ENDBRANCH   5   7
ENDBRANCH   3   5
BRANCH   1  23
HETATM   23  C4  UNL     1    -128.603  31.924 127.449  1.00  0.00     0.225 C
HETATM   24  O1  UNL     1    -127.763  31.078 127.837  1.00  0.00    -0.287 OA
BRANCH  23  25
HETATM   25  C3  UNL     1    -129.933  32.009 128.074  1.00  0.00     0.166 C
BRANCH  25  26
HETATM   26  C2  UNL     1    -130.734  30.839 127.585  1.00  0.00     0.107 A
HETATM   27  N2  UNL     1    -131.504  30.952 126.484  1.00  0.00    -0.180 N
HETATM   28  C1  UNL     1    -132.233  29.912 126.028  1.00  0.00     0.679 A
ATOM     29  H2  UNL     1    -131.536  31.842 125.986  1.00  0.00     0.185 HD
HETATM   30  N10 UNL     1    -132.215  28.724 126.660  1.00  0.00    -0.166 N
HETATM   31  C11 UNL     1    -131.450  28.609 127.756  1.00  0.00     0.191 A
ATOM     32  H10 UNL     1    -132.766  27.937 126.317  1.00  0.00     0.186 HD
HETATM   33  N9  UNL     1    -130.714  29.656 128.219  1.00  0.00    -0.321 N
HETATM   34  S2  UNL     1    -131.424  27.162 128.533  1.00  0.00    -0.040 SA
ATOM     35  H9  UNL     1    -130.142  29.540 129.055  1.00  0.00     0.169 HD
BRANCH  28  36
HETATM   36  N1  UNL     1    -132.937  30.104 124.965  1.00  0.00    -0.234 N
ATOM     37  H12 UNL     1    -132.731  30.862 124.315  1.00  0.00     0.174 HD
ATOM     38  H11 UNL     1    -133.716  29.466 124.799  1.00  0.00     0.174 HD
ENDBRANCH  28  36
ENDBRANCH  25  26
ENDBRANCH  23  25
ENDBRANCH   1  23
TORSDOF 9
ENDMDL