MODEL 3
REMARK VINA RESULT: -7.266737367      2.779      7.660
REMARK  11 active torsions:
REMARK  status: ('A' for Active; 'I' for Inactive)
REMARK    1  A    between atoms: N1_1  and  C1_4
REMARK    2  A    between atoms: C2_7  and  O1_8
REMARK    3  A    between atoms: C3_10  and  C4_11
REMARK    4  A    between atoms: C4_11  and  S1_12
REMARK    5  A    between atoms: S1_12  and  C5_13
REMARK    6  A    between atoms: C5_13  and  C6_14
REMARK    7  A    between atoms: C6_14  and  N3_15
REMARK    8  A    between atoms: N3_15  and  S2_17
REMARK    9  A    between atoms: S2_17  and  C7_20
REMARK   10  A    between atoms: C9_25  and  C10_26
REMARK       I    between atoms: C10_26  and  N6_28
REMARK   11  A    between atoms: N6_28  and  N7_30
ROOT
HETATM    1  S2  UNL     1    -130.890  28.977 126.425  1.00  0.00     0.280 S
HETATM    2  O2  UNL     1    -132.239  28.297 126.231  1.00  0.00    -0.199 OA
HETATM    3  O3  UNL     1    -130.049  27.972 127.196  1.00  0.00    -0.199 OA
ENDROOT
BRANCH   1   4
HETATM    4  N3  UNL     1    -130.262  29.306 124.888  1.00  0.00    -0.313 N
ATOM      5  H3  UNL     1    -130.037  28.566 124.223  1.00  0.00     0.172 HD
BRANCH   4   6
HETATM    6  C6  UNL     1    -130.068  30.682 124.585  1.00  0.00     0.142 C
BRANCH   6   7
HETATM    7  C5  UNL     1    -128.664  31.155 124.876  1.00  0.00     0.094 C
BRANCH   7   8
HETATM    8  S1  UNL     1    -128.548  32.959 124.715  1.00  0.00    -0.161 SA
BRANCH   8   9
HETATM    9  C4  UNL     1    -127.113  33.457 123.761  1.00  0.00     0.136 C
BRANCH   9  10
HETATM   10  C3  UNL     1    -127.423  33.274 122.319  1.00  0.00     0.087 A
HETATM   11  C2  UNL     1    -127.197  32.116 121.565  1.00  0.00     0.179 A
HETATM   12  N2  UNL     1    -127.600  32.318 120.306  1.00  0.00    -0.169 N
HETATM   13  C1  UNL     1    -128.074  33.561 120.227  1.00  0.00     0.678 A
ATOM     14  H2  UNL     1    -127.553  31.642 119.544  1.00  0.00     0.186 HD
HETATM   15  N9  UNL     1    -127.969  34.139 121.438  1.00  0.00    -0.191 N
ATOM     16  H9  UNL     1    -128.259  35.092 121.659  1.00  0.00     0.184 HD
BRANCH  11  17
HETATM   17  O1  UNL     1    -126.638  30.956 122.087  1.00  0.00    -0.344 OA
ATOM     18  H1  UNL     1    -126.332  30.819 122.976  1.00  0.00     0.219 HD
ENDBRANCH  11  17
BRANCH  13  19
HETATM   19  N1  UNL     1    -128.563  34.145 119.172  1.00  0.00    -0.234 N
ATOM     20  H12 UNL     1    -128.382  35.116 118.913  1.00  0.00     0.174 HD
ATOM     21  H11 UNL     1    -129.178  33.731 118.471  1.00  0.00     0.174 HD
ENDBRANCH  13  19
ENDBRANCH   9  10
ENDBRANCH   8   9
ENDBRANCH   7   8
ENDBRANCH   6   7
ENDBRANCH   4   6
ENDBRANCH   1   4
BRANCH   1  22
HETATM   22  C7  UNL     1    -131.101  30.411 127.412  1.00  0.00     0.218 A
HETATM   23  N4  UNL     1    -130.085  30.942 128.114  1.00  0.00    -0.328 N
HETATM   24  C8  UNL     1    -130.240  32.045 128.874  1.00  0.00     0.150 A
ATOM     25  H4  UNL     1    -129.169  30.496 128.072  1.00  0.00     0.168 HD
HETATM   26  N5  UNL     1    -129.174  32.611 129.618  1.00  0.00    -0.080 NA
HETATM   27  C9  UNL     1    -131.468  32.696 128.968  1.00  0.00     0.146 A
HETATM   28  N8  UNL     1    -132.477  32.162 128.265  1.00  0.00    -0.314 N
HETATM   29  C11 UNL     1    -132.318  31.048 127.501  1.00  0.00     0.286 A
ATOM     30  H8  UNL     1    -133.395  32.606 128.304  1.00  0.00     0.169 HD
HETATM   31  O5  UNL     1    -133.296  30.599 126.868  1.00  0.00    -0.265 OA
BRANCH  27  32
HETATM   32  C10 UNL     1    -131.607  33.890 129.798  1.00  0.00     0.289 C
HETATM   33  O4  UNL     1    -132.084  34.940 129.294  1.00  0.00    -0.264 OA
HETATM   34  N6  UNL     1    -131.227  33.929 131.162  1.00  0.00    -0.271 N
ATOM     35  H6  UNL     1    -130.838  33.091 131.594  1.00  0.00     0.189 HD
BRANCH  34  36
HETATM   36  N7  UNL     1    -131.374  35.087 131.929  1.00  0.00    -0.342 N
ATOM     37  H72 UNL     1    -131.595  35.958 131.448  1.00  0.00     0.176 HD
ATOM     38  H71 UNL     1    -131.264  35.073 132.942  1.00  0.00     0.176 HD
ENDBRANCH  34  36
ENDBRANCH  27  32
ENDBRANCH   1  22
TORSDOF 11
ENDMDL