MODEL 5
REMARK VINA RESULT: -7.172972974      0.916      1.094
REMARK  14 active torsions:
REMARK  status: ('A' for Active; 'I' for Inactive)
REMARK    1  A    between atoms: N1_1  and  C1_4
REMARK    2  A    between atoms: C2_7  and  N3_8
REMARK    3  A    between atoms: N3_8  and  N4_10
REMARK    4  A    between atoms: C3_12  and  N5_13
REMARK    5  A    between atoms: N5_13  and  C4_15
REMARK    6  A    between atoms: C9_20  and  O1_21
REMARK    7  A    between atoms: C11_24  and  N6_25
REMARK    8  A    between atoms: N7_28  and  C12_29
REMARK    9  A    between atoms: C12_29  and  C13_30
REMARK   10  A    between atoms: C13_30  and  O2_31
REMARK   11  A    between atoms: C13_30  and  C14_33
REMARK   12  A    between atoms: C14_33  and  O3_34
REMARK   13  A    between atoms: C14_33  and  C15_36
REMARK   14  A    between atoms: C15_36  and  O4_37
ROOT
HETATM    1  C1  UNL     1    -127.303  35.555 123.007  1.00  0.00     0.679 A
HETATM    2  N2  UNL     1    -127.030  34.844 124.133  1.00  0.00    -0.174 N
ATOM      3  H2  UNL     1    -126.927  35.357 125.009  1.00  0.00     0.186 HD
HETATM    4  C2  UNL     1    -126.890  33.522 124.165  1.00  0.00     0.153 A
HETATM    5  C10 UNL     1    -127.040  32.860 122.941  1.00  0.00     0.101 A
HETATM    6  C11 UNL     1    -126.910  31.464 122.875  1.00  0.00     0.135 A
HETATM    7  N7  UNL     1    -127.053  30.814 121.714  1.00  0.00    -0.259 N
HETATM    8  N8  UNL     1    -127.318  31.562 120.645  1.00  0.00    -0.237 N
ATOM      9  H8  UNL     1    -127.429  31.087 119.749  1.00  0.00     0.208 HD
HETATM   10  N9  UNL     1    -127.447  32.869 120.665  1.00  0.00    -0.269 N
ATOM     11  H9  UNL     1    -127.651  33.363 119.795  1.00  0.00     0.190 HD
HETATM   12  C16 UNL     1    -127.315  33.570 121.802  1.00  0.00     0.154 A
HETATM   13  N10 UNL     1    -127.444  34.918 121.843  1.00  0.00    -0.174 N
ATOM     14  H10 UNL     1    -127.648  35.441 120.992  1.00  0.00     0.186 HD
ENDROOT
BRANCH   4  15
HETATM   15  N3  UNL     1    -126.637  32.807 125.194  1.00  0.00    -0.283 N
ATOM     16  H3  UNL     1    -125.679  32.484 125.330  1.00  0.00     0.188 HD
BRANCH  15  17
HETATM   17  N4  UNL     1    -127.581  32.448 126.128  1.00  0.00    -0.295 N
HETATM   18  C3  UNL     1    -128.836  32.618 125.947  1.00  0.00     0.197 C
ATOM     19  H4  UNL     1    -127.267  32.028 127.002  1.00  0.00     0.187 HD
BRANCH  18  20
HETATM   20  N5  UNL     1    -129.836  32.266 126.879  1.00  0.00    -0.349 N
ATOM     21  H5  UNL     1    -130.089  32.941 127.600  1.00  0.00     0.166 HD
BRANCH  20  22
HETATM   22  C4  UNL     1    -130.499  31.028 126.860  1.00  0.00     0.066 A
HETATM   23  C5  UNL     1    -130.678  30.237 127.965  1.00  0.00     0.032 A
HETATM   24  C6  UNL     1    -131.344  29.023 127.871  1.00  0.00     0.002 A
HETATM   25  C7  UNL     1    -131.822  28.623 126.665  1.00  0.00     0.003 A
HETATM   26  C8  UNL     1    -131.656  29.399 125.548  1.00  0.00     0.039 A
HETATM   27  C9  UNL     1    -131.000  30.588 125.652  1.00  0.00     0.092 A
BRANCH  27  28
HETATM   28  O1  UNL     1    -130.844  31.359 124.492  1.00  0.00    -0.358 OA
ATOM     29  H1  UNL     1    -131.569  31.869 124.150  1.00  0.00     0.217 HD
ENDBRANCH  27  28
ENDBRANCH  20  22
ENDBRANCH  18  20
ENDBRANCH  15  17
ENDBRANCH   4  15
BRANCH   1  30
HETATM   30  N1  UNL     1    -127.419  36.835 123.081  1.00  0.00    -0.234 N
ATOM     31  H12 UNL     1    -127.682  37.289 123.956  1.00  0.00     0.174 HD
ATOM     32  H11 UNL     1    -127.246  37.402 122.251  1.00  0.00     0.174 HD
ENDBRANCH   1  30
BRANCH   6  33
HETATM   33  N6  UNL     1    -126.637  30.850 123.968  1.00  0.00    -0.383 N
ATOM     34  H62 UNL     1    -127.075  29.961 124.211  1.00  0.00     0.157 HD
ATOM     35  H61 UNL     1    -125.950  31.281 124.586  1.00  0.00     0.157 HD
ENDBRANCH   6  33
BRANCH   7  36
HETATM   36  C12 UNL     1    -126.936  29.388 121.626  1.00  0.00     0.186 C
BRANCH  36  37
HETATM   37  C13 UNL     1    -128.164  28.600 121.908  1.00  0.00     0.168 C
BRANCH  37  38
HETATM   38  O2  UNL     1    -128.980  29.060 122.907  1.00  0.00    -0.391 OA
ATOM     39  H2  UNL     1    -129.481  28.411 123.386  1.00  0.00     0.210 HD
ENDBRANCH  37  38
BRANCH  37  40
HETATM   40  C14 UNL     1    -128.924  28.243 120.651  1.00  0.00     0.172 C
BRANCH  40  41
HETATM   41  O3  UNL     1    -129.162  29.309 119.822  1.00  0.00    -0.391 OA
ATOM     42  H3  UNL     1    -129.221  30.143 120.271  1.00  0.00     0.210 HD
ENDBRANCH  40  41
BRANCH  40  43
HETATM   43  C15 UNL     1    -130.191  27.500 121.026  1.00  0.00     0.198 C
BRANCH  43  44
HETATM   44  O4  UNL     1    -129.818  26.230 121.474  1.00  0.00    -0.398 OA
ATOM     45  H4  UNL     1    -130.613  25.756 121.687  1.00  0.00     0.209 HD
ENDBRANCH  43  44
ENDBRANCH  40  43
ENDBRANCH  37  40
ENDBRANCH  36  37
ENDBRANCH   7  36
TORSDOF 14
ENDMDL