MODEL 5
REMARK VINA RESULT: -7.653269743      2.695      7.577
REMARK  13 active torsions:
REMARK  status: ('A' for Active; 'I' for Inactive)
REMARK    1  A    between atoms: N1_1  and  C1_4
REMARK    2  A    between atoms: C2_7  and  S1_8
REMARK    3  A    between atoms: S1_8  and  C3_9
REMARK    4  A    between atoms: C3_9  and  C4_10
REMARK    5  A    between atoms: C6_14  and  N4_15
REMARK    6  A    between atoms: C8_26  and  N8_27
REMARK    7  A    between atoms: N8_27  and  C9_29
REMARK    8  A    between atoms: C9_29  and  C10_30
REMARK    9  A    between atoms: C10_30  and  O1_31
REMARK   10  A    between atoms: C12_37  and  C13_38
REMARK   11  A    between atoms: C13_38  and  O2_39
REMARK   12  A    between atoms: C13_38  and  C14_41
REMARK   13  A    between atoms: C14_41  and  N11_42
ROOT
HETATM    1  C4  UNL     1    -127.849  32.382 125.859  1.00  0.00     0.108 A
HETATM    2  N3  UNL     1    -127.706  33.472 125.089  1.00  0.00    -0.325 N
ATOM      3  H3  UNL     1    -127.652  34.445 125.392  1.00  0.00     0.169 HD
HETATM    4  C5  UNL     1    -127.650  32.999 123.830  1.00  0.00     0.191 A
HETATM    5  C6  UNL     1    -127.505  33.872 122.777  1.00  0.00     0.161 C
HETATM    6  N5  UNL     1    -127.337  33.557 121.479  1.00  0.00    -0.173 N
ATOM      7  H5  UNL     1    -127.137  34.338 120.853  1.00  0.00     0.186 HD
HETATM    8  C7  UNL     1    -127.398  32.347 120.904  1.00  0.00     0.692 C
HETATM    9  N6  UNL     1    -127.080  32.368 119.645  1.00  0.00    -0.234 N
ATOM     10  H61 UNL     1    -127.126  31.448 119.208  1.00  0.00     0.174 HD
ATOM     11  H62 UNL     1    -126.822  33.253 119.209  1.00  0.00     0.174 HD
HETATM   12  N7  UNL     1    -127.735  31.191 121.473  1.00  0.00    -0.021 N
ATOM     13  H7  UNL     1    -128.041  30.476 120.814  1.00  0.00     0.203 HD
HETATM   14  C8  UNL     1    -127.746  30.789 122.776  1.00  0.00     0.716 C
HETATM   15  N9  UNL     1    -127.755  31.641 123.812  1.00  0.00    -0.064 N
HETATM   16  N10 UNL     1    -127.876  31.296 125.071  1.00  0.00    -0.265 N
ATOM     17  H10 UNL     1    -127.975  30.337 125.405  1.00  0.00     0.189 HD
ENDROOT
BRANCH   1  18
HETATM   18  C3  UNL     1    -127.971  32.277 127.350  1.00  0.00     0.158 C
BRANCH  18  19
HETATM   19  S1  UNL     1    -129.684  32.399 127.861  1.00  0.00    -0.104 SA
BRANCH  19  20
HETATM   20  C2  UNL     1    -130.624  30.947 127.424  1.00  0.00     0.088 A
HETATM   21  N2  UNL     1    -131.440  30.975 126.376  1.00  0.00    -0.186 N
HETATM   22  C1  UNL     1    -132.197  29.947 125.960  1.00  0.00     0.677 A
ATOM     23  H2  UNL     1    -131.496  31.845 125.846  1.00  0.00     0.185 HD
HETATM   24  N12 UNL     1    -132.110  28.800 126.675  1.00  0.00    -0.193 N
HETATM   25  C12 UNL     1    -131.308  28.690 127.749  1.00  0.00     0.059 A
ATOM     26  H12 UNL     1    -132.670  27.996 126.391  1.00  0.00     0.184 HD
HETATM   27  C11 UNL     1    -130.538  29.783 128.148  1.00  0.00     0.065 A
BRANCH  22  28
HETATM   28  N1  UNL     1    -132.976  30.003 124.944  1.00  0.00    -0.234 N
ATOM     29  H12 UNL     1    -133.031  29.210 124.306  1.00  0.00     0.174 HD
ATOM     30  H11 UNL     1    -133.562  30.809 124.725  1.00  0.00     0.174 HD
ENDBRANCH  22  28
BRANCH  25  31
HETATM   31  C13 UNL     1    -131.183  27.470 128.541  1.00  0.00     0.194 C
BRANCH  31  32
HETATM   32  O2  UNL     1    -131.225  27.693 129.911  1.00  0.00    -0.388 OA
ATOM     33  H2  UNL     1    -131.674  27.008 130.392  1.00  0.00     0.210 HD
ENDBRANCH  31  32
BRANCH  31  34
HETATM   34  C14 UNL     1    -132.206  26.413 128.212  1.00  0.00     0.267 C
BRANCH  34  35
HETATM   35  N11 UNL     1    -133.193  26.310 129.259  1.00  0.00    -0.077 N
ATOM     36 3H11 UNL     1    -132.760  26.170 130.172  1.00  0.00     0.274 HD
ATOM     37 2H11 UNL     1    -133.646  27.206 129.440  1.00  0.00     0.274 HD
ATOM     38 1H11 UNL     1    -133.871  25.579 129.046  1.00  0.00     0.274 HD
ENDBRANCH  34  35
ENDBRANCH  31  34
ENDBRANCH  25  31
ENDBRANCH  19  20
ENDBRANCH  18  19
ENDBRANCH   1  18
BRANCH   5  39
HETATM   39  N4  UNL     1    -127.537  35.146 123.084  1.00  0.00    -0.382 N
ATOM     40  H42 UNL     1    -126.773  35.507 123.656  1.00  0.00     0.157 HD
ATOM     41  H41 UNL     1    -128.333  35.670 122.720  1.00  0.00     0.157 HD
ENDBRANCH   5  39
BRANCH  14  42
HETATM   42  N8  UNL     1    -127.748  29.550 122.949  1.00  0.00    -0.222 N
ATOM     43  H8  UNL     1    -126.854  29.147 123.232  1.00  0.00     0.177 HD
BRANCH  42  44
HETATM   44  C9  UNL     1    -128.808  28.628 122.812  1.00  0.00     0.164 C
BRANCH  44  45
HETATM   45  C10 UNL     1    -128.946  28.147 121.354  1.00  0.00     0.184 C
BRANCH  45  46
HETATM   46  O1  UNL     1    -129.712  26.983 121.296  1.00  0.00    -0.399 OA
ATOM     47  H1  UNL     1    -129.168  26.220 121.453  1.00  0.00     0.209 HD
ENDBRANCH  45  46
ENDBRANCH  44  45
ENDBRANCH  42  44
ENDBRANCH  14  42
TORSDOF 13
ENDMDL