MODEL 2
REMARK VINA RESULT: -4.951228326      2.791      4.552
REMARK  2 active torsions:
REMARK  status: ('A' for Active; 'I' for Inactive)
REMARK    1  A    between atoms: C2_2  and  C3_3
REMARK    2  A    between atoms: C6_6  and  C7_7
REMARK       I    between atoms: C7_7  and  N1_9
ROOT
HETATM    1  C7  UNL     1      12.965 -19.527   4.596  1.00  0.00     0.228 C
HETATM    2  O1  UNL     1      14.108 -19.679   4.092  1.00  0.00    -0.273 OA
HETATM    3  N1  UNL     1      12.033 -18.620   4.054  1.00  0.00    -0.303 N
ATOM      4  H1  UNL     1      11.132 -19.004   3.769  1.00  0.00     0.171 HD
HETATM    5  C8  UNL     1      12.200 -17.383   3.886  1.00  0.00     0.203 C
HETATM    6  N2  UNL     1      11.166 -16.597   3.327  1.00  0.00    -0.066 NA
HETATM    7  N3  UNL     1      13.417 -16.757   4.249  1.00  0.00    -0.066 NA
ENDROOT
BRANCH   1   8
HETATM    8  C6  UNL     1      12.536 -20.299   5.792  1.00  0.00     0.086 C
HETATM    9  C3  UNL     1      11.295 -21.140   5.596  1.00  0.00     0.020 C
HETATM   10  C4  UNL     1      12.070 -22.280   6.257  1.00  0.00     0.010 C
HETATM   11  C5  UNL     1      13.386 -21.575   5.885  1.00  0.00     0.015 C
BRANCH   9  12
HETATM   12  C2  UNL     1      10.123 -20.702   6.383  1.00  0.00    -0.031 C
HETATM   13  C1  UNL     1       9.339 -19.747   5.906  1.00  0.00     0.007 C
ENDBRANCH   9  12
ENDBRANCH   1   8
TORSDOF 2
ENDMDL