MODEL 4
REMARK VINA RESULT: -5.013277902      1.361      1.910
REMARK  2 active torsions:
REMARK  status: ('A' for Active; 'I' for Inactive)
REMARK       I    between atoms: N3_4  and  C2_6
REMARK    1  A    between atoms: C2_6  and  C3_8
REMARK    2  A    between atoms: C4_9  and  C5_10
ROOT
HETATM    1  N1  UNL     1      13.706 -22.181   8.268  1.00  0.00    -0.066 NA
HETATM    2  C1  UNL     1      13.115 -23.406   7.892  1.00  0.00     0.203 C
HETATM    3  N2  UNL     1      13.110 -24.568   8.685  1.00  0.00    -0.066 NA
HETATM    4  N3  UNL     1      12.534 -23.482   6.745  1.00  0.00    -0.300 N
ATOM      5  H3  UNL     1      12.100 -24.359   6.453  1.00  0.00     0.171 HD
HETATM    6  C2  UNL     1      12.492 -22.314   5.853  1.00  0.00     0.246 C
HETATM    7  O1  UNL     1      13.070 -22.551   4.790  1.00  0.00    -0.268 OA
ENDROOT
BRANCH   6   8
HETATM    8  C3  UNL     1      11.825 -21.161   6.338  1.00  0.00     0.071 C
HETATM    9  C4  UNL     1      11.594 -19.966   5.928  1.00  0.00    -0.017 C
BRANCH   9  10
HETATM   10  C5  UNL     1      11.956 -19.293   4.701  1.00  0.00     0.008 C
HETATM   11  C6  UNL     1      11.016 -18.282   4.133  1.00  0.00     0.008 C
HETATM   12  C7  UNL     1      12.269 -17.420   3.756  1.00  0.00     0.001 C
HETATM   13  C8  UNL     1      12.907 -18.081   4.977  1.00  0.00     0.008 C
ENDBRANCH   9  10
ENDBRANCH   6   8
TORSDOF 2
ENDMDL