MODEL 2
REMARK VINA RESULT: -4.912416700      0.916      1.834
REMARK  3 active torsions:
REMARK  status: ('A' for Active; 'I' for Inactive)
REMARK    1  A    between atoms: N1_1  and  C1_5
REMARK    2  A    between atoms: N2_9  and  C5_10
REMARK    3  A    between atoms: C5_10  and  C6_11
ROOT
HETATM    1  C1  UNL     1      11.723 -17.712   5.403  1.00  0.00     0.389 C
HETATM    2  C2  UNL     1      11.486 -17.263   3.951  1.00  0.00     0.047 C
HETATM    3  C3  UNL     1      12.607 -17.972   3.262  1.00  0.00     0.036 C
HETATM    4  C4  UNL     1      12.545 -19.335   3.961  1.00  0.00     0.240 C
HETATM    5  N2  UNL     1      11.648 -19.151   5.105  1.00  0.00    -0.038 N
HETATM    6  C9  UNL     1      10.311 -19.257   4.617  1.00  0.00     0.240 C
HETATM    7  C10 UNL     1      10.215 -18.061   3.662  1.00  0.00     0.036 C
ENDROOT
BRANCH   1   8
HETATM    8  N1  UNL     1      12.996 -17.316   5.895  1.00  0.00    -0.049 N
ATOM      9  H13 UNL     1      13.741 -17.873   5.477  1.00  0.00     0.276 HD
ATOM     10  H12 UNL     1      13.258 -16.397   5.537  1.00  0.00     0.276 HD
ATOM     11  H11 UNL     1      13.047 -17.340   6.913  1.00  0.00     0.276 HD
ENDBRANCH   1   8
BRANCH   5  12
HETATM   12  C5  UNL     1      12.027 -19.986   6.151  1.00  0.00     0.244 C
BRANCH  12  13
HETATM   13  C6  UNL     1      12.865 -21.168   5.817  1.00  0.00     0.012 A
HETATM   14  C7  UNL     1      13.186 -22.048   7.042  1.00  0.00     0.007 A
HETATM   15  C8  UNL     1      12.393 -22.549   5.877  1.00  0.00     0.007 A
ENDBRANCH  12  13
ENDBRANCH   5  12
TORSDOF 3
ENDMDL