MODEL 4
REMARK VINA RESULT: -3.750164035      7.495      8.372
REMARK  3 active torsions:
REMARK  status: ('A' for Active; 'I' for Inactive)
REMARK    1  A    between atoms: C2_2  and  N1_3
REMARK    2  A    between atoms: N1_3  and  C3_5
REMARK    3  A    between atoms: C3_5  and  N2_7
ROOT
HETATM    1  C3  UNL     1      11.789 -24.404  11.920  1.00  0.00     0.169 C
HETATM    2  S1  UNL     1      12.029 -25.334  13.231  1.00  0.00    -0.041 SA
ENDROOT
BRANCH   1   3
HETATM    3  N1  UNL     1      12.435 -23.172  11.780  1.00  0.00    -0.367 N
ATOM      4  H1  UNL     1      12.715 -22.835  10.859  1.00  0.00     0.161 HD
BRANCH   3   5
HETATM    5  C2  UNL     1      12.699 -22.381  12.965  1.00  0.00     0.117 C
HETATM    6  C1  UNL     1      13.285 -21.026  12.641  1.00  0.00     0.026 C
ENDBRANCH   3   5
ENDBRANCH   1   3
BRANCH   1   7
HETATM    7  N2  UNL     1      10.883 -24.875  10.948  1.00  0.00    -0.358 N
HETATM    8  C4  UNL     1      11.150 -25.577   9.705  1.00  0.00     0.125 C
HETATM    9  C5  UNL     1      10.112 -26.703   9.832  1.00  0.00     0.021 C
HETATM   10  C6  UNL     1       8.928 -26.022  10.487  1.00  0.00     0.021 C
HETATM   11  C7  UNL     1       9.434 -24.719  11.049  1.00  0.00     0.125 C
ENDBRANCH   1   7
TORSDOF 3
ENDMDL