MODEL 3
REMARK VINA RESULT: -4.685484744      9.831     10.701
REMARK  2 active torsions:
REMARK  status: ('A' for Active; 'I' for Inactive)
REMARK    1  A    between atoms: C2_2  and  C3_3
REMARK    2  A    between atoms: C8_8  and  N1_9
REMARK       I    between atoms: N1_9  and  C9_11
ROOT
HETATM    1  C3  UNL     1       8.372 -27.063  10.053  1.00  0.00     0.019 C
HETATM    2  C4  UNL     1       9.462 -27.390   9.040  1.00  0.00     0.017 C
HETATM    3  C5  UNL     1       8.906 -28.682   8.510  1.00  0.00     0.008 C
HETATM    4  C6  UNL     1       8.531 -29.349   9.846  1.00  0.00     0.008 C
HETATM    5  C7  UNL     1       8.964 -28.239  10.784  1.00  0.00     0.017 C
HETATM    6  C8  UNL     1      10.286 -27.867  10.210  1.00  0.00     0.095 C
ENDROOT
BRANCH   6   7
HETATM    7  N1  UNL     1      11.178 -28.983   9.927  1.00  0.00    -0.340 N
HETATM    8  C9  UNL     1      12.539 -28.931  10.319  1.00  0.00     0.329 C
HETATM    9  N2  UNL     1      13.390 -30.016  10.040  1.00  0.00    -0.040 NA
HETATM   10  O1  UNL     1      12.976 -27.932  10.905  1.00  0.00    -0.251 OA
ATOM     11  H1  UNL     1      10.821 -29.807   9.444  1.00  0.00     0.164 HD
ENDBRANCH   6   7
BRANCH   1  12
HETATM   12  C2  UNL     1       8.405 -25.758  10.672  1.00  0.00    -0.031 C
HETATM   13  C1  UNL     1       7.589 -25.308  11.614  1.00  0.00     0.007 C
ENDBRANCH   1  12
TORSDOF 2
ENDMDL