MODEL 4
REMARK VINA RESULT: -3.897480740      7.243      9.013
REMARK  2 active torsions:
REMARK  status: ('A' for Active; 'I' for Inactive)
REMARK    1  A    between atoms: N1_1  and  C1_5
REMARK    2  A    between atoms: C1_5  and  C2_6
ROOT
HETATM    1  C2  UNL     1      12.273 -25.240  10.929  1.00  0.00     0.215 C
HETATM    2  C3  UNL     1      13.123 -26.442  11.369  1.00  0.00     0.037 C
HETATM    3  C4  UNL     1      12.426 -26.752  12.700  1.00  0.00     0.030 C
HETATM    4  C5  UNL     1      10.980 -26.650  12.266  1.00  0.00     0.238 C
HETATM    5  N2  UNL     1      10.979 -25.446  11.469  1.00  0.00    -0.061 N
HETATM    6  C6  UNL     1      10.639 -24.307  12.326  1.00  0.00     0.238 C
HETATM    7  C7  UNL     1       9.153 -24.471  12.526  1.00  0.00     0.029 C
HETATM    8  C8  UNL     1       8.683 -24.919  11.182  1.00  0.00     0.029 C
HETATM    9  C9  UNL     1       9.901 -25.555  10.536  1.00  0.00     0.238 C
ENDROOT
BRANCH   1  10
HETATM   10  C1  UNL     1      12.356 -25.182   9.437  1.00  0.00     0.263 C
BRANCH  10  11
HETATM   11  N1  UNL     1      13.056 -23.998   8.987  1.00  0.00    -0.077 N
ATOM     12  H13 UNL     1      13.954 -24.235   8.564  1.00  0.00     0.274 HD
ATOM     13  H12 UNL     1      12.601 -23.583   8.174  1.00  0.00     0.274 HD
ATOM     14  H11 UNL     1      13.168 -23.318   9.739  1.00  0.00     0.274 HD
ENDBRANCH  10  11
ENDBRANCH   1  10
TORSDOF 2
ENDMDL