MODEL 3
REMARK VINA RESULT: -4.622047262      1.554      5.670
REMARK  2 active torsions:
REMARK  status: ('A' for Active; 'I' for Inactive)
REMARK    1  A    between atoms: N1_2  and  C3_4
REMARK       I    between atoms: N2_5  and  C4_7
REMARK       I    between atoms: C4_7  and  N3_9
REMARK    2  A    between atoms: N3_9  and  C5_11
ROOT
HETATM    1  C3  UNL     1      12.274 -21.102   6.467  1.00  0.00     0.181 C
HETATM    2  N2  UNL     1      12.907 -22.215   6.219  1.00  0.00    -0.305 N
ATOM      3  H2  UNL     1      13.186 -22.428   5.262  1.00  0.00     0.171 HD
HETATM    4  C4  UNL     1      13.216 -23.133   7.252  1.00  0.00     0.321 C
HETATM    5  O1  UNL     1      14.412 -23.335   7.586  1.00  0.00    -0.247 OA
HETATM    6  N3  UNL     1      12.203 -23.852   7.944  1.00  0.00    -0.338 N
ATOM      7  H3  UNL     1      11.231 -23.692   7.677  1.00  0.00     0.164 HD
ENDROOT
BRANCH   6   8
HETATM    8  C5  UNL     1      12.470 -24.789   8.995  1.00  0.00     0.086 A
HETATM    9  C6  UNL     1      11.850 -24.477  10.338  1.00  0.00     0.027 A
HETATM   10  C7  UNL     1      11.414 -25.653   9.558  1.00  0.00     0.027 A
ENDBRANCH   6   8
BRANCH   1  11
HETATM   11  N1  UNL     1      11.960 -20.175   5.445  1.00  0.00    -0.386 N
HETATM   12  C1  UNL     1      10.540 -19.855   5.266  1.00  0.00     0.149 C
HETATM   13  C2  UNL     1      12.952 -19.551   4.597  1.00  0.00     0.149 C
ENDBRANCH   1  11
TORSDOF 2
ENDMDL