MODEL 1
REMARK VINA RESULT: -5.168946228      0.000      0.000
REMARK  2 active torsions:
REMARK  status: ('A' for Active; 'I' for Inactive)
REMARK    1  A    between atoms: C2_2  and  N2_6
REMARK    2  A    between atoms: N2_6  and  C3_8
ROOT
HETATM    1  C3  UNL     1      12.395 -20.575   5.475  1.00  0.00     0.110 C
HETATM    2  C4  UNL     1      13.570 -20.052   4.682  1.00  0.00     0.054 C
HETATM    3  C5  UNL     1      12.839 -19.099   3.733  1.00  0.00     0.238 C
HETATM    4  N3  UNL     1      11.945 -18.405   4.631  1.00  0.00    -0.073 N
HETATM    5  C6  UNL     1      12.557 -17.192   5.103  1.00  0.00     0.272 C
HETATM    6  C7  UNL     1      10.752 -18.071   3.858  1.00  0.00     0.272 C
HETATM    7  C8  UNL     1      11.624 -19.288   5.711  1.00  0.00     0.261 C
ENDROOT
BRANCH   1   8
HETATM    8  N2  UNL     1      12.795 -21.210   6.704  1.00  0.00    -0.374 N
ATOM      9  H2  UNL     1      12.934 -20.671   7.559  1.00  0.00     0.161 HD
BRANCH   8  10
HETATM   10  C2  UNL     1      12.989 -22.619   6.675  1.00  0.00     0.066 C
HETATM   11  C1  UNL     1      13.536 -23.399   7.802  1.00  0.00     0.088 C
HETATM   12  N1  UNL     1      12.666 -23.245   5.605  1.00  0.00    -0.389 N
ATOM     13  H12 UNL     1      12.804 -24.255   5.584  1.00  0.00     0.157 HD
ATOM     14  H11 UNL     1      12.287 -22.706   4.825  1.00  0.00     0.157 HD
ENDBRANCH   8  10
ENDBRANCH   1   8
TORSDOF 2
ENDMDL