MODEL 4
REMARK VINA RESULT: -9.618591400      1.105      2.018
REMARK  10 active torsions:
REMARK  status: ('A' for Active; 'I' for Inactive)
REMARK    1  A    between atoms: C2_2  and  C3_3
REMARK       I    between atoms: C3_3  and  N1_5
REMARK    2  A    between atoms: C12_15  and  C13_16
REMARK    3  A    between atoms: C13_16  and  C14_17
REMARK       I    between atoms: C14_17  and  N3_19
REMARK    4  A    between atoms: N3_19  and  C15_21
REMARK    5  A    between atoms: C15_21  and  C16_22
REMARK    6  A    between atoms: C16_22  and  C17_23
REMARK    7  A    between atoms: C17_23  and  N4_24
REMARK    8  A    between atoms: N4_24  and  C18_25
REMARK    9  A    between atoms: N5_34  and  C26_35
REMARK   10  A    between atoms: C26_35  and  C27_36
ROOT
HETATM    1  C3  UNL     1       5.892 -16.993 -16.989  1.00  0.00     0.219 C
HETATM    2  O1  UNL     1       5.194 -17.240 -18.027  1.00  0.00    -0.273 OA
HETATM    3  N1  UNL     1       7.208 -17.474 -16.945  1.00  0.00    -0.352 N
HETATM    4  C4  UNL     1       8.104 -17.266 -15.832  1.00  0.00     0.128 C
HETATM    5  C5  UNL     1       9.005 -18.476 -15.767  1.00  0.00     0.053 C
HETATM    6  C6  UNL     1      10.042 -18.443 -16.932  1.00  0.00     0.068 C
HETATM    7  C7  UNL     1       9.275 -17.825 -18.057  1.00  0.00     0.053 C
HETATM    8  C8  UNL     1       7.793 -18.241 -18.058  1.00  0.00     0.128 C
HETATM    9  C9  UNL     1      11.074 -17.445 -16.449  1.00  0.00     0.303 C
HETATM   10  N2  UNL     1      11.449 -17.760 -15.112  1.00  0.00     0.087 N
HETATM   11  C10 UNL     1      11.661 -16.609 -14.269  1.00  0.00     0.310 C
HETATM   12  C11 UNL     1      12.591 -18.657 -15.115  1.00  0.00     0.286 C
HETATM   13  C12 UNL     1      12.016 -20.037 -14.919  1.00  0.00     0.115 C
HETATM   14  C25 UNL     1      11.230 -20.487 -16.081  1.00  0.00     0.230 C
HETATM   15  O3  UNL     1      11.155 -21.760 -16.141  1.00  0.00    -0.273 OA
HETATM   16  N5  UNL     1      10.544 -19.754 -17.142  1.00  0.00    -0.319 N
ENDROOT
BRANCH  13  17
HETATM   17  C13 UNL     1      12.998 -21.066 -14.484  1.00  0.00     0.118 C
BRANCH  17  18
HETATM   18  C14 UNL     1      14.132 -21.278 -15.373  1.00  0.00     0.218 C
HETATM   19  O2  UNL     1      15.201 -20.656 -15.205  1.00  0.00    -0.274 OA
HETATM   20  N3  UNL     1      14.068 -22.206 -16.473  1.00  0.00    -0.361 N
ATOM     21  H3  UNL     1      13.208 -22.729 -16.638  1.00  0.00     0.162 HD
BRANCH  20  22
HETATM   22  C15 UNL     1      15.199 -22.409 -17.345  1.00  0.00     0.124 C
BRANCH  22  23
HETATM   23  C16 UNL     1      15.005 -23.693 -18.120  1.00  0.00     0.048 C
BRANCH  23  24
HETATM   24  C17 UNL     1      15.909 -23.682 -19.304  1.00  0.00     0.239 C
BRANCH  24  25
HETATM   25  N4  UNL     1      16.986 -24.641 -19.262  1.00  0.00    -0.067 N
HETATM   26  C20 UNL     1      16.576 -25.939 -18.823  1.00  0.00     0.237 C
HETATM   27  C21 UNL     1      17.751 -26.812 -18.446  1.00  0.00     0.028 C
HETATM   28  C22 UNL     1      18.605 -26.233 -17.366  1.00  0.00     0.003 C
HETATM   29  C23 UNL     1      18.172 -24.812 -17.107  1.00  0.00     0.028 C
HETATM   30  C24 UNL     1      18.071 -24.122 -18.467  1.00  0.00     0.237 C
BRANCH  25  31
HETATM   31  C18 UNL     1      17.487 -24.747 -20.634  1.00  0.00     0.233 C
HETATM   32  C19 UNL     1      16.485 -25.388 -21.540  1.00  0.00     0.035 C
ENDBRANCH  25  31
ENDBRANCH  24  25
ENDBRANCH  23  24
ENDBRANCH  22  23
ENDBRANCH  20  22
ENDBRANCH  17  18
ENDBRANCH  13  17
BRANCH  16  33
HETATM   33  C26 UNL     1      10.413 -20.571 -18.281  1.00  0.00     0.072 C
BRANCH  33  34
HETATM   34  C27 UNL     1      11.238 -20.326 -19.486  1.00  0.00     0.024 C
HETATM   35  C28 UNL     1      12.522 -21.143 -19.478  1.00  0.00     0.010 C
HETATM   36  C29 UNL     1      12.328 -22.570 -19.871  1.00  0.00     0.001 C
HETATM   37  C30 UNL     1      11.973 -22.518 -21.369  1.00  0.00     0.000 C
HETATM   38  C31 UNL     1      10.729 -21.725 -21.559  1.00  0.00     0.001 C
HETATM   39  C32 UNL     1      10.634 -20.427 -20.832  1.00  0.00     0.010 C
ENDBRANCH  33  34
ENDBRANCH  16  33
BRANCH   1  40
HETATM   40  C2  UNL     1       5.260 -16.214 -15.907  1.00  0.00     0.098 C
HETATM   41  C1  UNL     1       5.003 -14.799 -16.421  1.00  0.00     0.014 C
ENDBRANCH   1  40
TORSDOF 10
ENDMDL