MODEL 4
REMARK VINA RESULT: -8.721765776      3.207      6.436
REMARK  10 active torsions:
REMARK  status: ('A' for Active; 'I' for Inactive)
REMARK    1  A    between atoms: C2_2  and  N1_3
REMARK    2  A    between atoms: C4_6  and  C5_7
REMARK       I    between atoms: C5_7  and  N2_9
REMARK       I    between atoms: N3_15  and  C10_16
REMARK    3  A    between atoms: C10_16  and  C11_18
REMARK    4  A    between atoms: C11_18  and  C12_19
REMARK    5  A    between atoms: C12_19  and  C13_20
REMARK    6  A    between atoms: C13_20  and  C14_21
REMARK    7  A    between atoms: C14_21  and  C15_22
REMARK    8  A    between atoms: C15_22  and  C16_23
REMARK    9  A    between atoms: C16_23  and  C17_24
REMARK       I    between atoms: C17_24  and  N4_26
REMARK   10  A    between atoms: C25_34  and  C26_35
REMARK       I    between atoms: C26_35  and  N5_37
ROOT
HETATM    1  N1  UNL     1      11.835 -21.713 -19.144  1.00  0.00    -0.338 N
HETATM    2  C3  UNL     1      10.428 -21.644 -19.310  1.00  0.00     0.234 C
HETATM    3  O1  UNL     1       9.806 -22.661 -19.714  1.00  0.00    -0.272 OA
HETATM    4  C4  UNL     1       9.714 -20.367 -19.006  1.00  0.00     0.178 C
HETATM    5  C7  UNL     1      10.371 -19.617 -17.865  1.00  0.00    -0.014 C
HETATM    6  C8  UNL     1       9.848 -20.238 -16.574  1.00  0.00     0.030 C
HETATM    7  C9  UNL     1       8.915 -19.263 -15.840  1.00  0.00     0.126 C
HETATM    8  N3  UNL     1       9.639 -18.038 -15.608  1.00  0.00    -0.352 N
HETATM    9  C10 UNL     1       9.690 -17.402 -14.349  1.00  0.00     0.219 C
HETATM   10  O3  UNL     1       9.033 -17.977 -13.415  1.00  0.00    -0.273 OA
HETATM   11  C22 UNL     1      10.334 -17.439 -16.727  1.00  0.00     0.126 C
HETATM   12  C23 UNL     1       9.889 -18.162 -17.973  1.00  0.00     0.030 C
HETATM   13  C24 UNL     1      11.855 -19.574 -17.904  1.00  0.00     0.046 C
HETATM   14  C25 UNL     1      12.577 -20.831 -18.248  1.00  0.00     0.180 C
ENDROOT
BRANCH   4  15
HETATM   15  C5  UNL     1       9.468 -19.543 -20.199  1.00  0.00     0.231 C
HETATM   16  O2  UNL     1      10.370 -19.371 -21.091  1.00  0.00    -0.273 OA
HETATM   17  N2  UNL     1       8.229 -18.895 -20.428  1.00  0.00    -0.365 N
HETATM   18  C6  UNL     1       7.989 -18.085 -21.601  1.00  0.00     0.149 C
ATOM     19  H2  UNL     1       7.482 -19.004 -19.742  1.00  0.00     0.161 HD
ENDBRANCH   4  15
BRANCH  14  20
HETATM   20  C26 UNL     1      13.089 -21.572 -17.077  1.00  0.00     0.242 C
HETATM   21  O5  UNL     1      12.244 -21.887 -16.178  1.00  0.00    -0.271 OA
HETATM   22  N5  UNL     1      14.423 -21.953 -16.887  1.00  0.00    -0.350 N
HETATM   23  C27 UNL     1      15.422 -21.658 -17.877  1.00  0.00     0.126 C
HETATM   24  C31 UNL     1      14.873 -22.654 -15.691  1.00  0.00     0.126 C
HETATM   25  C28 UNL     1      16.317 -22.843 -18.098  1.00  0.00     0.020 C
HETATM   26  C29 UNL     1      16.921 -23.330 -16.817  1.00  0.00     0.003 C
HETATM   27  C30 UNL     1      16.384 -22.564 -15.620  1.00  0.00     0.020 C
ENDBRANCH  14  20
BRANCH   1  28
HETATM   28  C2  UNL     1      12.582 -22.707 -19.902  1.00  0.00     0.122 C
HETATM   29  C1  UNL     1      13.213 -22.088 -21.128  1.00  0.00     0.026 C
ENDBRANCH   1  28
BRANCH   9  30
HETATM   30  C11 UNL     1      10.434 -16.169 -14.080  1.00  0.00     0.103 C
BRANCH  30  31
HETATM   31  C12 UNL     1       9.643 -14.951 -14.465  1.00  0.00     0.009 C
BRANCH  31  32
HETATM   32  C13 UNL     1       8.168 -15.247 -14.298  1.00  0.00     0.000 C
BRANCH  32  33
HETATM   33  C14 UNL     1       7.407 -14.985 -15.578  1.00  0.00     0.000 C
BRANCH  33  34
HETATM   34  C15 UNL     1       6.521 -16.144 -15.892  1.00  0.00     0.009 C
BRANCH  34  35
HETATM   35  C16 UNL     1       5.512 -15.824 -16.941  1.00  0.00     0.103 C
BRANCH  35  36
HETATM   36  C17 UNL     1       5.706 -16.598 -18.175  1.00  0.00     0.219 C
HETATM   37  O4  UNL     1       6.744 -16.502 -18.909  1.00  0.00    -0.273 OA
HETATM   38  N4  UNL     1       4.669 -17.506 -18.567  1.00  0.00    -0.352 N
HETATM   39  C18 UNL     1       4.672 -18.355 -19.747  1.00  0.00     0.126 C
HETATM   40  C21 UNL     1       3.445 -17.726 -17.821  1.00  0.00     0.126 C
HETATM   41  C19 UNL     1       3.891 -19.585 -19.315  1.00  0.00     0.021 C
HETATM   42  C20 UNL     1       3.084 -19.177 -18.096  1.00  0.00     0.021 C
ENDBRANCH  35  36
ENDBRANCH  34  35
ENDBRANCH  33  34
ENDBRANCH  32  33
ENDBRANCH  31  32
ENDBRANCH  30  31
ENDBRANCH   9  30
TORSDOF 10
ENDMDL