MODEL 1
REMARK VINA RESULT: -9.698121640      0.000      0.000
REMARK  12 active torsions:
REMARK  status: ('A' for Active; 'I' for Inactive)
REMARK    1  A    between atoms: C2_2  and  C3_3
REMARK    2  A    between atoms: C3_3  and  C4_4
REMARK    3  A    between atoms: C4_4  and  N1_5
REMARK    4  A    between atoms: N1_5  and  C5_6
REMARK    5  A    between atoms: N1_5  and  C26_35
REMARK    6  A    between atoms: C5_6  and  O1_7
REMARK    7  A    between atoms: C5_6  and  C6_9
REMARK    8  A    between atoms: C6_9  and  C7_10
REMARK    9  A    between atoms: C6_9  and  N2_17
REMARK   10  A    between atoms: C7_10  and  C8_11
REMARK       I    between atoms: N2_17  and  C14_19
REMARK   11  A    between atoms: C14_19  and  C15_21
REMARK       I    between atoms: N3_24  and  C18_25
REMARK   12  A    between atoms: C18_25  and  C19_27
ROOT
HETATM    1  C6  UNL     1      14.568 -19.916 -16.653  1.00  0.00     0.082 C
ENDROOT
BRANCH   1   2
HETATM    2  C5  UNL     1      14.305 -20.519 -17.889  1.00  0.00     0.165 C
BRANCH   2   3
HETATM    3  N1  UNL     1      13.746 -21.671 -18.448  1.00  0.00    -0.355 N
BRANCH   3   4
HETATM    4  C4  UNL     1      12.310 -21.888 -18.342  1.00  0.00     0.125 C
BRANCH   4   5
HETATM    5  C3  UNL     1      11.445 -20.960 -19.085  1.00  0.00     0.020 C
BRANCH   5   6
HETATM    6  C2  UNL     1      11.520 -20.951 -20.568  1.00  0.00    -0.003 C
HETATM    7  C1  UNL     1      11.231 -22.343 -21.148  1.00  0.00     0.005 C
ENDBRANCH   5   6
ENDBRANCH   4   5
ENDBRANCH   3   4
BRANCH   3   8
HETATM    8  C26 UNL     1      14.546 -22.683 -19.063  1.00  0.00     0.089 C
HETATM    9  C27 UNL     1      13.975 -24.070 -19.076  1.00  0.00     0.053 C
HETATM   10  C28 UNL     1      14.874 -24.920 -19.917  1.00  0.00     0.238 C
HETATM   11  N5  UNL     1      16.261 -24.796 -19.754  1.00  0.00    -0.075 N
HETATM   12  C29 UNL     1      16.779 -26.093 -19.274  1.00  0.00     0.272 C
HETATM   13  C30 UNL     1      16.856 -24.699 -21.105  1.00  0.00     0.272 C
HETATM   14  C31 UNL     1      16.802 -23.768 -18.949  1.00  0.00     0.238 C
HETATM   15  C32 UNL     1      15.829 -22.903 -18.220  1.00  0.00     0.053 C
ENDBRANCH   3   8
ENDBRANCH   2   3
BRANCH   2  16
HETATM   16  O1  UNL     1      14.725 -19.709 -18.899  1.00  0.00    -0.344 OA
ATOM     17  H1  UNL     1      14.592 -18.805 -18.636  1.00  0.00     0.219 HD
ENDBRANCH   2  16
ENDBRANCH   1   2
BRANCH   1  18
HETATM   18  C7  UNL     1      15.421 -20.184 -15.533  1.00  0.00     0.012 C
BRANCH  18  19
HETATM   19  C8  UNL     1      15.782 -21.546 -15.094  1.00  0.00     0.010 C
HETATM   20  C9  UNL     1      17.170 -21.926 -14.804  1.00  0.00     0.008 C
HETATM   21  C10 UNL     1      17.255 -23.468 -14.745  1.00  0.00     0.001 C
HETATM   22  C11 UNL     1      16.412 -23.941 -13.608  1.00  0.00     0.000 C
HETATM   23  C12 UNL     1      14.980 -23.468 -13.809  1.00  0.00     0.001 C
HETATM   24  C13 UNL     1      14.943 -21.959 -13.867  1.00  0.00     0.008 C
ENDBRANCH  18  19
ENDBRANCH   1  18
BRANCH   1  25
HETATM   25  N2  UNL     1      13.351 -19.186 -16.213  1.00  0.00    -0.323 N
HETATM   26  C14 UNL     1      12.295 -19.744 -15.491  1.00  0.00     0.226 C
HETATM   27  O2  UNL     1      12.356 -20.963 -15.182  1.00  0.00    -0.273 OA
ATOM     28  H2  UNL     1      13.282 -18.198 -16.458  1.00  0.00     0.169 HD
BRANCH  26  29
HETATM   29  C15 UNL     1      11.117 -18.968 -15.075  1.00  0.00     0.081 C
HETATM   30  C16 UNL     1       9.941 -19.411 -15.925  1.00  0.00     0.034 C
HETATM   31  C17 UNL     1       9.420 -18.192 -16.651  1.00  0.00     0.126 C
HETATM   32  N3  UNL     1       9.022 -17.238 -15.649  1.00  0.00    -0.350 N
HETATM   33  C18 UNL     1       7.728 -16.706 -15.609  1.00  0.00     0.253 C
HETATM   34  C24 UNL     1      10.012 -16.839 -14.675  1.00  0.00     0.126 C
HETATM   35  O3  UNL     1       7.440 -15.864 -14.706  1.00  0.00    -0.271 OA
HETATM   36  C25 UNL     1      11.335 -17.476 -15.097  1.00  0.00     0.034 C
BRANCH  33  37
HETATM   37  C19 UNL     1       6.647 -17.061 -16.565  1.00  0.00     0.313 C
HETATM   38  C20 UNL     1       5.291 -17.093 -15.899  1.00  0.00     0.047 C
HETATM   39  C21 UNL     1       4.953 -15.605 -15.802  1.00  0.00     0.033 C
HETATM   40  C22 UNL     1       5.723 -14.957 -16.932  1.00  0.00     0.273 C
HETATM   41  N4  UNL     1       6.453 -16.023 -17.558  1.00  0.00     0.098 N
HETATM   42  C23 UNL     1       7.659 -15.593 -18.201  1.00  0.00     0.310 C
ENDBRANCH  33  37
ENDBRANCH  26  29
ENDBRANCH   1  25
TORSDOF 12
ENDMDL