MODEL 2
REMARK VINA RESULT: -8.897809108      5.219     12.467
REMARK  10 active torsions:
REMARK  status: ('A' for Active; 'I' for Inactive)
REMARK    1  A    between atoms: C2_2  and  C3_3
REMARK    2  A    between atoms: C3_3  and  C4_4
REMARK    3  A    between atoms: C4_4  and  N1_5
REMARK       I    between atoms: N1_5  and  C6_7
REMARK    4  A    between atoms: C6_7  and  C7_9
REMARK    5  A    between atoms: C7_9  and  C8_10
REMARK    6  A    between atoms: C7_9  and  N2_14
REMARK    7  A    between atoms: C8_10  and  C9_11
REMARK       I    between atoms: N2_14  and  C12_16
REMARK    8  A    between atoms: C12_16  and  C13_18
REMARK       I    between atoms: N3_22  and  C17_23
REMARK    9  A    between atoms: C17_23  and  C18_25
REMARK   10  A    between atoms: N4_27  and  C20_28
ROOT
HETATM    1  C13 UNL     1      16.779 -24.768 -19.123  1.00  0.00     0.096 C
HETATM    2  C14 UNL     1      15.478 -25.487 -19.235  1.00  0.00     0.017 C
HETATM    3  C15 UNL     1      14.720 -24.861 -20.387  1.00  0.00     0.021 C
HETATM    4  C16 UNL     1      14.921 -23.341 -20.364  1.00  0.00     0.126 C
HETATM    5  N3  UNL     1      15.349 -22.848 -19.089  1.00  0.00    -0.351 N
HETATM    6  C17 UNL     1      14.670 -21.827 -18.418  1.00  0.00     0.226 C
HETATM    7  O3  UNL     1      15.150 -21.433 -17.296  1.00  0.00    -0.273 OA
HETATM    8  C32 UNL     1      16.538 -23.438 -18.495  1.00  0.00     0.139 C
ENDROOT
BRANCH   6   9
HETATM    9  C18 UNL     1      13.443 -21.167 -18.899  1.00  0.00     0.108 C
HETATM   10  C19 UNL     1      13.153 -19.997 -18.026  1.00  0.00     0.252 C
HETATM   11  N4  UNL     1      11.817 -19.489 -18.065  1.00  0.00    -0.060 N
HETATM   12  C22 UNL     1      11.045 -20.143 -17.050  1.00  0.00     0.238 C
HETATM   13  C31 UNL     1      11.294 -19.532 -19.373  1.00  0.00     0.224 C
HETATM   14  C23 UNL     1      11.488 -21.518 -16.691  1.00  0.00     0.028 C
HETATM   15  C24 UNL     1      11.596 -22.509 -17.772  1.00  0.00     0.007 C
HETATM   16  C25 UNL     1      12.352 -22.178 -18.991  1.00  0.00     0.001 C
HETATM   17  C26 UNL     1      11.381 -21.856 -20.139  1.00  0.00     0.014 C
HETATM   18  C27 UNL     1      10.497 -20.726 -19.757  1.00  0.00     0.047 C
HETATM   19  C28 UNL     1       9.807 -20.244 -21.043  1.00  0.00     0.278 C
HETATM   20  N5  UNL     1      10.008 -18.831 -21.124  1.00  0.00     0.086 N
HETATM   21  C29 UNL     1       8.748 -18.217 -21.521  1.00  0.00     0.310 C
HETATM   22  C30 UNL     1      10.366 -18.403 -19.757  1.00  0.00     0.305 C
BRANCH  11  23
HETATM   23  C20 UNL     1      11.933 -18.073 -17.665  1.00  0.00     0.233 C
HETATM   24  C21 UNL     1      11.652 -17.812 -16.238  1.00  0.00     0.035 C
ENDBRANCH  11  23
ENDBRANCH   6   9
BRANCH   1  25
HETATM   25  C12 UNL     1      17.803 -25.565 -18.348  1.00  0.00     0.224 C
HETATM   26  N2  UNL     1      17.677 -25.604 -16.961  1.00  0.00    -0.347 N
ATOM     27  H2  UNL     1      16.892 -25.074 -16.583  1.00  0.00     0.163 HD
HETATM   28  O2  UNL     1      18.678 -26.121 -19.040  1.00  0.00    -0.273 OA
BRANCH  26  29
HETATM   29  C7  UNL     1      18.490 -26.280 -15.980  1.00  0.00     0.177 C
BRANCH  29  30
HETATM   30  C6  UNL     1      17.974 -26.117 -14.613  1.00  0.00     0.242 C
HETATM   31  N1  UNL     1      17.452 -24.925 -14.059  1.00  0.00    -0.355 N
HETATM   32  C5  UNL     1      17.264 -23.674 -14.776  1.00  0.00     0.152 C
HETATM   33  O1  UNL     1      17.987 -27.121 -13.858  1.00  0.00    -0.271 OA
BRANCH  31  34
HETATM   34  C4  UNL     1      17.020 -24.901 -12.670  1.00  0.00     0.125 C
BRANCH  34  35
HETATM   35  C3  UNL     1      17.716 -23.903 -11.824  1.00  0.00     0.019 C
BRANCH  35  36
HETATM   36  C2  UNL     1      18.612 -24.635 -10.855  1.00  0.00    -0.003 C
HETATM   37  C1  UNL     1      17.992 -25.964 -10.490  1.00  0.00     0.005 C
ENDBRANCH  35  36
ENDBRANCH  34  35
ENDBRANCH  31  34
ENDBRANCH  29  30
BRANCH  29  38
HETATM   38  C8  UNL     1      18.911 -27.634 -16.398  1.00  0.00     0.038 C
BRANCH  38  39
HETATM   39  C9  UNL     1      20.303 -28.057 -16.379  1.00  0.00    -0.020 C
HETATM   40  C10 UNL     1      20.329 -29.332 -15.494  1.00  0.00     0.009 C
HETATM   41  C11 UNL     1      20.975 -28.450 -17.635  1.00  0.00     0.009 C
ENDBRANCH  38  39
ENDBRANCH  29  38
ENDBRANCH  26  29
ENDBRANCH   1  25
TORSDOF 10
ENDMDL