MODEL 4
REMARK VINA RESULT: -10.207031252      1.687      5.321
REMARK  12 active torsions:
REMARK  status: ('A' for Active; 'I' for Inactive)
REMARK    1  A    between atoms: C3_3  and  C5_5
REMARK    2  A    between atoms: C5_5  and  N1_7
REMARK    3  A    between atoms: C8_9  and  C9_10
REMARK    4  A    between atoms: C9_10  and  O1_11
REMARK    5  A    between atoms: C9_10  and  N2_13
REMARK    6  A    between atoms: C12_16  and  C13_17
REMARK    7  A    between atoms: C13_17  and  C14_18
REMARK    8  A    between atoms: C17_21  and  C19_23
REMARK       I    between atoms: C19_23  and  N3_25
REMARK    9  A    between atoms: C27_33  and  C28_34
REMARK       I    between atoms: C28_34  and  N4_36
REMARK   10  A    between atoms: N4_36  and  C29_38
REMARK   11  A    between atoms: C29_38  and  C30_39
REMARK   12  A    between atoms: C30_39  and  C31_40
ROOT
HETATM    1  C1  UNL     1       7.763 -18.123 -21.426  1.00  0.00     0.012 C
HETATM    2  C2  UNL     1       8.777 -18.638 -21.082  1.00  0.00    -0.111 C
HETATM    3  C3  UNL     1      10.028 -19.269 -20.679  1.00  0.00     0.082 C
HETATM    4  C4  UNL     1      11.140 -18.252 -20.798  1.00  0.00     0.025 C
ENDROOT
BRANCH   3   5
HETATM    5  C5  UNL     1       9.948 -19.806 -19.275  1.00  0.00     0.098 C
HETATM    6  C6  UNL     1       8.603 -20.350 -18.930  1.00  0.00     0.034 C
BRANCH   5   7
HETATM    7  N1  UNL     1      10.935 -20.842 -19.054  1.00  0.00    -0.345 N
HETATM    8  C7  UNL     1      11.834 -20.949 -17.926  1.00  0.00     0.140 C
HETATM    9  C8  UNL     1      12.978 -21.743 -18.445  1.00  0.00     0.100 C
HETATM   10  C27 UNL     1      12.381 -22.696 -19.444  1.00  0.00     0.183 C
HETATM   11  C33 UNL     1      11.183 -21.933 -19.908  1.00  0.00     0.234 C
HETATM   12  O4  UNL     1      10.533 -22.294 -20.948  1.00  0.00    -0.272 OA
BRANCH   9  13
HETATM   13  C9  UNL     1      13.897 -22.315 -17.475  1.00  0.00     0.120 C
BRANCH  13  14
HETATM   14  O1  UNL     1      14.453 -23.456 -17.795  1.00  0.00    -0.349 OA
ATOM     15  H1  UNL     1      15.354 -23.423 -18.093  1.00  0.00     0.219 HD
ENDBRANCH  13  14
BRANCH  13  16
HETATM   16  N2  UNL     1      14.298 -21.826 -16.212  1.00  0.00    -0.365 N
HETATM   17  C10 UNL     1      14.066 -22.515 -14.989  1.00  0.00     0.125 C
HETATM   18  C11 UNL     1      13.847 -21.582 -13.809  1.00  0.00     0.024 C
HETATM   19  C12 UNL     1      13.412 -20.254 -14.404  1.00  0.00    -0.011 C
HETATM   20  C25 UNL     1      14.615 -19.669 -15.044  1.00  0.00     0.024 C
HETATM   21  C26 UNL     1      15.011 -20.522 -16.223  1.00  0.00     0.125 C
BRANCH  19  22
HETATM   22  C13 UNL     1      12.639 -19.393 -13.496  1.00  0.00     0.009 C
BRANCH  22  23
HETATM   23  C14 UNL     1      11.958 -18.198 -13.977  1.00  0.00    -0.013 C
HETATM   24  C15 UNL     1      11.002 -17.497 -13.113  1.00  0.00     0.006 C
HETATM   25  C16 UNL     1      10.149 -16.736 -14.134  1.00  0.00     0.019 C
HETATM   26  C17 UNL     1       9.844 -17.820 -15.131  1.00  0.00     0.038 C
HETATM   27  C18 UNL     1       8.740 -18.665 -14.448  1.00  0.00     0.025 C
HETATM   28  C24 UNL     1      11.112 -18.611 -15.190  1.00  0.00     0.023 C
BRANCH  26  29
HETATM   29  C19 UNL     1       9.360 -17.361 -16.427  1.00  0.00     0.228 C
HETATM   30  O2  UNL     1      10.239 -17.253 -17.355  1.00  0.00    -0.273 OA
HETATM   31  N3  UNL     1       8.042 -17.030 -16.744  1.00  0.00    -0.351 N
HETATM   32  C20 UNL     1       7.649 -16.558 -18.089  1.00  0.00     0.126 C
HETATM   33  C23 UNL     1       6.879 -17.074 -15.923  1.00  0.00     0.126 C
HETATM   34  C21 UNL     1       6.428 -15.727 -17.873  1.00  0.00     0.021 C
HETATM   35  C22 UNL     1       5.889 -16.081 -16.516  1.00  0.00     0.021 C
ENDBRANCH  26  29
ENDBRANCH  22  23
ENDBRANCH  19  22
ENDBRANCH  13  16
ENDBRANCH   9  13
BRANCH  10  36
HETATM   36  C28 UNL     1      13.318 -22.822 -20.613  1.00  0.00     0.231 C
HETATM   37  O3  UNL     1      13.402 -21.860 -21.397  1.00  0.00    -0.273 OA
HETATM   38  N4  UNL     1      14.087 -23.981 -20.830  1.00  0.00    -0.360 N
ATOM     39  H4  UNL     1      14.022 -24.772 -20.190  1.00  0.00     0.162 HD
BRANCH  38  40
HETATM   40  C29 UNL     1      14.972 -24.035 -21.973  1.00  0.00     0.122 C
BRANCH  40  41
HETATM   41  C30 UNL     1      16.249 -24.716 -21.540  1.00  0.00     0.019 C
BRANCH  41  42
HETATM   42  C31 UNL     1      15.925 -25.502 -20.281  1.00  0.00    -0.003 C
HETATM   43  C32 UNL     1      17.218 -25.806 -19.559  1.00  0.00     0.005 C
ENDBRANCH  41  42
ENDBRANCH  40  41
ENDBRANCH  38  40
ENDBRANCH  10  36
ENDBRANCH   5   7
ENDBRANCH   3   5
TORSDOF 12
ENDMDL