MODEL 1
REMARK VINA RESULT: -10.344296610      0.000      0.000
REMARK  10 active torsions:
REMARK  status: ('A' for Active; 'I' for Inactive)
REMARK    1  A    between atoms: N1_2  and  C3_4
REMARK    2  A    between atoms: N1_2  and  C22_28
REMARK    3  A    between atoms: C3_4  and  C4_5
REMARK    4  A    between atoms: C4_5  and  C5_6
REMARK    5  A    between atoms: C5_6  and  N2_7
REMARK       I    between atoms: N2_7  and  C6_9
REMARK    6  A    between atoms: C6_9  and  C7_11
REMARK       I    between atoms: N3_15  and  C11_16
REMARK    7  A    between atoms: C11_16  and  C12_18
REMARK    8  A    between atoms: C22_28  and  C23_29
REMARK    9  A    between atoms: C23_29  and  N4_30
REMARK   10  A    between atoms: N5_33  and  C26_34
ROOT
HETATM    1  C5  UNL     1      17.329 -22.933 -15.835  1.00  0.00     0.124 C
ENDROOT
BRANCH   1   2
HETATM    2  C4  UNL     1      16.058 -22.913 -14.947  1.00  0.00     0.047 C
BRANCH   2   3
HETATM    3  C3  UNL     1      15.510 -21.551 -15.074  1.00  0.00     0.238 C
BRANCH   3   4
HETATM    4  N1  UNL     1      14.108 -21.331 -14.806  1.00  0.00    -0.073 N
HETATM    5  C1  UNL     1      13.310 -21.994 -15.799  1.00  0.00     0.272 C
HETATM    6  C2  UNL     1      13.848 -21.995 -13.525  1.00  0.00     0.272 C
BRANCH   4   7
HETATM    7  C22 UNL     1      13.820 -19.935 -14.748  1.00  0.00     0.256 C
BRANCH   7   8
HETATM    8  C23 UNL     1      12.833 -19.351 -13.853  1.00  0.00     0.154 C
BRANCH   8   9
HETATM    9  N4  UNL     1      11.616 -18.808 -14.353  1.00  0.00    -0.347 N
HETATM   10  C24 UNL     1      10.859 -19.487 -15.434  1.00  0.00     0.156 C
HETATM   11  C25 UNL     1      10.170 -18.365 -16.178  1.00  0.00     0.293 C
HETATM   12  N5  UNL     1       9.157 -17.683 -15.395  1.00  0.00     0.103 N
HETATM   13  C32 UNL     1       9.517 -17.562 -13.998  1.00  0.00     0.375 C
HETATM   14  C33 UNL     1      10.997 -17.615 -13.917  1.00  0.00     0.248 C
HETATM   15  O3  UNL     1      11.650 -16.627 -13.481  1.00  0.00    -0.271 OA
BRANCH  12  16
HETATM   16  C26 UNL     1       8.937 -16.405 -16.047  1.00  0.00     0.223 C
HETATM   17  C27 UNL     1       8.175 -15.412 -15.250  1.00  0.00     0.036 C
HETATM   18  C28 UNL     1       6.688 -15.640 -15.431  1.00  0.00     0.002 C
HETATM   19  C29 UNL     1       6.329 -15.129 -16.821  1.00  0.00     0.000 C
HETATM   20  C30 UNL     1       7.400 -15.506 -17.825  1.00  0.00     0.002 C
HETATM   21  C31 UNL     1       8.216 -16.687 -17.336  1.00  0.00     0.036 C
ENDBRANCH  12  16
ENDBRANCH   8   9
ENDBRANCH   7   8
ENDBRANCH   4   7
ENDBRANCH   3   4
ENDBRANCH   2   3
ENDBRANCH   1   2
BRANCH   1  22
HETATM   22  N2  UNL     1      16.991 -22.726 -17.219  1.00  0.00    -0.359 N
HETATM   23  C6  UNL     1      17.016 -23.854 -18.075  1.00  0.00     0.240 C
HETATM   24  O1  UNL     1      17.322 -24.999 -17.651  1.00  0.00    -0.271 OA
ATOM     25  H2  UNL     1      16.743 -21.801 -17.570  1.00  0.00     0.162 HD
BRANCH  23  26
HETATM   26  C7  UNL     1      16.671 -23.673 -19.507  1.00  0.00     0.179 C
HETATM   27  C8  UNL     1      17.134 -24.829 -20.319  1.00  0.00     0.037 C
HETATM   28  C9  UNL     1      15.918 -25.428 -20.938  1.00  0.00     0.022 C
HETATM   29  C10 UNL     1      14.750 -24.754 -20.223  1.00  0.00     0.127 C
HETATM   30  N3  UNL     1      15.242 -23.522 -19.690  1.00  0.00    -0.338 N
HETATM   31  C11 UNL     1      14.512 -22.368 -19.372  1.00  0.00     0.229 C
HETATM   32  O2  UNL     1      15.173 -21.399 -18.880  1.00  0.00    -0.272 OA
BRANCH  31  33
HETATM   33  C12 UNL     1      13.069 -22.139 -19.540  1.00  0.00     0.042 C
HETATM   34  C13 UNL     1      12.750 -20.748 -18.952  1.00  0.00     0.024 C
HETATM   35  C14 UNL     1      11.336 -20.333 -19.207  1.00  0.00    -0.013 C
HETATM   36  C15 UNL     1      10.446 -21.329 -18.471  1.00  0.00     0.009 C
HETATM   37  C19 UNL     1      10.978 -20.326 -20.657  1.00  0.00     0.009 C
HETATM   38  C16 UNL     1      10.733 -22.689 -19.064  1.00  0.00    -0.013 C
HETATM   39  C17 UNL     1      10.466 -22.721 -20.549  1.00  0.00     0.009 C
HETATM   40  C21 UNL     1      12.184 -23.102 -18.828  1.00  0.00     0.024 C
HETATM   41  C18 UNL     1      11.288 -21.684 -21.250  1.00  0.00    -0.013 C
HETATM   42  C20 UNL     1      12.751 -21.993 -21.015  1.00  0.00     0.024 C
ENDBRANCH  31  33
ENDBRANCH  23  26
ENDBRANCH   1  22
TORSDOF 10
ENDMDL