MODEL 5
REMARK VINA RESULT: -9.443599866      1.685      3.414
REMARK  11 active torsions:
REMARK  status: ('A' for Active; 'I' for Inactive)
REMARK    1  A    between atoms: C2_2  and  C3_3
REMARK    2  A    between atoms: C3_3  and  C4_4
REMARK    3  A    between atoms: C4_4  and  N1_5
REMARK    4  A    between atoms: C5_7  and  C6_9
REMARK       I    between atoms: C6_9  and  N3_11
REMARK    5  A    between atoms: N4_14  and  C8_15
REMARK    6  A    between atoms: C8_15  and  C9_16
REMARK    7  A    between atoms: C16_23  and  C17_24
REMARK       I    between atoms: C17_24  and  N5_26
REMARK    8  A    between atoms: N5_26  and  C18_27
REMARK    9  A    between atoms: N5_26  and  C25_36
REMARK   10  A    between atoms: C18_27  and  C19_28
REMARK       I    between atoms: C19_28  and  N6_30
REMARK   11  A    between atoms: C25_36  and  C26_37
ROOT
HETATM    1  C6  UNL     1      11.527 -22.207 -19.892  1.00  0.00     0.293 C
HETATM    2  O1  UNL     1      10.238 -22.095 -19.963  1.00  0.00    -0.264 OA
HETATM    3  N3  UNL     1      12.153 -21.768 -18.719  1.00  0.00    -0.248 N
HETATM    4  C7  UNL     1      13.522 -21.696 -18.355  1.00  0.00     0.328 C
HETATM    5  O2  UNL     1      14.484 -21.410 -19.114  1.00  0.00    -0.247 OA
HETATM    6  N4  UNL     1      13.607 -22.008 -16.970  1.00  0.00    -0.331 N
HETATM    7  C15 UNL     1      12.256 -21.742 -16.409  1.00  0.00     0.163 C
HETATM    8  C16 UNL     1      11.411 -21.223 -17.541  1.00  0.00     0.208 C
ENDROOT
BRANCH   8   9
HETATM    9  C17 UNL     1      11.405 -19.760 -17.686  1.00  0.00     0.245 C
HETATM   10  O3  UNL     1      12.519 -19.136 -17.479  1.00  0.00    -0.271 OA
HETATM   11  N5  UNL     1      10.309 -18.940 -18.036  1.00  0.00    -0.341 N
BRANCH  11  12
HETATM   12  C18 UNL     1      10.552 -17.482 -18.133  1.00  0.00     0.228 C
BRANCH  12  13
HETATM   13  C19 UNL     1       9.501 -16.773 -17.318  1.00  0.00     0.237 C
HETATM   14  O4  UNL     1       8.613 -16.126 -17.911  1.00  0.00    -0.272 OA
HETATM   15  N6  UNL     1       9.477 -16.811 -15.904  1.00  0.00    -0.351 N
HETATM   16  C20 UNL     1       8.460 -16.130 -15.127  1.00  0.00     0.126 C
HETATM   17  C24 UNL     1      10.479 -17.540 -15.134  1.00  0.00     0.126 C
HETATM   18  C21 UNL     1       7.607 -17.220 -14.494  1.00  0.00     0.020 C
HETATM   19  C22 UNL     1       8.252 -18.588 -14.635  1.00  0.00     0.003 C
HETATM   20  C23 UNL     1       9.734 -18.544 -14.290  1.00  0.00     0.020 C
ENDBRANCH  12  13
ENDBRANCH  11  12
BRANCH  11  21
HETATM   21  C25 UNL     1       8.989 -19.370 -18.362  1.00  0.00     0.131 C
BRANCH  21  22
HETATM   22  C26 UNL     1       8.415 -18.677 -19.534  1.00  0.00     0.004 C
HETATM   23  C27 UNL     1       6.924 -18.988 -19.596  1.00  0.00     0.006 C
HETATM   24  C28 UNL     1       6.175 -18.310 -20.661  1.00  0.00     0.000 C
HETATM   25  C29 UNL     1       6.899 -18.109 -21.952  1.00  0.00     0.000 C
HETATM   26  C30 UNL     1       8.367 -18.005 -21.845  1.00  0.00     0.000 C
HETATM   27  C31 UNL     1       8.976 -19.025 -20.879  1.00  0.00     0.006 C
ENDBRANCH  21  22
ENDBRANCH  11  21
ENDBRANCH   8   9
BRANCH   1  28
HETATM   28  C5  UNL     1      12.140 -22.781 -21.057  1.00  0.00     0.181 C
HETATM   29  N1  UNL     1      13.424 -23.024 -21.033  1.00  0.00    -0.374 N
ATOM     30  H1  UNL     1      13.948 -22.809 -20.184  1.00  0.00     0.160 HD
HETATM   31  N2  UNL     1      11.473 -23.098 -22.262  1.00  0.00    -0.077 NA
BRANCH  29  32
HETATM   32  C4  UNL     1      14.133 -23.584 -22.159  1.00  0.00     0.121 C
BRANCH  32  33
HETATM   33  C3  UNL     1      15.332 -24.349 -21.591  1.00  0.00     0.019 C
BRANCH  33  34
HETATM   34  C2  UNL     1      14.843 -25.078 -20.382  1.00  0.00    -0.003 C
HETATM   35  C1  UNL     1      15.949 -25.447 -19.426  1.00  0.00     0.005 C
ENDBRANCH  33  34
ENDBRANCH  32  33
ENDBRANCH  29  32
ENDBRANCH   1  28
BRANCH   6  36
HETATM   36  C8  UNL     1      14.733 -22.468 -16.183  1.00  0.00     0.132 C
BRANCH  36  37
HETATM   37  C9  UNL     1      15.051 -21.721 -14.954  1.00  0.00     0.004 C
HETATM   38  C10 UNL     1      16.328 -20.970 -14.911  1.00  0.00     0.006 C
HETATM   39  C11 UNL     1      17.569 -21.825 -14.794  1.00  0.00     0.000 C
HETATM   40  C12 UNL     1      17.443 -22.910 -13.775  1.00  0.00     0.000 C
HETATM   41  C13 UNL     1      16.144 -23.676 -13.914  1.00  0.00     0.000 C
HETATM   42  C14 UNL     1      15.018 -22.716 -13.790  1.00  0.00     0.006 C
ENDBRANCH  36  37
ENDBRANCH   6  36
TORSDOF 11
ENDMDL