MODEL 4
REMARK VINA RESULT: -9.447554756      2.386      9.463
REMARK  10 active torsions:
REMARK  status: ('A' for Active; 'I' for Inactive)
REMARK    1  A    between atoms: C2_2  and  C5_5
REMARK    2  A    between atoms: N2_18  and  C14_19
REMARK    3  A    between atoms: C14_19  and  C15_20
REMARK    4  A    between atoms: C15_20  and  C16_21
REMARK    5  A    between atoms: C16_21  and  C17_22
REMARK    6  A    between atoms: C17_22  and  C18_23
REMARK    7  A    between atoms: C18_23  and  C19_24
REMARK    8  A    between atoms: C18_23  and  N5_38
REMARK       I    between atoms: C19_24  and  N3_26
REMARK    9  A    between atoms: C25_32  and  C26_33
REMARK   10  A    between atoms: C26_33  and  N4_34
ROOT
HETATM    1  C16 UNL     1      10.992 -20.657 -20.680  1.00  0.00     0.004 C
ENDROOT
BRANCH   1   2
HETATM    2  C15 UNL     1      12.394 -21.162 -20.775  1.00  0.00     0.020 C
BRANCH   2   3
HETATM    3  C14 UNL     1      12.353 -22.666 -21.085  1.00  0.00     0.127 C
BRANCH   3   4
HETATM    4  N2  UNL     1      13.536 -23.328 -20.585  1.00  0.00    -0.333 N
HETATM    5  C8  UNL     1      13.865 -23.507 -19.197  1.00  0.00     0.051 C
HETATM    6  C7  UNL     1      15.095 -22.659 -18.921  1.00  0.00     0.033 C
HETATM    7  C9  UNL     1      12.748 -23.242 -18.249  1.00  0.00     0.033 C
HETATM    8  C11 UNL     1      14.277 -24.974 -19.018  1.00  0.00     0.154 C
HETATM    9  C6  UNL     1      14.591 -21.371 -18.259  1.00  0.00     0.008 C
HETATM   10  C5  UNL     1      14.223 -21.743 -16.859  1.00  0.00    -0.007 C
HETATM   11  C10 UNL     1      13.252 -22.901 -16.885  1.00  0.00     0.008 C
HETATM   12  N1  UNL     1      15.410 -25.322 -19.844  1.00  0.00    -0.351 N
HETATM   13  C12 UNL     1      15.431 -24.885 -21.179  1.00  0.00     0.309 C
ATOM     14  H1  UNL     1      16.179 -25.875 -19.465  1.00  0.00     0.162 HD
HETATM   15  O1  UNL     1      16.232 -25.330 -22.054  1.00  0.00    -0.262 OA
HETATM   16  C13 UNL     1      14.447 -23.844 -21.548  1.00  0.00     0.312 C
HETATM   17  O2  UNL     1      14.480 -23.465 -22.747  1.00  0.00    -0.262 OA
BRANCH  10  18
HETATM   18  C2  UNL     1      13.727 -20.572 -16.076  1.00  0.00    -0.048 C
HETATM   19  C1  UNL     1      12.576 -20.846 -15.166  1.00  0.00     0.015 C
HETATM   20  C3  UNL     1      13.255 -19.530 -17.094  1.00  0.00     0.015 C
HETATM   21  C4  UNL     1      14.880 -19.916 -15.324  1.00  0.00     0.015 C
ENDBRANCH  10  18
ENDBRANCH   3   4
ENDBRANCH   2   3
ENDBRANCH   1   2
BRANCH   1  22
HETATM   22  C17 UNL     1      10.516 -20.269 -19.350  1.00  0.00     0.035 C
BRANCH  22  23
HETATM   23  C18 UNL     1       9.974 -18.915 -19.105  1.00  0.00     0.176 C
BRANCH  23  24
HETATM   24  C19 UNL     1       9.569 -18.883 -17.651  1.00  0.00     0.247 C
HETATM   25  O3  UNL     1       9.759 -19.955 -16.973  1.00  0.00    -0.271 OA
HETATM   26  N3  UNL     1       9.011 -17.801 -16.964  1.00  0.00    -0.318 N
HETATM   27  C20 UNL     1       8.753 -16.486 -17.550  1.00  0.00     0.137 C
HETATM   28  C25 UNL     1       8.620 -17.937 -15.544  1.00  0.00     0.038 C
HETATM   29  C21 UNL     1       7.270 -16.235 -17.527  1.00  0.00     0.009 A
HETATM   30  C22 UNL     1       6.624 -15.173 -16.765  1.00  0.00     0.012 A
HETATM   31  C23 UNL     1       6.639 -16.644 -16.251  1.00  0.00    -0.003 A
HETATM   32  C24 UNL     1       7.601 -16.936 -15.124  1.00  0.00     0.063 C
BRANCH  28  33
HETATM   33  C26 UNL     1       9.707 -18.206 -14.610  1.00  0.00     0.226 C
BRANCH  33  34
HETATM   34  N4  UNL     1      10.722 -17.276 -14.321  1.00  0.00    -0.057 N
HETATM   35  C27 UNL     1      10.294 -15.910 -14.096  1.00  0.00     0.277 C
HETATM   36  C28 UNL     1      11.213 -17.711 -12.979  1.00  0.00     0.277 C
HETATM   37  C29 UNL     1      11.915 -17.323 -15.124  1.00  0.00     0.277 C
ENDBRANCH  33  34
ENDBRANCH  28  33
ENDBRANCH  23  24
BRANCH  23  38
HETATM   38  N5  UNL     1       8.920 -18.451 -19.888  1.00  0.00    -0.380 N
HETATM   39  C30 UNL     1       7.675 -19.145 -19.798  1.00  0.00     0.123 C
HETATM   40  C31 UNL     1       6.787 -18.468 -20.777  1.00  0.00     0.025 C
HETATM   41  C32 UNL     1       7.661 -17.644 -21.678  1.00  0.00     0.046 C
HETATM   42  C33 UNL     1       9.073 -17.934 -21.178  1.00  0.00     0.059 C
ENDBRANCH  23  38
ENDBRANCH  22  23
ENDBRANCH   1  22
TORSDOF 10
ENDMDL