MODEL 5
REMARK VINA RESULT: -9.302788102      2.818      7.938
REMARK  13 active torsions:
REMARK  status: ('A' for Active; 'I' for Inactive)
REMARK    1  A    between atoms: N1_2  and  C2_3
REMARK    2  A    between atoms: N1_2  and  C20_28
REMARK    3  A    between atoms: C2_3  and  C3_4
REMARK    4  A    between atoms: C3_4  and  C4_5
REMARK    5  A    between atoms: C4_5  and  C5_6
REMARK    6  A    between atoms: C5_6  and  N2_7
REMARK       I    between atoms: N2_7  and  C6_8
REMARK    7  A    between atoms: C6_8  and  C7_10
REMARK    8  A    between atoms: N4_19  and  C15_20
REMARK    9  A    between atoms: C15_20  and  O2_21
REMARK   10  A    between atoms: C15_20  and  N5_23
REMARK   11  A    between atoms: C20_28  and  C21_29
REMARK   12  A    between atoms: C21_29  and  N6_30
REMARK   13  A    between atoms: N6_30  and  C23_32
ROOT
HETATM    1  N2  UNL     1      10.432 -18.986 -18.628  1.00  0.00    -0.386 NA
HETATM    2  C6  UNL     1      10.899 -17.802 -18.115  1.00  0.00     0.316 C
HETATM    3  O1  UNL     1      12.073 -17.397 -18.143  1.00  0.00    -0.255 OA
ENDROOT
BRANCH   1   4
HETATM    4  C5  UNL     1       9.967 -20.183 -19.149  1.00  0.00     0.159 C
BRANCH   4   5
HETATM    5  C4  UNL     1      10.389 -21.506 -18.568  1.00  0.00     0.061 C
BRANCH   5   6
HETATM    6  C3  UNL     1      10.443 -22.498 -19.662  1.00  0.00     0.036 C
BRANCH   6   7
HETATM    7  C2  UNL     1      11.148 -22.083 -20.909  1.00  0.00     0.272 C
BRANCH   7   8
HETATM    8  N1  UNL     1      12.551 -22.390 -20.796  1.00  0.00     0.086 N
HETATM    9  C1  UNL     1      12.859 -23.264 -21.935  1.00  0.00     0.309 C
BRANCH   8  10
HETATM   10  C20 UNL     1      13.450 -21.357 -20.648  1.00  0.00     0.302 C
BRANCH  10  11
HETATM   11  C21 UNL     1      14.005 -21.144 -19.273  1.00  0.00     0.303 C
BRANCH  11  12
HETATM   12  N6  UNL     1      14.264 -22.309 -18.508  1.00  0.00     0.095 N
HETATM   13  C22 UNL     1      15.346 -23.064 -19.137  1.00  0.00     0.310 C
BRANCH  12  14
HETATM   14  C23 UNL     1      14.717 -21.922 -17.151  1.00  0.00     0.160 C
HETATM   15  C24 UNL     1      14.940 -20.419 -17.070  1.00  0.00     0.046 C
HETATM   16  C25 UNL     1      15.216 -20.056 -15.626  1.00  0.00    -0.011 C
HETATM   17  C26 UNL     1      14.115 -20.442 -14.683  1.00  0.00     0.009 C
HETATM   18  C30 UNL     1      16.464 -20.770 -15.195  1.00  0.00     0.009 C
HETATM   19  C27 UNL     1      13.935 -21.922 -14.751  1.00  0.00    -0.011 C
HETATM   20  C28 UNL     1      15.187 -22.681 -14.366  1.00  0.00     0.009 C
HETATM   21  C32 UNL     1      13.609 -22.302 -16.192  1.00  0.00     0.046 C
HETATM   22  C29 UNL     1      16.296 -22.246 -15.304  1.00  0.00    -0.011 C
HETATM   23  C31 UNL     1      15.975 -22.619 -16.743  1.00  0.00     0.046 C
ENDBRANCH  12  14
ENDBRANCH  11  12
ENDBRANCH  10  11
ENDBRANCH   8  10
ENDBRANCH   7   8
ENDBRANCH   6   7
ENDBRANCH   5   6
ENDBRANCH   4   5
ENDBRANCH   1   4
BRANCH   2  24
HETATM   24  C7  UNL     1       9.920 -16.893 -17.425  1.00  0.00     0.226 C
HETATM   25  C8  UNL     1       9.831 -17.185 -15.993  1.00  0.00     0.228 C
HETATM   26  C9  UNL     1       8.519 -17.965 -15.943  1.00  0.00     0.039 C
HETATM   27  N3  UNL     1      10.635 -17.969 -15.227  1.00  0.00    -0.068 N
HETATM   28  C10 UNL     1       8.366 -18.038 -14.467  1.00  0.00     0.036 C
HETATM   29  C14 UNL     1       7.700 -16.990 -16.666  1.00  0.00     0.134 C
HETATM   30  C11 UNL     1       9.794 -18.066 -13.985  1.00  0.00     0.237 C
HETATM   31  N4  UNL     1       8.597 -16.796 -17.881  1.00  0.00    -0.330 N
HETATM   32  C12 UNL     1      10.954 -19.311 -15.543  1.00  0.00     0.272 C
HETATM   33  C13 UNL     1      11.875 -17.347 -14.751  1.00  0.00     0.272 C
BRANCH  31  34
HETATM   34  C15 UNL     1       7.968 -16.517 -19.082  1.00  0.00     0.218 C
BRANCH  34  35
HETATM   35  O2  UNL     1       7.815 -15.230 -19.372  1.00  0.00    -0.332 OA
ATOM     36  H2  UNL     1       8.163 -14.950 -20.210  1.00  0.00     0.220 HD
ENDBRANCH  34  35
BRANCH  34  37
HETATM   37  N5  UNL     1       7.453 -17.331 -20.085  1.00  0.00    -0.347 N
HETATM   38  C16 UNL     1       6.236 -18.153 -19.851  1.00  0.00     0.126 C
HETATM   39  C17 UNL     1       5.610 -18.221 -21.200  1.00  0.00     0.021 C
HETATM   40  C18 UNL     1       6.768 -18.219 -22.142  1.00  0.00     0.021 C
HETATM   41  C19 UNL     1       7.916 -17.553 -21.411  1.00  0.00     0.126 C
ENDBRANCH  34  37
ENDBRANCH  31  34
ENDBRANCH   2  24
TORSDOF 13
ENDMDL