MODEL 5
REMARK VINA RESULT: -8.171153313      2.160      3.116
REMARK  9 active torsions:
REMARK  status: ('A' for Active; 'I' for Inactive)
REMARK    1  A    between atoms: C2_2  and  C3_3
REMARK    2  A    between atoms: C3_3  and  C4_4
REMARK    3  A    between atoms: C4_4  and  C5_5
REMARK    4  A    between atoms: C5_5  and  O1_6
REMARK    5  A    between atoms: C5_5  and  C6_9
REMARK    6  A    between atoms: C5_5  and  C9_12
REMARK    7  A    between atoms: O1_6  and  O2_7
REMARK    8  A    between atoms: C11_14  and  O3_15
REMARK    9  A    between atoms: C16_21  and  O4_22
ROOT
HETATM    1  C9  UNL     1     -10.166  -5.497  37.583  1.00  0.00     0.027 C
HETATM    2  C10 UNL     1     -11.488  -4.766  37.403  1.00  0.00     0.039 C
HETATM    3  C11 UNL     1     -12.639  -5.751  37.331  1.00  0.00     0.124 C
HETATM    4  C12 UNL     1     -12.172  -6.940  36.530  1.00  0.00     0.034 C
HETATM    5  C13 UNL     1     -13.340  -7.700  36.017  1.00  0.00    -0.002 C
HETATM    6  C14 UNL     1     -13.363  -7.748  34.482  1.00  0.00     0.008 C
HETATM    7  C15 UNL     1     -14.671  -8.256  33.977  1.00  0.00     0.033 C
HETATM    8  C16 UNL     1     -15.015  -9.572  34.615  1.00  0.00     0.126 C
HETATM    9  C17 UNL     1     -14.914  -9.551  36.117  1.00  0.00    -0.017 C
HETATM   10  C18 UNL     1     -15.958  -8.615  36.654  1.00  0.00     0.018 C
HETATM   11  C19 UNL     1     -15.203 -10.937  36.631  1.00  0.00     0.018 C
HETATM   12  C20 UNL     1     -13.497  -9.097  36.490  1.00  0.00     0.007 C
HETATM   13  C21 UNL     1     -13.214  -9.298  37.939  1.00  0.00     0.085 C
HETATM   14  C22 UNL     1     -11.943  -8.646  38.264  1.00  0.00     0.136 C
HETATM   15  O5  UNL     1     -11.460  -8.894  39.377  1.00  0.00    -0.297 OA
HETATM   16  C23 UNL     1     -11.203  -7.711  37.347  1.00  0.00     0.024 C
HETATM   17  C24 UNL     1     -10.280  -8.580  36.534  1.00  0.00     0.024 C
HETATM   18  C25 UNL     1     -10.391  -6.766  38.275  1.00  0.00     0.025 C
ENDROOT
BRANCH   1  19
HETATM   19  C5  UNL     1      -9.023  -4.604  37.954  1.00  0.00     0.102 C
BRANCH  19  20
HETATM   20  C4  UNL     1      -8.163  -4.386  36.701  1.00  0.00     0.042 C
BRANCH  20  21
HETATM   21  C3  UNL     1      -8.573  -5.068  35.458  1.00  0.00     0.003 C
BRANCH  21  22
HETATM   22  C2  UNL     1      -8.601  -3.988  34.353  1.00  0.00    -0.004 C
HETATM   23  C1  UNL     1      -9.169  -2.709  34.877  1.00  0.00     0.005 C
ENDBRANCH  21  22
ENDBRANCH  20  21
ENDBRANCH  19  20
BRANCH  19  24
HETATM   24  O1  UNL     1      -8.158  -5.406  38.754  1.00  0.00    -0.231 OA
BRANCH  24  25
HETATM   25  O2  UNL     1      -6.908  -5.170  38.523  1.00  0.00    -0.250 OA
ATOM     26  H2  UNL     1      -6.658  -4.280  38.742  1.00  0.00     0.253 HD
ENDBRANCH  24  25
ENDBRANCH  19  24
BRANCH  19  27
HETATM   27  C6  UNL     1      -9.303  -3.400  38.743  1.00  0.00     0.016 C
HETATM   28  C7  UNL     1      -8.448  -2.189  38.523  1.00  0.00     0.012 C
HETATM   29  C8  UNL     1      -9.359  -3.608  40.240  1.00  0.00     0.012 C
ENDBRANCH  19  27
ENDBRANCH   1  19
BRANCH   3  30
HETATM   30  O3  UNL     1     -13.189  -6.059  38.543  1.00  0.00    -0.395 OA
ATOM     31  H3  UNL     1     -14.105  -5.821  38.628  1.00  0.00     0.210 HD
ENDBRANCH   3  30
BRANCH   8  32
HETATM   32  O4  UNL     1     -16.328  -9.889  34.245  1.00  0.00    -0.395 OA
ATOM     33  H4  UNL     1     -16.907  -9.533  34.909  1.00  0.00     0.210 HD
ENDBRANCH   8  32
TORSDOF 9
ENDMDL