MODEL 5
REMARK VINA RESULT: -8.259610053      1.205      1.519
REMARK  8 active torsions:
REMARK  status: ('A' for Active; 'I' for Inactive)
REMARK    1  A    between atoms: C2_2  and  C3_3
REMARK    2  A    between atoms: C3_3  and  C4_4
REMARK    3  A    between atoms: C4_4  and  N1_5
REMARK    4  A    between atoms: N1_5  and  C5_7
REMARK    5  A    between atoms: C6_10  and  N3_11
REMARK    6  A    between atoms: N3_11  and  C7_13
REMARK    7  A    between atoms: N5_19  and  C11_20
REMARK    8  A    between atoms: C14_23  and  C15_24
ROOT
HETATM    1  C5  UNL     1     -12.116  -3.723  38.089  1.00  0.00     0.680 A
HETATM    2  N2  UNL     1     -10.845  -3.305  38.133  1.00  0.00    -0.175 N
ATOM      3  H2  UNL     1     -10.619  -2.431  38.607  1.00  0.00     0.186 HD
HETATM    4  C6  UNL     1      -9.849  -4.031  37.552  1.00  0.00     0.148 A
HETATM    5  C10 UNL     1     -10.247  -5.191  36.936  1.00  0.00     0.122 A
HETATM    6  N4  UNL     1      -9.548  -6.117  36.308  1.00  0.00    -0.288 N
ATOM      7  H4  UNL     1      -8.537  -6.083  36.176  1.00  0.00     0.188 HD
HETATM    8  N5  UNL     1     -10.344  -7.124  35.856  1.00  0.00    -0.260 N
HETATM    9  C14 UNL     1     -11.602  -6.860  36.195  1.00  0.00     0.112 A
HETATM   10  C21 UNL     1     -11.557  -5.632  36.885  1.00  0.00     0.112 A
HETATM   11  N7  UNL     1     -12.495  -4.887  37.469  1.00  0.00    -0.187 N
ATOM     12  H7  UNL     1     -13.473  -5.175  37.456  1.00  0.00     0.184 HD
ENDROOT
BRANCH   9  13
HETATM   13  C15 UNL     1     -12.833  -7.574  35.856  1.00  0.00     0.065 A
HETATM   14  C16 UNL     1     -13.432  -7.809  34.634  1.00  0.00     0.046 A
HETATM   15  C17 UNL     1     -14.556  -8.641  34.766  1.00  0.00     0.000 A
HETATM   16  C18 UNL     1     -15.509  -9.202  33.977  1.00  0.00     0.021 A
HETATM   17  C20 UNL     1     -14.617  -8.902  36.096  1.00  0.00     0.084 A
HETATM   18  C19 UNL     1     -16.448  -9.982  34.598  1.00  0.00     0.053 A
HETATM   19  S1  UNL     1     -15.985  -9.913  36.238  1.00  0.00    -0.083 SA
HETATM   20  N6  UNL     1     -13.600  -8.273  36.751  1.00  0.00    -0.348 N
ATOM     21  H6  UNL     1     -13.435  -8.316  37.756  1.00  0.00     0.166 HD
ENDBRANCH   9  13
BRANCH   8  22
HETATM   22  C11 UNL     1      -9.791  -8.232  35.109  1.00  0.00     0.005 C
HETATM   23  C12 UNL     1     -10.039  -9.584  35.739  1.00  0.00     0.065 C
HETATM   24  C13 UNL     1      -9.960  -8.173  33.632  1.00  0.00     0.065 C
ENDBRANCH   8  22
BRANCH   4  25
HETATM   25  N3  UNL     1      -8.668  -3.571  37.634  1.00  0.00    -0.370 N
ATOM     26  H3  UNL     1      -8.245  -3.276  36.754  1.00  0.00     0.161 HD
BRANCH  25  27
HETATM   27  C7  UNL     1      -7.852  -3.411  38.800  1.00  0.00     0.075 C
HETATM   28  C8  UNL     1      -7.238  -2.002  38.672  1.00  0.00     0.031 C
HETATM   29  C9  UNL     1      -6.757  -4.455  38.782  1.00  0.00     0.031 C
ENDBRANCH  25  27
ENDBRANCH   4  25
BRANCH   1  30
HETATM   30  N1  UNL     1     -13.048  -3.032  38.640  1.00  0.00    -0.226 N
ATOM     31  H1  UNL     1     -13.165  -2.064  38.340  1.00  0.00     0.177 HD
BRANCH  30  32
HETATM   32  C4  UNL     1     -13.935  -3.530  39.646  1.00  0.00     0.138 C
BRANCH  32  33
HETATM   33  C3  UNL     1     -15.338  -3.620  39.092  1.00  0.00     0.020 C
BRANCH  33  34
HETATM   34  C2  UNL     1     -15.887  -2.224  38.882  1.00  0.00    -0.003 C
HETATM   35  C1  UNL     1     -17.379  -2.180  38.979  1.00  0.00     0.005 C
ENDBRANCH  33  34
ENDBRANCH  32  33
ENDBRANCH  30  32
ENDBRANCH   1  30
TORSDOF 8
ENDMDL