MODEL 4
REMARK VINA RESULT: -9.151409902      1.970      6.309
REMARK  10 active torsions:
REMARK  status: ('A' for Active; 'I' for Inactive)
REMARK    1  A    between atoms: O1_2  and  C2_3
REMARK    2  A    between atoms: C2_3  and  O2_4
REMARK    3  A    between atoms: C2_3  and  C3_6
REMARK    4  A    between atoms: C3_6  and  C4_7
REMARK    5  A    between atoms: C4_7  and  C5_8
REMARK    6  A    between atoms: C5_8  and  C6_9
REMARK    7  A    between atoms: C6_9  and  C7_10
REMARK    8  A    between atoms: C7_10  and  C9_12
REMARK    9  A    between atoms: C19_22  and  O3_23
REMARK   10  A    between atoms: N1_26  and  O4_28
ROOT
HETATM    1  C9  UNL     1     -13.525  -7.223  39.174  1.00  0.00    -0.073 C
HETATM    2  C10 UNL     1     -12.887  -6.145  38.752  1.00  0.00    -0.073 C
HETATM    3  C11 UNL     1     -12.539  -5.620  37.398  1.00  0.00     0.035 C
HETATM    4  C12 UNL     1     -11.081  -5.270  37.293  1.00  0.00     0.011 C
HETATM    5  C13 UNL     1     -10.394  -4.967  38.570  1.00  0.00     0.009 C
HETATM    6  C14 UNL     1     -11.279  -4.504  39.698  1.00  0.00     0.003 C
HETATM    7  C15 UNL     1     -10.484  -4.439  40.968  1.00  0.00     0.033 C
HETATM    8  C16 UNL     1      -9.269  -3.625  40.756  1.00  0.00    -0.022 C
HETATM    9  C17 UNL     1      -8.825  -3.329  39.566  1.00  0.00    -0.066 C
HETATM   10  C18 UNL     1      -7.640  -2.538  39.059  1.00  0.00     0.073 C
HETATM   11  C19 UNL     1      -7.076  -3.552  38.056  1.00  0.00     0.170 C
HETATM   12  C20 UNL     1      -8.316  -4.155  37.470  1.00  0.00     0.051 C
HETATM   13  N1  UNL     1      -8.380  -4.897  36.417  1.00  0.00    -0.274 N
ATOM     14  H1  UNL     1      -9.277  -5.261  36.098  1.00  0.00     0.193 HD
HETATM   15  C21 UNL     1      -9.477  -3.767  38.288  1.00  0.00     0.026 C
HETATM   16  C22 UNL     1     -10.230  -2.606  37.709  1.00  0.00     0.027 C
HETATM   17  C23 UNL     1     -12.485  -5.353  39.940  1.00  0.00     0.020 C
HETATM   18  C24 UNL     1     -12.337  -6.387  41.011  1.00  0.00     0.014 C
HETATM   19  C25 UNL     1     -13.572  -7.259  40.688  1.00  0.00     0.035 C
ENDROOT
BRANCH   1  20
HETATM   20  C7  UNL     1     -14.116  -8.286  38.298  1.00  0.00     0.011 C
HETATM   21  C8  UNL     1     -15.564  -7.868  38.018  1.00  0.00     0.015 C
BRANCH  20  22
HETATM   22  C6  UNL     1     -13.435  -8.338  36.960  1.00  0.00     0.009 C
BRANCH  22  23
HETATM   23  C5  UNL     1     -12.370  -9.381  36.840  1.00  0.00     0.001 C
BRANCH  23  24
HETATM   24  C4  UNL     1     -11.058  -8.849  36.359  1.00  0.00     0.005 C
BRANCH  24  25
HETATM   25  C3  UNL     1     -11.106  -8.195  35.017  1.00  0.00     0.060 C
BRANCH  25  26
HETATM   26  C2  UNL     1      -9.776  -8.012  34.352  1.00  0.00     0.256 C
BRANCH  26  27
HETATM   27  O1  UNL     1      -9.431  -6.690  34.214  1.00  0.00    -0.366 OA
HETATM   28  C1  UNL     1     -10.334  -5.897  33.558  1.00  0.00     0.204 C
ENDBRANCH  26  27
BRANCH  26  29
HETATM   29  O2  UNL     1      -8.821  -8.571  35.237  1.00  0.00    -0.371 OA
ATOM     30  H2  UNL     1      -8.840  -8.029  36.016  1.00  0.00     0.212 HD
ENDBRANCH  26  29
ENDBRANCH  25  26
ENDBRANCH  24  25
ENDBRANCH  23  24
ENDBRANCH  22  23
ENDBRANCH  20  22
ENDBRANCH   1  20
BRANCH  11  31
HETATM   31  O3  UNL     1      -6.325  -4.491  38.731  1.00  0.00    -0.389 OA
ATOM     32  H3  UNL     1      -5.946  -4.092  39.505  1.00  0.00     0.210 HD
ENDBRANCH  11  31
BRANCH  13  33
HETATM   33  O4  UNL     1      -7.244  -5.191  35.738  1.00  0.00    -0.290 OA
ATOM     34  H4  UNL     1      -7.069  -6.090  35.485  1.00  0.00     0.244 HD
ENDBRANCH  13  33
TORSDOF 10
ENDMDL