MODEL 3
REMARK VINA RESULT: -7.574878659      1.688      4.316
REMARK  9 active torsions:
REMARK  status: ('A' for Active; 'I' for Inactive)
REMARK    1  A    between atoms: C2_2  and  S1_3
REMARK    2  A    between atoms: S1_3  and  C3_4
REMARK    3  A    between atoms: C3_4  and  C4_5
REMARK    4  A    between atoms: C3_4  and  C14_24
REMARK    5  A    between atoms: C5_6  and  C6_7
REMARK    6  A    between atoms: C9_10  and  C10_11
REMARK    7  A    between atoms: C12_13  and  N1_14
REMARK    8  A    between atoms: C14_24  and  C15_25
REMARK    9  A    between atoms: C15_25  and  N4_26
ROOT
HETATM    1  C6  UNL     1     -15.360  -8.985  36.373  1.00  0.00     0.059 A
HETATM    2  C7  UNL     1     -16.189  -8.566  37.380  1.00  0.00     0.029 A
HETATM    3  C8  UNL     1     -17.502  -8.749  37.209  1.00  0.00     0.023 A
HETATM    4  C9  UNL     1     -17.920  -9.340  36.048  1.00  0.00     0.033 A
HETATM    5  S3  UNL     1     -16.443  -9.622  35.224  1.00  0.00    -0.079 SA
ENDROOT
BRANCH   1   6
HETATM    6  C5  UNL     1     -13.906  -8.879  36.328  1.00  0.00    -0.058 C
HETATM    7  C4  UNL     1     -12.708  -8.768  36.311  1.00  0.00    -0.085 C
BRANCH   7   8
HETATM    8  C3  UNL     1     -11.240  -8.605  36.312  1.00  0.00     0.131 C
BRANCH   8   9
HETATM    9  S1  UNL     1     -10.440 -10.218  35.985  1.00  0.00    -0.152 SA
BRANCH   9  10
HETATM   10  C2  UNL     1     -11.578 -11.265  35.016  1.00  0.00     0.070 C
HETATM   11  C1  UNL     1     -11.530 -10.820  33.590  1.00  0.00     0.016 C
ENDBRANCH   9  10
ENDBRANCH   8   9
BRANCH   8  12
HETATM   12  C14 UNL     1     -10.837  -8.172  37.693  1.00  0.00     0.073 C
BRANCH  12  13
HETATM   13  C15 UNL     1     -10.696  -6.664  37.823  1.00  0.00     0.070 C
BRANCH  13  14
HETATM   14  N4  UNL     1     -11.449  -6.070  38.822  1.00  0.00    -0.354 N
HETATM   15  C16 UNL     1     -12.848  -6.141  38.716  1.00  0.00     0.068 C
HETATM   16  C17 UNL     1     -13.535  -6.669  39.955  1.00  0.00     0.045 C
HETATM   17  C18 UNL     1     -12.660  -6.463  41.144  1.00  0.00     0.010 C
HETATM   18  C19 UNL     1     -11.854  -5.186  41.057  1.00  0.00     0.045 C
HETATM   19  C20 UNL     1     -10.890  -5.370  39.886  1.00  0.00     0.068 C
ENDBRANCH  13  14
ENDBRANCH  12  13
ENDBRANCH   8  12
ENDBRANCH   7   8
ENDBRANCH   1   6
BRANCH   4  20
HETATM   20  C10 UNL     1     -19.290  -9.631  35.612  1.00  0.00     0.055 A
HETATM   21  C11 UNL     1     -19.860  -8.871  34.653  1.00  0.00     0.079 A
HETATM   22  C12 UNL     1     -21.164  -9.210  34.261  1.00  0.00     0.102 A
HETATM   23  N2  UNL     1     -21.819 -10.246  34.816  1.00  0.00    -0.320 N
HETATM   24  C13 UNL     1     -21.216 -10.977  35.768  1.00  0.00     0.177 A
ATOM     25  H2  UNL     1     -22.766 -10.475  34.516  1.00  0.00     0.169 HD
HETATM   26  S2  UNL     1     -22.013 -12.232  36.437  1.00  0.00    -0.040 SA
HETATM   27  N3  UNL     1     -19.945 -10.656  36.157  1.00  0.00    -0.332 N
ATOM     28  H3  UNL     1     -19.488 -11.213  36.880  1.00  0.00     0.168 HD
BRANCH  22  29
HETATM   29  N1  UNL     1     -21.796  -8.552  33.352  1.00  0.00    -0.385 N
ATOM     30  H12 UNL     1     -21.223  -8.070  32.659  1.00  0.00     0.157 HD
ATOM     31  H11 UNL     1     -22.815  -8.509  33.326  1.00  0.00     0.157 HD
ENDBRANCH  22  29
ENDBRANCH   4  20
TORSDOF 9
ENDMDL