MODEL 5
REMARK VINA RESULT: -8.057997871      5.249      7.508
REMARK  10 active torsions:
REMARK  status: ('A' for Active; 'I' for Inactive)
REMARK    1  A    between atoms: C4_5  and  C6_7
REMARK    2  A    between atoms: C6_7  and  O2_8
REMARK    3  A    between atoms: O2_8  and  O3_9
REMARK    4  A    between atoms: C12_16  and  C13_17
REMARK    5  A    between atoms: C13_17  and  O4_18
REMARK    6  A    between atoms: C13_17  and  C14_20
REMARK    7  A    between atoms: C14_20  and  C15_21
REMARK    8  A    between atoms: C15_21  and  C16_22
REMARK    9  A    between atoms: C16_22  and  C17_23
REMARK   10  A    between atoms: C17_23  and  O5_26
ROOT
HETATM    1  C1  UNL     1     -10.542  -3.539  38.103  1.00  0.00     0.017 C
HETATM    2  C2  UNL     1     -11.798  -3.876  38.327  1.00  0.00    -0.057 C
HETATM    3  C3  UNL     1     -12.436  -4.863  37.422  1.00  0.00     0.203 C
HETATM    4  O1  UNL     1     -13.243  -5.762  38.042  1.00  0.00    -0.374 OA
HETATM    5  C4  UNL     1     -13.406  -5.649  39.391  1.00  0.00     0.086 C
HETATM    6  C5  UNL     1     -14.687  -6.424  39.764  1.00  0.00     0.049 C
HETATM    7  C7  UNL     1     -13.703  -4.218  39.737  1.00  0.00     0.035 C
HETATM    8  C8  UNL     1     -14.998  -3.887  39.086  1.00  0.00     0.009 C
HETATM    9  C9  UNL     1     -15.135  -2.533  38.476  1.00  0.00     0.010 C
HETATM   10  C10 UNL     1     -14.389  -1.509  39.249  1.00  0.00    -0.033 C
HETATM   11  C11 UNL     1     -14.926  -1.507  40.666  1.00  0.00     0.016 C
HETATM   12  C12 UNL     1     -14.444  -0.114  38.729  1.00  0.00     0.023 C
HETATM   13  C20 UNL     1     -13.104   0.155  38.169  1.00  0.00     0.008 C
HETATM   14  C21 UNL     1     -12.458  -1.205  38.030  1.00  0.00     0.007 C
HETATM   15  C22 UNL     1     -12.919  -1.865  39.319  1.00  0.00     0.007 C
HETATM   16  C23 UNL     1     -12.567  -3.275  39.483  1.00  0.00    -0.008 C
HETATM   17  C24 UNL     1     -11.614  -3.378  40.674  1.00  0.00     0.021 C
ENDROOT
BRANCH  12  18
HETATM   18  C13 UNL     1     -15.502   0.206  37.746  1.00  0.00     0.123 C
BRANCH  18  19
HETATM   19  O4  UNL     1     -16.813   0.122  38.250  1.00  0.00    -0.395 OA
ATOM     20  H4  UNL     1     -16.889  -0.348  39.073  1.00  0.00     0.210 HD
ENDBRANCH  18  19
BRANCH  18  21
HETATM   21  C14 UNL     1     -15.370   1.626  37.242  1.00  0.00     0.032 C
BRANCH  21  22
HETATM   22  C15 UNL     1     -15.543   1.772  35.767  1.00  0.00     0.006 C
BRANCH  22  23
HETATM   23  C16 UNL     1     -15.186   0.408  35.160  1.00  0.00     0.037 C
BRANCH  23  24
HETATM   24  C17 UNL     1     -14.043   0.549  34.177  1.00  0.00     0.051 C
HETATM   25  C18 UNL     1     -13.400   1.896  34.446  1.00  0.00     0.045 C
HETATM   26  C19 UNL     1     -12.989  -0.502  34.356  1.00  0.00     0.045 C
BRANCH  24  27
HETATM   27  O5  UNL     1     -14.489   0.547  32.865  1.00  0.00    -0.391 OA
ATOM     28  H5  UNL     1     -14.299  -0.275  32.429  1.00  0.00     0.210 HD
ENDBRANCH  24  27
ENDBRANCH  23  24
ENDBRANCH  22  23
ENDBRANCH  21  22
ENDBRANCH  18  21
ENDBRANCH  12  18
BRANCH   5  29
HETATM   29  C6  UNL     1     -12.319  -6.303  40.170  1.00  0.00     0.247 C
BRANCH  29  30
HETATM   30  O2  UNL     1     -12.790  -7.611  40.460  1.00  0.00    -0.240 OA
BRANCH  30  31
HETATM   31  O3  UNL     1     -12.511  -7.905  41.707  1.00  0.00    -0.251 OA
ATOM     32  H3  UNL     1     -11.690  -8.381  41.741  1.00  0.00     0.253 HD
ENDBRANCH  30  31
ENDBRANCH  29  30
ENDBRANCH   5  29
TORSDOF 10
ENDMDL