MODEL 4
REMARK VINA RESULT: -8.923561317      1.230      1.891
REMARK  8 active torsions:
REMARK  status: ('A' for Active; 'I' for Inactive)
REMARK    1  A    between atoms: C4_4  and  C5_5
REMARK    2  A    between atoms: C5_5  and  C6_6
REMARK    3  A    between atoms: C8_8  and  C9_9
REMARK    4  A    between atoms: C9_9  and  C10_11
REMARK    5  A    between atoms: C10_11  and  C12_13
REMARK    6  A    between atoms: C19_20  and  O2_21
REMARK    7  A    between atoms: C19_20  and  C20_23
REMARK    8  A    between atoms: C24_29  and  O5_30
ROOT
HETATM    1  C12 UNL     1     -11.902  -4.929  38.443  1.00  0.00     0.005 C
HETATM    2  C13 UNL     1     -10.864  -5.757  39.139  1.00  0.00     0.007 C
HETATM    3  C14 UNL     1      -9.601  -4.873  39.102  1.00  0.00     0.009 C
HETATM    4  C15 UNL     1      -9.123  -5.021  37.663  1.00  0.00     0.036 C
HETATM    5  C16 UNL     1     -10.145  -4.769  36.636  1.00  0.00     0.001 C
HETATM    6  C17 UNL     1      -9.548  -3.640  35.817  1.00  0.00     0.009 C
HETATM    7  C18 UNL     1      -8.474  -3.006  36.657  1.00  0.00     0.050 C
HETATM    8  C19 UNL     1      -7.899  -4.189  37.375  1.00  0.00     0.149 C
HETATM    9  C21 UNL     1     -11.558  -4.521  37.050  1.00  0.00    -0.039 C
HETATM   10  C22 UNL     1     -11.922  -3.027  36.883  1.00  0.00     0.015 C
HETATM   11  C23 UNL     1     -12.455  -5.180  36.005  1.00  0.00     0.015 C
ENDROOT
BRANCH   1  12
HETATM   12  C10 UNL     1     -13.320  -5.309  38.701  1.00  0.00     0.061 C
HETATM   13  C11 UNL     1     -14.042  -4.157  39.356  1.00  0.00     0.018 C
BRANCH  12  14
HETATM   14  C9  UNL     1     -13.551  -6.536  39.415  1.00  0.00     0.168 C
HETATM   15  O1  UNL     1     -13.446  -6.580  40.670  1.00  0.00    -0.292 OA
BRANCH  14  16
HETATM   16  C8  UNL     1     -13.916  -7.766  38.741  1.00  0.00     0.071 A
HETATM   17  C7  UNL     1     -14.413  -7.881  37.424  1.00  0.00     0.053 A
HETATM   18  C6  UNL     1     -14.627  -9.206  37.130  1.00  0.00     0.060 A
HETATM   19  O6  UNL     1     -14.294  -9.885  38.175  1.00  0.00    -0.291 OA
HETATM   20  C24 UNL     1     -13.871  -9.083  39.144  1.00  0.00     0.197 A
BRANCH  18  21
HETATM   21  C5  UNL     1     -15.152  -9.756  35.832  1.00  0.00     0.092 C
BRANCH  21  22
HETATM   22  C4  UNL     1     -16.445  -9.122  35.511  1.00  0.00    -0.018 C
HETATM   23  C2  UNL     1     -17.419  -9.791  34.922  1.00  0.00    -0.091 C
HETATM   24  C1  UNL     1     -17.231 -11.222  34.563  1.00  0.00     0.042 C
HETATM   25  C3  UNL     1     -18.724  -9.157  34.597  1.00  0.00     0.042 C
ENDBRANCH  21  22
ENDBRANCH  18  21
BRANCH  20  26
HETATM   26  O5  UNL     1     -13.467  -9.577  40.350  1.00  0.00    -0.340 OA
ATOM     27  H5  UNL     1     -13.113 -10.439  40.538  1.00  0.00     0.220 HD
ENDBRANCH  20  26
ENDBRANCH  14  16
ENDBRANCH  12  14
ENDBRANCH   1  12
BRANCH   8  28
HETATM   28  O2  UNL     1      -7.132  -4.901  36.422  1.00  0.00    -0.378 OA
ATOM     29  H2  UNL     1      -7.194  -4.423  35.604  1.00  0.00     0.211 HD
ENDBRANCH   8  28
BRANCH   8  30
HETATM   30  C20 UNL     1      -7.078  -3.858  38.522  1.00  0.00     0.209 C
HETATM   31  O3  UNL     1      -7.003  -2.686  38.948  1.00  0.00    -0.646 OA
HETATM   32  O4  UNL     1      -6.354  -4.833  39.178  1.00  0.00    -0.646 OA
ENDBRANCH   8  30
TORSDOF 8
ENDMDL