MODEL 1
REMARK VINA RESULT: -9.826478590      0.000      0.000
REMARK  7 active torsions:
REMARK  status: ('A' for Active; 'I' for Inactive)
REMARK    1  A    between atoms: C2_2  and  N1_3
REMARK    2  A    between atoms: C2_2  and  C22_30
REMARK    3  A    between atoms: N1_3  and  C3_5
REMARK    4  A    between atoms: C4_6  and  N2_7
REMARK    5  A    between atoms: N2_7  and  C5_9
REMARK    6  A    between atoms: C8_12  and  C9_13
REMARK    7  A    between atoms: C14_20  and  C15_21
ROOT
HETATM    1  C5  UNL     1     -11.060  -7.786  35.831  1.00  0.00     0.033 A
HETATM    2  C6  UNL     1     -11.813  -8.245  34.768  1.00  0.00     0.030 A
HETATM    3  C7  UNL     1     -13.133  -8.592  34.966  1.00  0.00     0.010 A
HETATM    4  C8  UNL     1     -13.757  -8.496  36.222  1.00  0.00    -0.045 A
HETATM    5  C14 UNL     1     -13.010  -8.041  37.258  1.00  0.00    -0.041 A
HETATM    6  C19 UNL     1     -11.655  -7.686  37.060  1.00  0.00     0.038 A
ENDROOT
BRANCH   1   7
HETATM    7  N2  UNL     1      -9.724  -7.415  35.547  1.00  0.00    -0.351 N
ATOM      8  H2  UNL     1      -8.990  -8.118  35.633  1.00  0.00     0.166 HD
BRANCH   7   9
HETATM    9  C4  UNL     1      -9.369  -6.105  35.149  1.00  0.00     0.118 A
HETATM   10  C3  UNL     1      -8.914  -5.002  35.876  1.00  0.00     0.114 A
HETATM   11  C21 UNL     1      -8.895  -4.257  34.736  1.00  0.00     0.252 A
HETATM   12  C20 UNL     1      -9.349  -5.355  34.008  1.00  0.00     0.253 A
HETATM   13  O2  UNL     1      -8.591  -3.069  34.468  1.00  0.00    -0.281 OA
HETATM   14  O1  UNL     1      -9.601  -5.481  32.804  1.00  0.00    -0.281 OA
BRANCH  10  15
HETATM   15  N1  UNL     1      -8.608  -4.778  37.243  1.00  0.00    -0.380 N
ATOM     16  H1  UNL     1      -8.358  -5.563  37.846  1.00  0.00     0.160 HD
BRANCH  15  17
HETATM   17  C2  UNL     1      -8.652  -3.449  37.775  1.00  0.00     0.085 C
HETATM   18  C1  UNL     1     -10.040  -2.974  38.030  1.00  0.00     0.033 C
BRANCH  17  19
HETATM   19  C22 UNL     1      -7.756  -3.304  39.000  1.00  0.00    -0.031 C
HETATM   20  C23 UNL     1      -7.145  -1.936  39.052  1.00  0.00     0.016 C
HETATM   21  C24 UNL     1      -6.677  -4.375  38.903  1.00  0.00     0.016 C
HETATM   22  C25 UNL     1      -8.546  -3.579  40.256  1.00  0.00     0.016 C
ENDBRANCH  17  19
ENDBRANCH  15  17
ENDBRANCH  10  15
ENDBRANCH   7   9
ENDBRANCH   1   7
BRANCH   5  23
HETATM   23  C15 UNL     1     -13.561  -7.838  38.612  1.00  0.00    -0.016 A
HETATM   24  C16 UNL     1     -14.791  -6.966  38.790  1.00  0.00     0.020 C
HETATM   25  C17 UNL     1     -12.600  -7.878  39.769  1.00  0.00     0.015 A
HETATM   26  C18 UNL     1     -13.506  -9.028  39.540  1.00  0.00     0.015 A
ENDBRANCH   5  23
BRANCH   4  27
HETATM   27  C9  UNL     1     -15.128  -8.948  36.355  1.00  0.00     0.036 C
HETATM   28  C10 UNL     1     -15.839  -8.887  34.960  1.00  0.00     0.012 C
HETATM   29  C11 UNL     1     -17.308  -9.115  35.227  1.00  0.00     0.020 C
HETATM   30  C12 UNL     1     -17.558  -9.658  36.589  1.00  0.00     0.113 C
HETATM   31  N3  UNL     1     -16.642 -10.668  37.008  1.00  0.00    -0.420 N
HETATM   32  C13 UNL     1     -15.266 -10.450  36.649  1.00  0.00     0.123 C
ATOM     33  H3  UNL     1     -16.944 -11.491  37.528  1.00  0.00     0.153 HD
ENDBRANCH   4  27
TORSDOF 7
ENDMDL