MODEL 1
REMARK VINA RESULT: -8.290240955      0.000      0.000
REMARK  9 active torsions:
REMARK  status: ('A' for Active; 'I' for Inactive)
REMARK    1  A    between atoms: C2_2  and  C3_3
REMARK    2  A    between atoms: C3_3  and  C4_4
REMARK    3  A    between atoms: C3_3  and  O4_29
REMARK    4  A    between atoms: C4_4  and  C5_5
REMARK    5  A    between atoms: C9_11  and  O1_12
REMARK    6  A    between atoms: C15_19  and  O2_20
REMARK    7  A    between atoms: O2_20  and  C16_21
REMARK       I    between atoms: C16_21  and  N2_23
REMARK    8  A    between atoms: N2_23  and  C17_25
REMARK    9  A    between atoms: O4_29  and  C21_30
ROOT
HETATM    1  C5  UNL     1     -11.837  -8.339  36.843  1.00  0.00     0.033 C
HETATM    2  C6  UNL     1     -11.795  -9.693  36.338  1.00  0.00     0.006 A
HETATM    3  C7  UNL     1     -13.055 -10.123  35.996  1.00  0.00    -0.023 A
HETATM    4  C8  UNL     1     -12.942 -11.408  35.534  1.00  0.00     0.099 A
HETATM    5  N1  UNL     1     -11.666 -11.811  35.562  1.00  0.00    -0.346 N
ATOM      6  H1  UNL     1     -11.297 -12.718  35.276  1.00  0.00     0.167 HD
HETATM    7  C9  UNL     1     -10.969 -10.756  36.052  1.00  0.00     0.147 A
HETATM    8  C10 UNL     1     -14.023  -9.008  36.203  1.00  0.00    -0.008 C
HETATM    9  C11 UNL     1     -14.844  -9.314  37.416  1.00  0.00     0.021 C
HETATM   10  C12 UNL     1     -14.993  -9.035  35.041  1.00  0.00     0.014 C
HETATM   11  C13 UNL     1     -14.201  -8.791  33.784  1.00  0.00     0.004 C
HETATM   12  C14 UNL     1     -13.798  -7.346  33.858  1.00  0.00     0.033 C
HETATM   13  C15 UNL     1     -12.924  -7.018  35.031  1.00  0.00     0.139 C
HETATM   14  C20 UNL     1     -13.184  -7.785  36.266  1.00  0.00     0.037 C
ENDROOT
BRANCH   1  15
HETATM   15  C4  UNL     1     -11.832  -8.172  38.305  1.00  0.00     0.042 C
BRANCH  15  16
HETATM   16  C3  UNL     1     -12.103  -6.890  38.976  1.00  0.00     0.132 C
BRANCH  16  17
HETATM   17  C2  UNL     1     -13.319  -7.171  39.982  1.00  0.00     0.028 C
HETATM   18  C1  UNL     1     -14.411  -6.254  39.525  1.00  0.00     0.007 C
ENDBRANCH  16  17
BRANCH  16  19
HETATM   19  O4  UNL     1     -11.157  -6.370  39.853  1.00  0.00    -0.316 OA
BRANCH  19  20
HETATM   20  C21 UNL     1     -10.345  -5.280  39.457  1.00  0.00     0.255 C
HETATM   21  C22 UNL     1     -10.269  -4.156  40.421  1.00  0.00     0.126 C
HETATM   22  O5  UNL     1      -9.744  -5.298  38.358  1.00  0.00    -0.266 OA
ENDBRANCH  19  20
ENDBRANCH  16  19
ENDBRANCH  15  16
ENDBRANCH   1  15
BRANCH   7  23
HETATM   23  O1  UNL     1      -9.586 -10.852  36.197  1.00  0.00    -0.346 OA
ATOM     24  H1  UNL     1      -9.029 -10.471  36.865  1.00  0.00     0.219 HD
ENDBRANCH   7  23
BRANCH  13  25
HETATM   25  O2  UNL     1     -11.572  -6.852  34.724  1.00  0.00    -0.298 OA
BRANCH  25  26
HETATM   26  C16 UNL     1     -10.910  -5.690  34.419  1.00  0.00     0.361 C
HETATM   27  O3  UNL     1     -11.160  -5.249  33.273  1.00  0.00    -0.238 OA
HETATM   28  N2  UNL     1     -10.017  -5.023  35.302  1.00  0.00    -0.333 N
ATOM     29  H2  UNL     1      -9.823  -5.392  36.233  1.00  0.00     0.165 HD
BRANCH  28  30
HETATM   30  C17 UNL     1      -9.395  -3.805  34.835  1.00  0.00     0.078 C
HETATM   31  C18 UNL     1      -9.332  -2.751  35.929  1.00  0.00     0.032 C
HETATM   32  C19 UNL     1      -8.007  -4.163  34.362  1.00  0.00     0.032 C
ENDBRANCH  28  30
ENDBRANCH  25  26
ENDBRANCH  13  25
TORSDOF 9
ENDMDL