MODEL 2
REMARK VINA RESULT: -9.187976467      2.641      3.935
REMARK  7 active torsions:
REMARK  status: ('A' for Active; 'I' for Inactive)
REMARK    1  A    between atoms: C2_2  and  C3_3
REMARK    2  A    between atoms: C4_4  and  C5_5
REMARK    3  A    between atoms: C13_15  and  C14_16
REMARK    4  A    between atoms: C14_16  and  C15_17
REMARK    5  A    between atoms: C15_17  and  C17_19
REMARK    6  A    between atoms: C18_20  and  C19_21
REMARK    7  A    between atoms: C20_22  and  O2_23
ROOT
HETATM    1  C14 UNL     1     -13.402  -6.603  40.221  1.00  0.00     0.035 C
ENDROOT
BRANCH   1   2
HETATM    2  C13 UNL     1     -12.370  -5.933  39.433  1.00  0.00    -0.019 C
HETATM    3  C2  UNL     1     -11.491  -5.042  39.897  1.00  0.00    -0.066 C
HETATM    4  C1  UNL     1     -11.540  -4.673  41.335  1.00  0.00     0.048 C
BRANCH   3   5
HETATM    5  C3  UNL     1     -10.524  -4.465  38.989  1.00  0.00     0.003 C
HETATM    6  C4  UNL     1      -9.685  -5.129  38.237  1.00  0.00    -0.013 C
BRANCH   6   7
HETATM    7  C5  UNL     1      -8.718  -4.419  37.324  1.00  0.00     0.019 C
HETATM    8  C6  UNL     1      -8.603  -5.189  36.060  1.00  0.00     0.017 C
HETATM    9  C7  UNL     1      -8.128  -4.379  34.885  1.00  0.00     0.001 C
HETATM   10  C8  UNL     1      -8.820  -3.066  34.733  1.00  0.00     0.003 C
HETATM   11  C9  UNL     1      -9.863  -2.822  35.803  1.00  0.00     0.035 C
HETATM   12  C10 UNL     1      -9.168  -2.990  37.138  1.00  0.00     0.159 C
HETATM   13  O1  UNL     1      -7.986  -2.296  37.101  1.00  0.00    -0.297 OA
HETATM   14  N1  UNL     1      -7.107  -2.865  37.920  1.00  0.00    -0.200 NA
HETATM   15  C11 UNL     1      -6.960  -2.142  39.144  1.00  0.00     0.143 C
HETATM   16  C12 UNL     1      -7.430  -4.251  38.076  1.00  0.00     0.136 C
ENDBRANCH   6   7
ENDBRANCH   3   5
ENDBRANCH   1   2
BRANCH   1  17
HETATM   17  C15 UNL     1     -14.727  -6.699  39.498  1.00  0.00     0.007 C
HETATM   18  C16 UNL     1     -15.225  -5.332  39.154  1.00  0.00     0.014 C
BRANCH  17  19
HETATM   19  C17 UNL     1     -14.571  -7.515  38.233  1.00  0.00    -0.021 C
HETATM   20  C18 UNL     1     -14.083  -8.715  38.282  1.00  0.00     0.018 C
BRANCH  20  21
HETATM   21  C19 UNL     1     -13.851  -9.655  37.224  1.00  0.00     0.083 A
HETATM   22  C20 UNL     1     -14.797 -10.484  36.699  1.00  0.00     0.158 A
HETATM   23  N2  UNL     1     -14.468 -11.350  35.683  1.00  0.00    -0.313 N
HETATM   24  C21 UNL     1     -13.218 -11.374  35.213  1.00  0.00     0.180 A
ATOM     25  H2  UNL     1     -15.175 -11.971  35.289  1.00  0.00     0.170 HD
HETATM   26  S1  UNL     1     -12.865 -12.416  34.005  1.00  0.00    -0.040 SA
HETATM   27  N3  UNL     1     -12.281 -10.564  35.720  1.00  0.00    -0.299 N
HETATM   28  C22 UNL     1     -12.538  -9.702  36.707  1.00  0.00     0.262 A
ATOM     29  H3  UNL     1     -11.336 -10.607  35.338  1.00  0.00     0.171 HD
HETATM   30  O3  UNL     1     -11.633  -8.946  37.170  1.00  0.00    -0.267 OA
BRANCH  22  31
HETATM   31  O2  UNL     1     -16.098 -10.476  37.170  1.00  0.00    -0.345 OA
ATOM     32  H2  UNL     1     -16.285 -10.407  38.099  1.00  0.00     0.219 HD
ENDBRANCH  22  31
ENDBRANCH  20  21
ENDBRANCH  17  19
ENDBRANCH   1  17
TORSDOF 7
ENDMDL