MODEL 2
REMARK VINA RESULT: -8.468231788      2.834      4.725
REMARK  10 active torsions:
REMARK  status: ('A' for Active; 'I' for Inactive)
REMARK    1  A    between atoms: C2_2  and  C4_4
REMARK    2  A    between atoms: C4_4  and  C6_6
REMARK    3  A    between atoms: C4_4  and  O4_26
REMARK    4  A    between atoms: C6_6  and  C7_7
REMARK    5  A    between atoms: C8_8  and  C9_9
REMARK    6  A    between atoms: C9_9  and  O1_10
REMARK    7  A    between atoms: C15_17  and  O2_19
REMARK    8  A    between atoms: C19_23  and  O3_24
REMARK    9  A    between atoms: O4_26  and  C20_27
REMARK   10  A    between atoms: C20_27  and  C21_29
ROOT
HETATM    1  C9  UNL     1     -10.617  -5.828  34.181  1.00  0.00     0.110 C
HETATM    2  C10 UNL     1     -11.701  -5.018  33.551  1.00  0.00     0.023 C
HETATM    3  C11 UNL     1     -11.296  -4.526  32.185  1.00  0.00     0.013 C
HETATM    4  C12 UNL     1     -12.173  -3.852  34.352  1.00  0.00     0.008 C
HETATM    5  C13 UNL     1     -11.030  -3.009  34.902  1.00  0.00     0.011 C
HETATM    6  C14 UNL     1     -10.156  -3.906  35.701  1.00  0.00     0.057 C
HETATM    7  C15 UNL     1      -8.917  -3.281  36.248  1.00  0.00     0.061 C
HETATM    8  C16 UNL     1      -9.130  -2.533  37.538  1.00  0.00     0.046 C
HETATM    9  C17 UNL     1      -8.020  -4.476  36.504  1.00  0.00     0.041 C
HETATM   10  C18 UNL     1      -8.559  -5.605  35.618  1.00  0.00     0.044 C
HETATM   11  C19 UNL     1      -9.565  -4.940  34.734  1.00  0.00     0.099 C
ENDROOT
BRANCH   1  12
HETATM   12  C8  UNL     1     -11.137  -6.784  35.224  1.00  0.00     0.010 C
HETATM   13  C7  UNL     1     -12.361  -7.222  35.129  1.00  0.00    -0.024 C
BRANCH  13  14
HETATM   14  C6  UNL     1     -13.148  -8.132  35.953  1.00  0.00     0.070 C
BRANCH  14  15
HETATM   15  C4  UNL     1     -14.210  -8.961  35.348  1.00  0.00     0.093 C
HETATM   16  C5  UNL     1     -14.577  -8.643  33.927  1.00  0.00     0.052 C
BRANCH  15  17
HETATM   17  C2  UNL     1     -15.423  -8.980  36.197  1.00  0.00    -0.059 C
HETATM   18  C1  UNL     1     -15.365  -8.577  37.439  1.00  0.00     0.017 C
HETATM   19  C3  UNL     1     -16.701  -9.412  35.612  1.00  0.00     0.046 C
ENDBRANCH  15  17
BRANCH  15  20
HETATM   20  O4  UNL     1     -13.811 -10.374  35.398  1.00  0.00    -0.302 OA
BRANCH  20  21
HETATM   21  C20 UNL     1     -12.536 -10.817  35.238  1.00  0.00     0.289 C
HETATM   22  O5  UNL     1     -11.775 -10.852  36.228  1.00  0.00    -0.260 OA
BRANCH  21  23
HETATM   23  C21 UNL     1     -12.101 -11.237  33.905  1.00  0.00     0.009 C
HETATM   24  C22 UNL     1     -11.361 -10.234  33.095  1.00  0.00     0.054 C
HETATM   25  C23 UNL     1     -12.320 -12.424  33.394  1.00  0.00    -0.018 C
HETATM   26  C24 UNL     1     -13.031 -13.504  34.074  1.00  0.00     0.036 C
ENDBRANCH  21  23
ENDBRANCH  20  21
ENDBRANCH  15  20
ENDBRANCH  14  15
ENDBRANCH  13  14
ENDBRANCH   1  12
BRANCH   1  27
HETATM   27  O1  UNL     1     -10.046  -6.625  33.189  1.00  0.00    -0.382 OA
ATOM     28  H1  UNL     1      -9.112  -6.458  33.231  1.00  0.00     0.211 HD
ENDBRANCH   1  27
BRANCH  11  29
HETATM   29  O3  UNL     1      -8.874  -4.288  33.720  1.00  0.00    -0.386 OA
ATOM     30  H3  UNL     1      -9.247  -3.432  33.545  1.00  0.00     0.210 HD
ENDBRANCH  11  29
BRANCH   7  31
HETATM   31  O2  UNL     1      -8.349  -2.462  35.277  1.00  0.00    -0.390 OA
ATOM     32  H2  UNL     1      -9.016  -1.884  34.924  1.00  0.00     0.210 HD
ENDBRANCH   7  31
TORSDOF 10
ENDMDL