MODEL 3
REMARK VINA RESULT: -7.805437434      2.319      8.937
REMARK  14 active torsions:
REMARK  status: ('A' for Active; 'I' for Inactive)
REMARK    1  A    between atoms: C2_2  and  C3_3
REMARK    2  A    between atoms: C3_3  and  N1_4
REMARK       I    between atoms: N1_4  and  C4_6
REMARK       I    between atoms: C4_6  and  N6_34
REMARK    3  A    between atoms: N2_7  and  C5_9
REMARK       I    between atoms: N3_14  and  C9_15
REMARK    4  A    between atoms: C9_15  and  C10_17
REMARK    5  A    between atoms: C10_17  and  C11_18
REMARK    6  A    between atoms: C11_18  and  N4_19
REMARK    7  A    between atoms: N4_19  and  S2_21
REMARK    8  A    between atoms: S2_21  and  C12_24
REMARK    9  A    between atoms: C12_24  and  C13_25
REMARK   10  A    between atoms: C13_25  and  C14_26
REMARK   11  A    between atoms: C14_26  and  C15_27
REMARK   12  A    between atoms: C15_27  and  N5_28
REMARK   13  A    between atoms: N6_34  and  C21_36
REMARK   14  A    between atoms: C21_36  and  C22_37
ROOT
HETATM    1  C5  UNL     1      19.649  30.517  14.692  1.00  0.00     0.268 C
HETATM    2  S1  UNL     1      20.301  30.339  16.411  1.00  0.00    -0.122 SA
HETATM    3  C6  UNL     1      21.346  31.835  16.627  1.00  0.00     0.079 C
HETATM    4  C7  UNL     1      21.880  32.297  15.295  1.00  0.00     0.030 C
HETATM    5  C8  UNL     1      20.794  32.721  14.343  1.00  0.00     0.129 C
HETATM    6  N3  UNL     1      19.578  31.962  14.507  1.00  0.00    -0.321 N
HETATM    7  C9  UNL     1      18.306  32.575  14.501  1.00  0.00     0.223 C
HETATM    8  O1  UNL     1      18.264  33.841  14.337  1.00  0.00    -0.273 OA
ENDROOT
BRANCH   1   9
HETATM    9  N2  UNL     1      20.532  29.894  13.759  1.00  0.00    -0.196 N
HETATM   10  C4  UNL     1      20.329  28.711  13.227  1.00  0.00     0.672 C
HETATM   11  N1  UNL     1      21.331  28.263  12.314  1.00  0.00    -0.223 N
HETATM   12  N6  UNL     1      19.164  27.977  13.568  1.00  0.00    -0.227 N
ATOM     13  H1  UNL     1      21.852  28.984  11.814  1.00  0.00     0.178 HD
ATOM     14  H6  UNL     1      19.045  27.711  14.546  1.00  0.00     0.177 HD
ATOM     15  H2  UNL     1      21.375  30.402  13.487  1.00  0.00     0.180 HD
BRANCH  11  16
HETATM   16  C3  UNL     1      21.674  26.916  12.031  1.00  0.00     0.164 C
BRANCH  16  17
HETATM   17  C2  UNL     1      23.056  26.679  11.568  1.00  0.00    -0.017 C
HETATM   18  C1  UNL     1      24.095  27.333  12.018  1.00  0.00     0.008 C
ENDBRANCH  16  17
ENDBRANCH  11  16
BRANCH  12  19
HETATM   19  C21 UNL     1      18.139  27.579  12.645  1.00  0.00     0.137 C
BRANCH  19  20
HETATM   20  C22 UNL     1      17.363  28.744  12.060  1.00  0.00     0.016 C
HETATM   21  C23 UNL     1      17.094  28.377  10.599  1.00  0.00     0.006 C
ENDBRANCH  19  20
ENDBRANCH  12  19
ENDBRANCH   1   9
BRANCH   7  22
HETATM   22  C10 UNL     1      17.060  31.794  14.679  1.00  0.00     0.123 C
BRANCH  22  23
HETATM   23  C11 UNL     1      16.557  31.873  16.103  1.00  0.00     0.141 C
BRANCH  23  24
HETATM   24  N4  UNL     1      15.735  33.067  16.213  1.00  0.00    -0.319 N
ATOM     25  H4  UNL     1      14.880  33.243  15.686  1.00  0.00     0.172 HD
BRANCH  24  26
HETATM   26  S2  UNL     1      16.438  34.150  17.384  1.00  0.00     0.226 S
HETATM   27  O2  UNL     1      17.784  33.654  17.766  1.00  0.00    -0.206 OA
HETATM   28  O3  UNL     1      15.463  34.132  18.556  1.00  0.00    -0.206 OA
BRANCH  26  29
HETATM   29  C12 UNL     1      16.477  35.782  16.742  1.00  0.00     0.163 C
BRANCH  29  30
HETATM   30  C13 UNL     1      16.338  36.845  17.776  1.00  0.00     0.022 C
BRANCH  30  31
HETATM   31  C14 UNL     1      17.551  37.122  18.607  1.00  0.00     0.046 C
BRANCH  31  32
HETATM   32  C15 UNL     1      18.729  37.553  17.751  1.00  0.00     0.068 C
BRANCH  32  33
HETATM   33  N5  UNL     1      19.971  37.088  18.203  1.00  0.00    -0.354 N
HETATM   34  C16 UNL     1      20.041  35.842  18.803  1.00  0.00     0.068 C
HETATM   35  C17 UNL     1      21.274  35.029  18.533  1.00  0.00     0.045 C
HETATM   36  C18 UNL     1      22.014  35.572  17.341  1.00  0.00     0.010 C
HETATM   37  C19 UNL     1      22.371  37.013  17.688  1.00  0.00     0.045 C
HETATM   38  C20 UNL     1      21.078  37.793  17.751  1.00  0.00     0.068 C
ENDBRANCH  32  33
ENDBRANCH  31  32
ENDBRANCH  30  31
ENDBRANCH  29  30
ENDBRANCH  26  29
ENDBRANCH  24  26
ENDBRANCH  23  24
ENDBRANCH  22  23
ENDBRANCH   7  22
TORSDOF 14
ENDMDL