MODEL 5
REMARK VINA RESULT: -7.863034210      1.652      3.874
REMARK  17 active torsions:
REMARK  status: ('A' for Active; 'I' for Inactive)
REMARK    1  A    between atoms: C3_3  and  C4_4
REMARK    2  A    between atoms: C4_4  and  C5_5
REMARK    3  A    between atoms: C5_5  and  C6_6
REMARK    4  A    between atoms: C6_6  and  C7_7
REMARK    5  A    between atoms: C7_7  and  N1_8
REMARK    6  A    between atoms: N1_8  and  C8_10
REMARK    7  A    between atoms: C9_13  and  N3_14
REMARK    8  A    between atoms: N3_14  and  C10_16
REMARK    9  A    between atoms: C12_20  and  N5_21
REMARK   10  A    between atoms: N5_21  and  C13_23
REMARK   11  A    between atoms: C13_23  and  C14_24
REMARK   12  A    between atoms: C17_27  and  C18_28
REMARK       I    between atoms: C18_28  and  N6_30
REMARK   13  A    between atoms: N6_30  and  C19_32
REMARK   14  A    between atoms: C19_32  and  C20_33
REMARK   15  A    between atoms: C20_33  and  C21_34
REMARK   16  A    between atoms: C21_34  and  C22_35
REMARK   17  A    between atoms: C22_35  and  N7_36
ROOT
HETATM    1  C1  UNL     1      23.570  32.348  14.717  1.00  0.00     0.012 C
HETATM    2  C2  UNL     1      22.621  32.210  15.471  1.00  0.00    -0.117 C
HETATM    3  C3  UNL     1      21.466  32.028  16.364  1.00  0.00     0.093 C
ENDROOT
BRANCH   3   4
HETATM    4  C4  UNL     1      20.674  33.351  16.401  1.00  0.00     0.012 C
BRANCH   4   5
HETATM    5  C5  UNL     1      21.407  34.248  17.342  1.00  0.00     0.002 C
BRANCH   5   6
HETATM    6  C6  UNL     1      21.551  35.664  16.917  1.00  0.00     0.020 C
BRANCH   6   7
HETATM    7  C7  UNL     1      21.003  36.672  17.847  1.00  0.00     0.138 C
BRANCH   7   8
HETATM    8  N1  UNL     1      20.047  36.236  18.798  1.00  0.00    -0.225 N
ATOM      9  H1  UNL     1      20.340  35.596  19.536  1.00  0.00     0.177 HD
BRANCH   8  10
HETATM   10  C8  UNL     1      18.828  36.618  18.761  1.00  0.00     0.707 A
HETATM   11  N2  UNL     1      18.524  37.938  18.816  1.00  0.00    -0.022 N
HETATM   12  C9  UNL     1      17.250  38.328  18.775  1.00  0.00     0.707 A
ATOM     13  H2  UNL     1      19.269  38.632  18.889  1.00  0.00     0.203 HD
HETATM   14  N4  UNL     1      16.295  37.376  18.678  1.00  0.00    -0.022 N
HETATM   15  C12 UNL     1      16.555  36.059  18.621  1.00  0.00     0.707 A
ATOM     16  H4  UNL     1      15.321  37.675  18.646  1.00  0.00     0.203 HD
HETATM   17  N8  UNL     1      17.850  35.675  18.663  1.00  0.00    -0.022 N
ATOM     18  H8  UNL     1      18.094  34.685  18.622  1.00  0.00     0.203 HD
BRANCH  12  19
HETATM   19  N3  UNL     1      16.969  39.580  18.830  1.00  0.00    -0.225 N
ATOM     20  H3  UNL     1      17.333  40.149  19.594  1.00  0.00     0.177 HD
BRANCH  19  21
HETATM   21  C10 UNL     1      16.150  40.181  17.826  1.00  0.00     0.133 C
HETATM   22  C11 UNL     1      16.945  40.703  16.651  1.00  0.00     0.027 C
ENDBRANCH  19  21
ENDBRANCH  12  19
BRANCH  15  23
HETATM   23  N5  UNL     1      15.607  35.198  18.526  1.00  0.00    -0.221 N
ATOM     24  H5  UNL     1      15.295  34.696  19.357  1.00  0.00     0.178 HD
BRANCH  23  25
HETATM   25  C13 UNL     1      14.981  34.934  17.252  1.00  0.00     0.176 C
BRANCH  25  26
HETATM   26  C14 UNL     1      15.839  34.038  16.394  1.00  0.00    -0.040 A
HETATM   27  C15 UNL     1      15.812  32.674  16.564  1.00  0.00     0.010 A
HETATM   28  C16 UNL     1      16.589  31.854  15.789  1.00  0.00     0.017 A
HETATM   29  C17 UNL     1      17.429  32.372  14.804  1.00  0.00     0.032 A
HETATM   30  C27 UNL     1      17.445  33.728  14.646  1.00  0.00     0.017 A
HETATM   31  C28 UNL     1      16.661  34.568  15.428  1.00  0.00     0.010 A
BRANCH  29  32
HETATM   32  C18 UNL     1      18.265  31.471  13.976  1.00  0.00     0.255 C
HETATM   33  O1  UNL     1      17.845  30.295  13.919  1.00  0.00    -0.267 OA
HETATM   34  N6  UNL     1      19.421  31.918  13.325  1.00  0.00    -0.337 N
ATOM     35  H6  UNL     1      19.653  32.899  13.482  1.00  0.00     0.168 HD
BRANCH  34  36
HETATM   36  C19 UNL     1      20.313  31.222  12.487  1.00  0.00     0.064 C
BRANCH  36  37
HETATM   37  C20 UNL     1      21.095  30.082  12.982  1.00  0.00     0.046 C
BRANCH  37  38
HETATM   38  C21 UNL     1      21.499  29.030  12.017  1.00  0.00     0.035 C
BRANCH  38  39
HETATM   39  C22 UNL     1      20.599  27.798  12.236  1.00  0.00     0.273 C
BRANCH  39  40
HETATM   40  N7  UNL     1      19.925  27.399  11.058  1.00  0.00     0.092 N
HETATM   41  C23 UNL     1      19.731  25.986  10.898  1.00  0.00     0.298 C
HETATM   42  C24 UNL     1      18.533  25.470  11.640  1.00  0.00     0.198 C
HETATM   43  O2  UNL     1      18.042  26.336  12.600  1.00  0.00    -0.388 OA
HETATM   44  C25 UNL     1      17.708  27.582  12.098  1.00  0.00     0.198 C
HETATM   45  C26 UNL     1      18.624  28.029  10.987  1.00  0.00     0.298 C
ENDBRANCH  39  40
ENDBRANCH  38  39
ENDBRANCH  37  38
ENDBRANCH  36  37
ENDBRANCH  34  36
ENDBRANCH  29  32
ENDBRANCH  25  26
ENDBRANCH  23  25
ENDBRANCH  15  23
ENDBRANCH   8  10
ENDBRANCH   7   8
ENDBRANCH   6   7
ENDBRANCH   5   6
ENDBRANCH   4   5
ENDBRANCH   3   4
TORSDOF 17
ENDMDL