MODEL 5
REMARK VINA RESULT: -7.807424955      2.019      4.374
REMARK  17 active torsions:
REMARK  status: ('A' for Active; 'I' for Inactive)
REMARK    1  A    between atoms: C2_2  and  C3_3
REMARK    2  A    between atoms: C3_3  and  C4_4
REMARK    3  A    between atoms: C4_4  and  C5_5
REMARK    4  A    between atoms: C5_5  and  C6_6
REMARK    5  A    between atoms: C5_5  and  N2_13
REMARK    6  A    between atoms: C6_6  and  N1_7
REMARK    7  A    between atoms: C6_6  and  O1_11
REMARK       I    between atoms: N2_13  and  C8_15
REMARK    8  A    between atoms: C8_15  and  C9_17
REMARK    9  A    between atoms: N3_22  and  C14_23
REMARK   10  A    between atoms: C14_23  and  C15_24
REMARK   11  A    between atoms: C15_24  and  C16_25
REMARK   12  A    between atoms: C16_25  and  C17_26
REMARK   13  A    between atoms: C17_26  and  C18_27
REMARK   14  A    between atoms: C18_27  and  N4_28
REMARK   15  A    between atoms: C18_27  and  C25_37
REMARK       I    between atoms: N4_28  and  C19_29
REMARK   16  A    between atoms: C19_29  and  C20_31
REMARK   17  A    between atoms: C20_31  and  C21_33
ROOT
HETATM    1  C9  UNL     1      19.627  30.798  13.865  1.00  0.00     0.064 C
HETATM    2  C10 UNL     1      20.801  30.923  12.900  1.00  0.00     0.027 C
HETATM    3  C11 UNL     1      20.091  29.904  15.067  1.00  0.00     0.022 C
HETATM    4  C12 UNL     1      20.718  28.633  14.575  1.00  0.00     0.031 C
HETATM    5  C13 UNL     1      19.880  28.175  13.398  1.00  0.00     0.272 C
HETATM    6  N3  UNL     1      18.510  28.655  13.689  1.00  0.00     0.089 N
HETATM    7  C26 UNL     1      18.482  30.096  13.263  1.00  0.00     0.291 C
ENDROOT
BRANCH   1   8
HETATM    8  C8  UNL     1      19.393  32.131  14.428  1.00  0.00     0.230 C
HETATM    9  N2  UNL     1      18.191  32.660  14.984  1.00  0.00    -0.347 N
HETATM   10  C7  UNL     1      17.078  31.826  15.257  1.00  0.00     0.153 C
HETATM   11  O2  UNL     1      20.374  32.961  14.422  1.00  0.00    -0.272 OA
BRANCH   9  12
HETATM   12  C5  UNL     1      18.127  34.081  15.378  1.00  0.00     0.142 C
BRANCH  12  13
HETATM   13  C4  UNL     1      16.592  34.378  15.520  1.00  0.00     0.030 C
BRANCH  13  14
HETATM   14  C3  UNL     1      16.211  35.596  16.209  1.00  0.00     0.002 C
BRANCH  14  15
HETATM   15  C2  UNL     1      15.296  35.576  17.381  1.00  0.00    -0.004 C
HETATM   16  C1  UNL     1      15.078  34.106  17.825  1.00  0.00     0.005 C
ENDBRANCH  14  15
ENDBRANCH  13  14
ENDBRANCH  12  13
BRANCH  12  17
HETATM   17  C6  UNL     1      18.828  34.406  16.550  1.00  0.00     0.339 C
BRANCH  17  18
HETATM   18  N1  UNL     1      18.673  33.801  17.866  1.00  0.00    -0.051 N
ATOM     19  H13 UNL     1      17.822  34.202  18.260  1.00  0.00     0.277 HD
ATOM     20  H12 UNL     1      18.421  32.827  17.698  1.00  0.00     0.277 HD
ATOM     21  H11 UNL     1      19.356  33.790  18.623  1.00  0.00     0.277 HD
ENDBRANCH  17  18
BRANCH  17  22
HETATM   22  O1  UNL     1      19.748  35.346  16.599  1.00  0.00    -0.368 OA
ATOM     23  H1  UNL     1      20.552  35.309  16.095  1.00  0.00     0.212 HD
ENDBRANCH  17  22
ENDBRANCH  12  17
ENDBRANCH   9  12
ENDBRANCH   1   8
BRANCH   6  24
HETATM   24  C14 UNL     1      17.557  27.923  12.883  1.00  0.00     0.272 C
BRANCH  24  25
HETATM   25  C15 UNL     1      17.163  28.806  11.726  1.00  0.00     0.030 C
BRANCH  25  26
HETATM   26  C16 UNL     1      17.352  28.042  10.389  1.00  0.00     0.005 C
BRANCH  26  27
HETATM   27  C17 UNL     1      18.043  26.754  10.614  1.00  0.00     0.049 C
BRANCH  27  28
HETATM   28  C18 UNL     1      19.296  26.512   9.788  1.00  0.00     0.256 C
BRANCH  28  29
HETATM   29  N4  UNL     1      20.344  25.917  10.431  1.00  0.00    -0.394 NA
HETATM   30  C19 UNL     1      21.413  25.309  11.088  1.00  0.00     0.358 C
HETATM   31  O3  UNL     1      21.327  24.548  12.075  1.00  0.00    -0.248 OA
BRANCH  30  32
HETATM   32  C20 UNL     1      22.794  25.575  10.597  1.00  0.00     0.238 C
HETATM   33  O4  UNL     1      23.279  24.802   9.703  1.00  0.00    -0.285 OA
BRANCH  32  34
HETATM   34  C21 UNL     1      23.655  26.654  11.068  1.00  0.00     0.020 C
HETATM   35  C22 UNL     1      23.027  27.645  11.989  1.00  0.00     0.023 C
HETATM   36  C23 UNL     1      24.841  26.031  11.829  1.00  0.00     0.023 C
HETATM   37  C24 UNL     1      24.221  27.417   9.845  1.00  0.00     0.023 C
ENDBRANCH  32  34
ENDBRANCH  30  32
ENDBRANCH  28  29
BRANCH  28  38
HETATM   38  C25 UNL     1      19.026  25.763   8.533  1.00  0.00     0.267 C
HETATM   39  N5  UNL     1      18.992  24.359   8.546  1.00  0.00    -0.059 NA
HETATM   40  O5  UNL     1      18.833  26.312   7.444  1.00  0.00    -0.273 OA
ENDBRANCH  28  38
ENDBRANCH  27  28
ENDBRANCH  26  27
ENDBRANCH  25  26
ENDBRANCH  24  25
ENDBRANCH   6  24
TORSDOF 17
ENDMDL