MODEL 3
REMARK VINA RESULT: -8.485603784      4.057     10.801
REMARK  14 active torsions:
REMARK  status: ('A' for Active; 'I' for Inactive)
REMARK    1  A    between atoms: C2_2  and  C3_3
REMARK    2  A    between atoms: C3_3  and  C4_4
REMARK    3  A    between atoms: C4_4  and  N1_5
REMARK    4  A    between atoms: C4_4  and  C22_32
REMARK    5  A    between atoms: N1_5  and  C5_7
REMARK    6  A    between atoms: C5_7  and  C7_9
REMARK    7  A    between atoms: C5_7  and  C9_11
REMARK    8  A    between atoms: C9_11  and  O1_12
REMARK       I    between atoms: N2_14  and  C10_16
REMARK    9  A    between atoms: C10_16  and  C11_18
REMARK       I    between atoms: N3_22  and  C15_23
REMARK   10  A    between atoms: C15_23  and  C16_25
REMARK   11  A    between atoms: C16_25  and  C17_27
REMARK   12  A    between atoms: C17_27  and  C18_28
REMARK   13  A    between atoms: C18_28  and  C20_30
REMARK   14  A    between atoms: C22_32  and  C23_34
REMARK       I    between atoms: C23_34  and  N5_36
ROOT
HETATM    1  C9  UNL     1      21.774  36.493  17.914  1.00  0.00     0.146 C
HETATM    2  N2  UNL     1      22.160  35.324  17.327  1.00  0.00    -0.307 N
ATOM      3  H2  UNL     1      22.986  34.927  17.773  1.00  0.00     0.170 HD
HETATM    4  C10 UNL     1      21.704  34.529  16.261  1.00  0.00     0.246 C
HETATM    5  O2  UNL     1      20.757  34.779  15.521  1.00  0.00    -0.271 OA
ENDROOT
BRANCH   1   6
HETATM    6  C5  UNL     1      20.765  37.559  17.756  1.00  0.00     0.088 C
HETATM    7  C6  UNL     1      21.160  38.393  16.516  1.00  0.00     0.047 C
BRANCH   6   8
HETATM    8  N1  UNL     1      19.509  37.051  17.460  1.00  0.00    -0.395 N
ATOM      9  H1  UNL     1      19.448  36.796  16.475  1.00  0.00     0.155 HD
BRANCH   8  10
HETATM   10  C4  UNL     1      18.340  36.794  18.091  1.00  0.00     0.158 C
BRANCH  10  11
HETATM   11  C3  UNL     1      17.195  37.384  17.252  1.00  0.00     0.033 C
BRANCH  11  12
HETATM   12  C2  UNL     1      16.644  38.664  17.879  1.00  0.00    -0.002 C
HETATM   13  C1  UNL     1      17.086  39.786  16.958  1.00  0.00     0.005 C
ENDBRANCH  11  12
ENDBRANCH  10  11
BRANCH  10  14
HETATM   14  C22 UNL     1      17.944  35.467  18.552  1.00  0.00     0.238 C
HETATM   15  O4  UNL     1      18.661  34.868  19.440  1.00  0.00    -0.285 OA
BRANCH  14  16
HETATM   16  C23 UNL     1      16.804  34.649  18.167  1.00  0.00     0.291 C
HETATM   17  O5  UNL     1      15.808  34.631  18.973  1.00  0.00    -0.264 OA
HETATM   18  N5  UNL     1      16.706  33.875  16.988  1.00  0.00    -0.345 N
HETATM   19  C24 UNL     1      15.476  33.169  16.613  1.00  0.00     0.126 C
HETATM   20  C27 UNL     1      17.690  33.561  16.004  1.00  0.00     0.126 C
HETATM   21  C25 UNL     1      16.032  31.893  16.008  1.00  0.00     0.021 C
HETATM   22  C26 UNL     1      17.090  32.505  15.090  1.00  0.00     0.021 C
ENDBRANCH  14  16
ENDBRANCH  10  14
ENDBRANCH   8  10
ENDBRANCH   6   8
BRANCH   6  23
HETATM   23  C7  UNL     1      20.930  38.512  18.892  1.00  0.00     0.034 C
HETATM   24  C8  UNL     1      20.493  39.935  18.551  1.00  0.00     0.008 C
ENDBRANCH   6  23
ENDBRANCH   1   6
BRANCH   1  25
HETATM   25  O1  UNL     1      22.567  36.763  18.995  1.00  0.00    -0.347 OA
ATOM     26  H1  UNL     1      22.034  36.818  19.780  1.00  0.00     0.219 HD
ENDBRANCH   1  25
BRANCH   4  27
HETATM   27  C11 UNL     1      22.419  33.226  15.959  1.00  0.00     0.180 C
HETATM   28  C12 UNL     1      22.778  32.620  17.292  1.00  0.00     0.037 C
HETATM   29  C13 UNL     1      21.403  32.025  17.670  1.00  0.00     0.022 C
HETATM   30  C14 UNL     1      20.820  31.574  16.365  1.00  0.00     0.127 C
HETATM   31  N3  UNL     1      21.595  32.239  15.346  1.00  0.00    -0.334 N
HETATM   32  C15 UNL     1      21.619  31.977  13.949  1.00  0.00     0.264 C
HETATM   33  O3  UNL     1      22.397  32.640  13.223  1.00  0.00    -0.267 OA
BRANCH  32  34
HETATM   34  C16 UNL     1      20.777  30.954  13.259  1.00  0.00     0.092 C
HETATM   35  N4  UNL     1      19.571  31.408  12.712  1.00  0.00    -0.101 NA
BRANCH  34  36
HETATM   36  C17 UNL     1      21.636  30.023  12.491  1.00  0.00     0.064 C
BRANCH  36  37
HETATM   37  C18 UNL     1      22.230  28.886  13.241  1.00  0.00    -0.014 C
HETATM   38  C19 UNL     1      21.359  28.497  14.407  1.00  0.00     0.010 C
BRANCH  37  39
HETATM   39  C20 UNL     1      22.480  27.663  12.385  1.00  0.00    -0.000 C
HETATM   40  C21 UNL     1      23.977  27.501  12.148  1.00  0.00     0.005 C
ENDBRANCH  37  39
ENDBRANCH  36  37
ENDBRANCH  34  36
ENDBRANCH  32  34
ENDBRANCH   4  27
TORSDOF 14
ENDMDL