MODEL 3
REMARK VINA RESULT: -7.626426899      2.195     11.022
REMARK  17 active torsions:
REMARK  status: ('A' for Active; 'I' for Inactive)
REMARK    1  A    between atoms: C2_2  and  O1_3
REMARK    2  A    between atoms: O1_3  and  C3_4
REMARK       I    between atoms: C3_4  and  N1_6
REMARK    3  A    between atoms: N1_6  and  C4_8
REMARK    4  A    between atoms: C4_8  and  C5_9
REMARK    5  A    between atoms: C5_9  and  C6_10
REMARK    6  A    between atoms: C6_10  and  C7_11
REMARK    7  A    between atoms: C7_11  and  N2_12
REMARK       I    between atoms: N2_12  and  C8_14
REMARK    8  A    between atoms: C8_14  and  C9_16
REMARK    9  A    between atoms: C9_16  and  C10_17
REMARK   10  A    between atoms: C10_17  and  C11_18
REMARK   11  A    between atoms: C11_18  and  C12_19
REMARK   12  A    between atoms: C12_19  and  C13_20
REMARK   13  A    between atoms: C13_20  and  N3_21
REMARK   14  A    between atoms: N4_24  and  C15_25
REMARK   15  A    between atoms: C15_25  and  C16_26
REMARK   16  A    between atoms: C16_26  and  O4_27
REMARK   17  A    between atoms: C16_26  and  N5_29
ROOT
HETATM    1  N3  UNL     1      19.106  29.904  13.579  1.00  0.00    -0.348 N
HETATM    2  C14 UNL     1      18.634  29.083  12.526  1.00  0.00     0.176 C
HETATM    3  S1  UNL     1      17.098  28.858  12.023  1.00  0.00    -0.040 SA
HETATM    4  N4  UNL     1      19.787  28.408  11.897  1.00  0.00    -0.328 N
HETATM    5  C22 UNL     1      20.829  29.381  12.098  1.00  0.00     0.161 C
HETATM    6  C23 UNL     1      20.499  30.118  13.394  1.00  0.00     0.044 C
HETATM    7  C24 UNL     1      20.906  31.556  13.194  1.00  0.00     0.040 C
HETATM    8  C25 UNL     1      21.356  29.483  14.482  1.00  0.00     0.040 C
ENDROOT
BRANCH   1   9
HETATM    9  C13 UNL     1      18.209  30.392  14.625  1.00  0.00     0.126 C
BRANCH   9  10
HETATM   10  C12 UNL     1      17.742  31.778  14.385  1.00  0.00     0.020 C
BRANCH  10  11
HETATM   11  C11 UNL     1      17.070  32.241  15.686  1.00  0.00     0.002 C
BRANCH  11  12
HETATM   12  C10 UNL     1      16.681  33.702  15.582  1.00  0.00     0.009 C
BRANCH  12  13
HETATM   13  C9  UNL     1      15.409  34.002  16.301  1.00  0.00     0.103 C
BRANCH  13  14
HETATM   14  C8  UNL     1      15.737  34.640  17.619  1.00  0.00     0.217 C
HETATM   15  N2  UNL     1      16.367  35.915  17.638  1.00  0.00    -0.361 N
ATOM     16  H2  UNL     1      16.599  36.353  16.746  1.00  0.00     0.162 HD
HETATM   17  O3  UNL     1      15.466  34.078  18.695  1.00  0.00    -0.274 OA
BRANCH  15  18
HETATM   18  C7  UNL     1      16.694  36.619  18.847  1.00  0.00     0.122 C
BRANCH  18  19
HETATM   19  C6  UNL     1      17.306  37.936  18.520  1.00  0.00     0.021 C
BRANCH  19  20
HETATM   20  C5  UNL     1      18.401  37.855  17.467  1.00  0.00     0.021 C
BRANCH  20  21
HETATM   21  C4  UNL     1      19.640  37.206  18.006  1.00  0.00     0.125 C
BRANCH  21  22
HETATM   22  N1  UNL     1      20.175  36.259  17.083  1.00  0.00    -0.337 N
HETATM   23  C3  UNL     1      19.853  34.883  17.161  1.00  0.00     0.360 C
HETATM   24  O2  UNL     1      19.109  34.355  18.011  1.00  0.00    -0.239 OA
ATOM     25  H1  UNL     1      20.806  36.581  16.349  1.00  0.00     0.164 HD
BRANCH  23  26
HETATM   26  O1  UNL     1      20.410  34.009  16.204  1.00  0.00    -0.304 OA
BRANCH  26  27
HETATM   27  C2  UNL     1      20.736  32.659  16.514  1.00  0.00     0.176 C
HETATM   28  C1  UNL     1      22.200  32.652  16.933  1.00  0.00     0.034 C
ENDBRANCH  26  27
ENDBRANCH  23  26
ENDBRANCH  21  22
ENDBRANCH  20  21
ENDBRANCH  19  20
ENDBRANCH  18  19
ENDBRANCH  15  18
ENDBRANCH  13  14
ENDBRANCH  12  13
ENDBRANCH  11  12
ENDBRANCH  10  11
ENDBRANCH   9  10
ENDBRANCH   1   9
BRANCH   4  29
HETATM   29  C15 UNL     1      19.730  27.097  11.368  1.00  0.00     0.149 C
BRANCH  29  30
HETATM   30  C16 UNL     1      20.745  26.141  11.295  1.00  0.00     0.154 C
BRANCH  30  31
HETATM   31  O4  UNL     1      20.250  24.933  11.739  1.00  0.00    -0.345 OA
ATOM     32  H4  UNL     1      20.752  24.655  12.496  1.00  0.00     0.219 HD
ENDBRANCH  30  31
BRANCH  30  33
HETATM   33  N5  UNL     1      22.046  25.998  10.937  1.00  0.00    -0.359 N
HETATM   34  C17 UNL     1      23.040  26.611  11.881  1.00  0.00     0.126 C
HETATM   35  C18 UNL     1      24.089  27.313  11.052  1.00  0.00     0.047 C
HETATM   36  C19 UNL     1      25.259  26.418  10.746  1.00  0.00     0.234 C
HETATM   37  N6  UNL     1      24.888  25.499   9.676  1.00  0.00    -0.074 N
HETATM   38  C20 UNL     1      23.832  24.623  10.122  1.00  0.00     0.252 C
ATOM     39  H62 UNL     1      24.639  25.992   8.818  1.00  0.00     0.277 HD
ATOM     40  H61 UNL     1      25.691  24.979   9.322  1.00  0.00     0.277 HD
HETATM   41  C21 UNL     1      22.459  25.230   9.803  1.00  0.00     0.152 C
ENDBRANCH  30  33
ENDBRANCH  29  30
ENDBRANCH   4  29
TORSDOF 17
ENDMDL