MODEL 1
REMARK VINA RESULT: -7.765215227      0.000      0.000
REMARK  17 active torsions:
REMARK  status: ('A' for Active; 'I' for Inactive)
REMARK    1  A    between atoms: C2_2  and  C3_3
REMARK    2  A    between atoms: C3_3  and  C4_4
REMARK    3  A    between atoms: C4_4  and  C5_5
REMARK    4  A    between atoms: C5_5  and  C6_6
REMARK    5  A    between atoms: C5_5  and  C12_15
REMARK    6  A    between atoms: C5_5  and  N2_19
REMARK    7  A    between atoms: C6_6  and  C7_7
REMARK    8  A    between atoms: C7_7  and  C8_8
REMARK    9  A    between atoms: C8_8  and  C9_9
REMARK   10  A    between atoms: C9_9  and  N1_10
REMARK       I    between atoms: N1_10  and  C10_12
REMARK   11  A    between atoms: C12_15  and  O3_17
REMARK   12  A    between atoms: N3_24  and  C18_25
REMARK   13  A    between atoms: C18_25  and  O4_27
REMARK   14  A    between atoms: C20_29  and  C21_30
REMARK   15  A    between atoms: C21_30  and  C22_31
REMARK   16  A    between atoms: C22_31  and  C23_32
REMARK   17  A    between atoms: C23_32  and  N4_33
ROOT
HETATM    1  N2  UNL     1      19.478  32.914  15.032  1.00  0.00    -0.329 N
HETATM    2  C14 UNL     1      18.480  33.833  14.538  1.00  0.00     0.157 C
HETATM    3  C15 UNL     1      17.375  34.040  15.585  1.00  0.00     0.044 C
HETATM    4  C16 UNL     1      16.480  32.787  15.588  1.00  0.00     0.040 C
HETATM    5  C17 UNL     1      16.529  35.167  15.102  1.00  0.00     0.040 C
HETATM    6  N3  UNL     1      17.926  34.271  16.893  1.00  0.00    -0.342 N
HETATM    7  C20 UNL     1      19.324  34.384  17.136  1.00  0.00     0.179 C
HETATM    8  C25 UNL     1      19.996  33.276  16.301  1.00  0.00     0.244 C
HETATM    9  O5  UNL     1      21.000  32.763  16.838  1.00  0.00    -0.271 OA
ENDROOT
BRANCH   1  10
HETATM   10  C5  UNL     1      19.915  31.748  14.361  1.00  0.00     0.123 C
BRANCH  10  11
HETATM   11  C4  UNL     1      18.774  31.384  13.385  1.00  0.00     0.042 C
BRANCH  11  12
HETATM   12  C3  UNL     1      18.032  30.152  13.783  1.00  0.00     0.002 C
BRANCH  12  13
HETATM   13  C2  UNL     1      17.770  29.278  12.545  1.00  0.00    -0.004 C
HETATM   14  C1  UNL     1      17.611  27.859  13.051  1.00  0.00     0.005 C
ENDBRANCH  12  13
ENDBRANCH  11  12
ENDBRANCH  10  11
BRANCH  10  15
HETATM   15  C6  UNL     1      20.174  30.517  15.133  1.00  0.00     0.042 C
BRANCH  15  16
HETATM   16  C7  UNL     1      21.462  29.808  15.007  1.00  0.00     0.004 C
BRANCH  16  17
HETATM   17  C8  UNL     1      21.116  28.370  14.535  1.00  0.00     0.020 C
BRANCH  17  18
HETATM   18  C9  UNL     1      21.385  28.223  13.075  1.00  0.00     0.122 C
BRANCH  18  19
HETATM   19  N1  UNL     1      22.799  28.199  12.825  1.00  0.00    -0.361 N
HETATM   20  C10 UNL     1      23.392  27.165  12.091  1.00  0.00     0.213 C
HETATM   21  C11 UNL     1      24.842  27.164  11.849  1.00  0.00     0.117 C
HETATM   22  O1  UNL     1      22.679  26.239  11.641  1.00  0.00    -0.274 OA
ATOM     23  H1  UNL     1      23.383  28.951  13.190  1.00  0.00     0.162 HD
ENDBRANCH  18  19
ENDBRANCH  17  18
ENDBRANCH  16  17
ENDBRANCH  15  16
ENDBRANCH  10  15
BRANCH  10  24
HETATM   24  C12 UNL     1      21.116  32.017  13.489  1.00  0.00     0.287 C
HETATM   25  O2  UNL     1      21.226  31.425  12.392  1.00  0.00    -0.262 OA
BRANCH  24  26
HETATM   26  O3  UNL     1      22.126  32.896  13.834  1.00  0.00    -0.325 OA
HETATM   27  C13 UNL     1      23.354  32.483  14.394  1.00  0.00     0.213 C
ENDBRANCH  24  26
ENDBRANCH  10  24
ENDBRANCH   1  10
BRANCH   7  28
HETATM   28  C21 UNL     1      20.096  35.610  17.011  1.00  0.00     0.037 C
BRANCH  28  29
HETATM   29  C22 UNL     1      20.592  36.398  18.152  1.00  0.00     0.022 C
BRANCH  29  30
HETATM   30  C23 UNL     1      19.993  37.705  18.490  1.00  0.00     0.122 C
BRANCH  30  31
HETATM   31  N4  UNL     1      19.176  38.243  17.411  1.00  0.00    -0.367 N
HETATM   32  C24 UNL     1      17.905  38.295  17.554  1.00  0.00     0.196 C
HETATM   33  N5  UNL     1      17.314  37.832  18.753  1.00  0.00    -0.067 NA
HETATM   34  N6  UNL     1      17.062  38.809  16.539  1.00  0.00    -0.067 NA
ATOM     35  H4  UNL     1      19.611  38.575  16.550  1.00  0.00     0.161 HD
ENDBRANCH  30  31
ENDBRANCH  29  30
ENDBRANCH  28  29
ENDBRANCH   7  28
BRANCH   6  36
HETATM   36  C18 UNL     1      17.041  34.334  18.007  1.00  0.00     0.110 C
HETATM   37  C19 UNL     1      15.619  34.013  18.051  1.00  0.00     0.097 C
BRANCH  36  38
HETATM   38  O4  UNL     1      17.616  34.734  19.107  1.00  0.00    -0.350 OA
ATOM     39  H4  UNL     1      17.472  35.654  19.298  1.00  0.00     0.219 HD
ENDBRANCH  36  38
ENDBRANCH   6  36
TORSDOF 17
ENDMDL