MODEL 4
REMARK VINA RESULT: -7.397221694      2.291      8.778
REMARK  17 active torsions:
REMARK  status: ('A' for Active; 'I' for Inactive)
REMARK    1  A    between atoms: C2_2  and  C3_3
REMARK    2  A    between atoms: C3_3  and  S1_4
REMARK    3  A    between atoms: S1_4  and  N1_5
REMARK       I    between atoms: N1_5  and  C4_6
REMARK    4  A    between atoms: N1_5  and  C6_9
REMARK    5  A    between atoms: C6_9  and  C7_10
REMARK    6  A    between atoms: C6_9  and  C21_38
REMARK       I    between atoms: C7_10  and  N2_12
REMARK    7  A    between atoms: N2_12  and  C8_14
REMARK    8  A    between atoms: C8_14  and  C9_15
REMARK    9  A    between atoms: C8_14  and  C17_34
REMARK   10  A    between atoms: C9_15  and  O3_16
REMARK       I    between atoms: N3_18  and  C10_20
REMARK       I    between atoms: C10_20  and  N4_21
REMARK   11  A    between atoms: N4_21  and  C11_23
REMARK   12  A    between atoms: C11_23  and  C12_24
REMARK   13  A    between atoms: C12_24  and  C13_25
REMARK   14  A    between atoms: N6_28  and  C15_30
REMARK   15  A    between atoms: C15_30  and  O5_32
REMARK   16  A    between atoms: C17_34  and  C19_36
REMARK   17  A    between atoms: C21_38  and  C23_40
ROOT
HETATM    1  C8  UNL     1      18.847  31.493  16.145  1.00  0.00     0.163 C
ENDROOT
BRANCH   1   2
HETATM    2  N2  UNL     1      19.276  32.915  16.051  1.00  0.00    -0.344 N
HETATM    3  C7  UNL     1      18.928  33.839  17.067  1.00  0.00     0.266 C
HETATM    4  O2  UNL     1      18.237  33.411  18.021  1.00  0.00    -0.266 OA
ATOM      5  H2  UNL     1      19.824  33.225  15.250  1.00  0.00     0.163 HD
BRANCH   3   6
HETATM    6  C6  UNL     1      19.327  35.266  17.087  1.00  0.00     0.098 C
BRANCH   6   7
HETATM    7  N1  UNL     1      20.664  35.477  17.531  1.00  0.00    -0.254 N
HETATM    8  C4  UNL     1      21.345  36.712  17.335  1.00  0.00     0.230 C
HETATM    9  C5  UNL     1      22.767  36.937  17.724  1.00  0.00     0.118 C
HETATM   10  O1  UNL     1      20.803  37.746  16.808  1.00  0.00    -0.273 OA
BRANCH   7  11
HETATM   11  S1  UNL     1      21.502  34.182  18.353  1.00  0.00    -0.042 SA
BRANCH  11  12
HETATM   12  C3  UNL     1      22.586  33.160  17.410  1.00  0.00     0.124 C
BRANCH  12  13
HETATM   13  C2  UNL     1      22.683  33.437  15.973  1.00  0.00    -0.025 C
HETATM   14  C1  UNL     1      23.221  32.551  15.157  1.00  0.00     0.008 C
ENDBRANCH  12  13
ENDBRANCH  11  12
ENDBRANCH   7  11
ENDBRANCH   6   7
BRANCH   6  15
HETATM   15  C21 UNL     1      18.247  36.251  17.207  1.00  0.00     0.038 C
HETATM   16  C22 UNL     1      17.954  36.506  18.717  1.00  0.00     0.016 C
BRANCH  15  17
HETATM   17  C23 UNL     1      16.926  36.142  16.593  1.00  0.00     0.006 C
HETATM   18  C24 UNL     1      15.726  35.915  17.461  1.00  0.00     0.006 C
ENDBRANCH  15  17
ENDBRANCH   6  15
ENDBRANCH   3   6
ENDBRANCH   1   2
BRANCH   1  19
HETATM   19  C9  UNL     1      20.010  30.621  15.996  1.00  0.00     0.154 C
HETATM   20  N3  UNL     1      20.500  30.077  14.850  1.00  0.00    -0.172 N
HETATM   21  C10 UNL     1      20.287  29.309  13.915  1.00  0.00     0.683 C
ATOM     22  H3  UNL     1      21.430  30.470  14.708  1.00  0.00     0.186 HD
HETATM   23  N4  UNL     1      21.445  29.270  12.991  1.00  0.00    -0.225 N
HETATM   24  N6  UNL     1      19.257  28.481  13.595  1.00  0.00    -0.171 N
ATOM     25  H4  UNL     1      21.548  29.966  12.253  1.00  0.00     0.177 HD
HETATM   26  C14 UNL     1      18.244  28.049  14.629  1.00  0.00     0.177 C
BRANCH  19  27
HETATM   27  O3  UNL     1      20.684  30.296  17.068  1.00  0.00    -0.347 OA
ATOM     28  H3  UNL     1      21.217  29.510  17.045  1.00  0.00     0.219 HD
ENDBRANCH  19  27
BRANCH  23  29
HETATM   29  C11 UNL     1      22.416  28.232  13.160  1.00  0.00     0.147 C
BRANCH  29  30
HETATM   30  C12 UNL     1      22.958  27.800  11.823  1.00  0.00     0.119 C
BRANCH  30  31
HETATM   31  C13 UNL     1      23.209  26.327  11.845  1.00  0.00     0.232 C
HETATM   32  N5  UNL     1      24.516  25.804  11.896  1.00  0.00    -0.062 NA
HETATM   33  O4  UNL     1      22.189  25.556  11.818  1.00  0.00    -0.277 OA
ENDBRANCH  30  31
ENDBRANCH  29  30
ENDBRANCH  23  29
BRANCH  24  34
HETATM   34  C15 UNL     1      19.012  27.874  12.351  1.00  0.00     0.129 C
HETATM   35  C16 UNL     1      18.168  28.391  11.288  1.00  0.00     0.098 C
BRANCH  34  36
HETATM   36  O5  UNL     1      19.575  26.715  12.085  1.00  0.00    -0.349 OA
ATOM     37  H5  UNL     1      19.256  26.207  11.349  1.00  0.00     0.219 HD
ENDBRANCH  34  36
ENDBRANCH  24  34
ENDBRANCH   1  19
BRANCH   1  38
HETATM   38  C17 UNL     1      17.635  31.240  15.343  1.00  0.00     0.012 C
HETATM   39  C18 UNL     1      17.642  31.887  13.991  1.00  0.00     0.012 C
BRANCH  38  40
HETATM   40  C19 UNL     1      16.324  31.367  16.089  1.00  0.00     0.002 C
HETATM   41  C20 UNL     1      15.616  32.653  15.754  1.00  0.00     0.005 C
ENDBRANCH  38  40
ENDBRANCH   1  38
TORSDOF 17
ENDMDL