MODEL 5
REMARK VINA RESULT: -8.207522050      3.334      7.715
REMARK  17 active torsions:
REMARK  status: ('A' for Active; 'I' for Inactive)
REMARK    1  A    between atoms: C2_2  and  C4_4
REMARK    2  A    between atoms: C4_4  and  C5_5
REMARK    3  A    between atoms: C5_5  and  O1_6
REMARK    4  A    between atoms: C5_5  and  C6_8
REMARK    5  A    between atoms: C6_8  and  O2_9
REMARK    6  A    between atoms: C6_8  and  C7_11
REMARK    7  A    between atoms: C7_11  and  C8_12
REMARK    8  A    between atoms: C14_18  and  C15_19
REMARK    9  A    between atoms: C15_19  and  N1_20
REMARK   10  A    between atoms: N3_25  and  C16_26
REMARK   11  A    between atoms: C16_26  and  C17_27
REMARK   12  A    between atoms: C17_27  and  C18_28
REMARK   13  A    between atoms: C18_28  and  C19_29
REMARK   14  A    between atoms: C19_29  and  C20_30
REMARK   15  A    between atoms: C20_30  and  C21_31
REMARK   16  A    between atoms: C21_31  and  N4_32
REMARK   17  A    between atoms: C21_31  and  C22_36
REMARK       I    between atoms: C22_36  and  N5_38
ROOT
HETATM    1  C8  UNL     1      21.453  31.141  13.847  1.00  0.00     0.081 C
HETATM    2  C9  UNL     1      22.600  32.140  13.742  1.00  0.00     0.014 C
HETATM    3  C10 UNL     1      23.475  32.064  14.943  1.00  0.00     0.001 C
HETATM    4  C11 UNL     1      23.031  32.772  16.174  1.00  0.00     0.000 C
HETATM    5  C12 UNL     1      22.066  32.063  17.047  1.00  0.00     0.002 C
HETATM    6  C13 UNL     1      20.629  32.158  16.840  1.00  0.00     0.031 C
HETATM    7  C14 UNL     1      20.161  33.161  15.788  1.00  0.00     0.127 C
HETATM    8  N3  UNL     1      19.398  32.437  14.780  1.00  0.00    -0.342 N
HETATM    9  C27 UNL     1      20.137  31.799  13.706  1.00  0.00     0.224 C
HETATM   10  O5  UNL     1      19.582  31.824  12.565  1.00  0.00    -0.273 OA
ENDROOT
BRANCH   8  11
HETATM   11  C16 UNL     1      17.968  32.215  14.822  1.00  0.00     0.126 C
BRANCH  11  12
HETATM   12  C17 UNL     1      17.450  31.251  15.814  1.00  0.00     0.020 C
BRANCH  12  13
HETATM   13  C18 UNL     1      16.139  31.831  16.364  1.00  0.00     0.002 C
BRANCH  13  14
HETATM   14  C19 UNL     1      15.874  33.203  15.833  1.00  0.00     0.002 C
BRANCH  14  15
HETATM   15  C20 UNL     1      15.532  34.147  16.945  1.00  0.00     0.042 C
BRANCH  15  16
HETATM   16  C21 UNL     1      15.876  35.583  16.601  1.00  0.00     0.275 C
BRANCH  16  17
HETATM   17  N4  UNL     1      16.696  35.712  15.447  1.00  0.00    -0.067 N
ATOM     18  H43 UNL     1      17.326  36.508  15.540  1.00  0.00     0.275 HD
ATOM     19  H42 UNL     1      17.380  34.957  15.406  1.00  0.00     0.275 HD
ATOM     20  H41 UNL     1      16.168  35.768  14.576  1.00  0.00     0.275 HD
ENDBRANCH  16  17
BRANCH  16  21
HETATM   21  C22 UNL     1      16.396  36.214  17.808  1.00  0.00     0.250 C
HETATM   22  O3  UNL     1      16.457  35.449  18.842  1.00  0.00    -0.271 OA
HETATM   23  N5  UNL     1      16.837  37.535  17.995  1.00  0.00    -0.346 N
HETATM   24  C23 UNL     1      17.340  37.989  19.278  1.00  0.00     0.152 C
HETATM   25  C26 UNL     1      16.810  38.512  16.935  1.00  0.00     0.152 C
HETATM   26  C24 UNL     1      16.648  39.280  19.643  1.00  0.00     0.187 C
HETATM   27  O4  UNL     1      16.675  40.208  18.633  1.00  0.00    -0.388 OA
HETATM   28  C25 UNL     1      17.382  39.800  17.528  1.00  0.00     0.187 C
ENDBRANCH  16  21
ENDBRANCH  15  16
ENDBRANCH  14  15
ENDBRANCH  13  14
ENDBRANCH  12  13
ENDBRANCH  11  12
ENDBRANCH   8  11
BRANCH   7  29
HETATM   29  C15 UNL     1      19.462  34.287  16.480  1.00  0.00     0.104 C
BRANCH  29  30
HETATM   30  N1  UNL     1      19.057  34.099  17.805  1.00  0.00    -0.320 N
HETATM   31  N2  UNL     1      19.448  34.765  18.793  1.00  0.00    -0.346 N
ATOM     32  H22 UNL     1      20.119  35.506  18.595  1.00  0.00     0.176 HD
ATOM     33  H21 UNL     1      19.152  34.628  19.759  1.00  0.00     0.176 HD
ATOM     34  H1  UNL     1      18.385  33.353  17.983  1.00  0.00     0.185 HD
ENDBRANCH  29  30
ENDBRANCH   7  29
BRANCH   1  35
HETATM   35  C7  UNL     1      21.641  30.009  12.840  1.00  0.00     0.052 C
BRANCH  35  36
HETATM   36  C6  UNL     1      21.388  28.643  13.390  1.00  0.00     0.175 C
BRANCH  36  37
HETATM   37  C5  UNL     1      21.969  27.593  12.475  1.00  0.00     0.068 C
BRANCH  37  38
HETATM   38  C4  UNL     1      22.786  28.018  11.352  1.00  0.00     0.012 C
BRANCH  38  39
HETATM   39  C2  UNL     1      24.111  27.511  11.051  1.00  0.00     0.002 C
HETATM   40  C1  UNL     1      24.255  26.479   9.966  1.00  0.00     0.013 C
HETATM   41  C3  UNL     1      24.935  27.031  12.222  1.00  0.00     0.013 C
ENDBRANCH  38  39
ENDBRANCH  37  38
BRANCH  37  42
HETATM   42  O1  UNL     1      21.055  26.568  12.284  1.00  0.00    -0.363 OA
ATOM     43  H1  UNL     1      20.141  26.728  12.486  1.00  0.00     0.217 HD
ENDBRANCH  37  42
ENDBRANCH  36  37
BRANCH  36  44
HETATM   44  O2  UNL     1      21.823  28.490  14.692  1.00  0.00    -0.389 OA
ATOM     45  H2  UNL     1      22.266  29.268  15.012  1.00  0.00     0.210 HD
ENDBRANCH  36  44
ENDBRANCH  35  36
ENDBRANCH   1  35
TORSDOF 17
ENDMDL