MODEL 3
REMARK VINA RESULT: -8.099705291      1.289      3.495
REMARK  15 active torsions:
REMARK  status: ('A' for Active; 'I' for Inactive)
REMARK    1  A    between atoms: C2_2  and  O1_3
REMARK    2  A    between atoms: O1_3  and  C3_4
REMARK    3  A    between atoms: C3_4  and  C4_5
REMARK       I    between atoms: C4_5  and  N1_7
REMARK    4  A    between atoms: N1_7  and  C5_9
REMARK    5  A    between atoms: C5_9  and  C6_10
REMARK    6  A    between atoms: C5_9  and  C18_27
REMARK    7  A    between atoms: C6_10  and  C7_11
REMARK    8  A    between atoms: C7_11  and  C8_12
REMARK    9  A    between atoms: C8_12  and  C9_13
REMARK   10  A    between atoms: C9_13  and  C10_14
REMARK       I    between atoms: C10_14  and  N2_16
REMARK   11  A    between atoms: N2_16  and  C11_18
REMARK   12  A    between atoms: C11_18  and  C12_19
REMARK   13  A    between atoms: C12_19  and  C13_20
REMARK   14  A    between atoms: C13_20  and  N3_21
REMARK       I    between atoms: C18_27  and  N4_29
REMARK   15  A    between atoms: N4_29  and  C19_31
ROOT
HETATM    1  C5  UNL     1      20.625  30.677  14.415  1.00  0.00     0.176 C
ENDROOT
BRANCH   1   2
HETATM    2  N1  UNL     1      21.648  31.310  15.206  1.00  0.00    -0.346 N
HETATM    3  C4  UNL     1      22.441  32.400  14.765  1.00  0.00     0.242 C
HETATM    4  O2  UNL     1      22.291  32.894  13.623  1.00  0.00    -0.271 OA
ATOM      5  H1  UNL     1      21.812  30.951  16.146  1.00  0.00     0.163 HD
BRANCH   3   6
HETATM    6  C3  UNL     1      23.485  33.002  15.640  1.00  0.00     0.270 C
BRANCH   6   7
HETATM    7  O1  UNL     1      23.038  33.172  16.936  1.00  0.00    -0.382 OA
BRANCH   7   8
HETATM    8  C2  UNL     1      22.141  34.239  16.947  1.00  0.00     0.163 C
HETATM    9  C1  UNL     1      21.829  34.619  18.379  1.00  0.00     0.033 C
ENDBRANCH   7   8
ENDBRANCH   6   7
ENDBRANCH   3   6
ENDBRANCH   1   2
BRANCH   1  10
HETATM   10  C6  UNL     1      20.518  29.206  14.654  1.00  0.00     0.035 C
BRANCH  10  11
HETATM   11  C7  UNL     1      21.709  28.401  14.265  1.00  0.00     0.003 C
BRANCH  11  12
HETATM   12  C8  UNL     1      22.200  28.663  12.880  1.00  0.00     0.009 C
BRANCH  12  13
HETATM   13  C9  UNL     1      23.453  27.927  12.502  1.00  0.00     0.103 C
BRANCH  13  14
HETATM   14  C10 UNL     1      23.238  26.647  11.830  1.00  0.00     0.217 C
HETATM   15  O3  UNL     1      24.094  25.728  11.864  1.00  0.00    -0.274 OA
HETATM   16  N2  UNL     1      22.031  26.407  11.108  1.00  0.00    -0.361 N
ATOM     17  H2  UNL     1      21.317  27.135  11.064  1.00  0.00     0.162 HD
BRANCH  16  18
HETATM   18  C11 UNL     1      21.805  25.149  10.440  1.00  0.00     0.124 C
BRANCH  18  19
HETATM   19  C12 UNL     1      20.423  24.632  10.785  1.00  0.00     0.050 C
BRANCH  19  20
HETATM   20  C13 UNL     1      19.411  25.160   9.796  1.00  0.00     0.274 C
BRANCH  20  21
HETATM   21  N3  UNL     1      18.442  26.029  10.416  1.00  0.00     0.092 N
HETATM   22  C14 UNL     1      18.414  25.930  11.841  1.00  0.00     0.298 C
HETATM   23  C15 UNL     1      18.337  27.321  12.427  1.00  0.00     0.198 C
HETATM   24  O4  UNL     1      17.273  28.047  11.934  1.00  0.00    -0.388 OA
HETATM   25  C16 UNL     1      17.247  28.080  10.563  1.00  0.00     0.198 C
HETATM   26  C17 UNL     1      18.433  27.370   9.924  1.00  0.00     0.298 C
ENDBRANCH  20  21
ENDBRANCH  19  20
ENDBRANCH  18  19
ENDBRANCH  16  18
ENDBRANCH  13  14
ENDBRANCH  12  13
ENDBRANCH  11  12
ENDBRANCH  10  11
ENDBRANCH   1  10
BRANCH   1  27
HETATM   27  C18 UNL     1      19.315  31.325  14.685  1.00  0.00     0.241 C
HETATM   28  O5  UNL     1      18.327  31.004  13.981  1.00  0.00    -0.271 OA
HETATM   29  N4  UNL     1      19.174  32.294  15.723  1.00  0.00    -0.350 N
ATOM     30  H4  UNL     1      19.991  32.539  16.282  1.00  0.00     0.163 HD
BRANCH  29  31
HETATM   31  C19 UNL     1      17.922  32.936  16.005  1.00  0.00     0.034 C
HETATM   32  C20 UNL     1      16.791  32.008  16.302  1.00  0.00     0.035 C
HETATM   33  C21 UNL     1      15.538  32.812  16.537  1.00  0.00    -0.012 C
HETATM   34  C22 UNL     1      15.221  33.684  15.348  1.00  0.00     0.009 C
HETATM   35  C26 UNL     1      15.693  33.595  17.802  1.00  0.00     0.009 C
HETATM   36  C23 UNL     1      16.336  34.683  15.209  1.00  0.00    -0.012 C
HETATM   37  C24 UNL     1      16.478  35.494  16.480  1.00  0.00     0.009 C
HETATM   38  C28 UNL     1      17.600  33.939  14.904  1.00  0.00     0.035 C
HETATM   39  C25 UNL     1      16.856  34.545  17.610  1.00  0.00    -0.012 C
HETATM   40  C27 UNL     1      18.101  33.790  17.270  1.00  0.00     0.035 C
ENDBRANCH  29  31
ENDBRANCH   1  27
TORSDOF 15
ENDMDL