MODEL 2
REMARK VINA RESULT: -7.819046563      1.498      1.882
REMARK  16 active torsions:
REMARK  status: ('A' for Active; 'I' for Inactive)
REMARK    1  A    between atoms: C2_2  and  C3_3
REMARK    2  A    between atoms: C3_3  and  C4_4
REMARK    3  A    between atoms: C4_4  and  C5_5
REMARK    4  A    between atoms: C5_5  and  C6_6
REMARK    5  A    between atoms: C7_7  and  C8_8
REMARK    6  A    between atoms: C8_8  and  C10_10
REMARK    7  A    between atoms: N1_13  and  C12_14
REMARK    8  A    between atoms: C12_14  and  O2_15
REMARK    9  A    between atoms: C12_14  and  C13_17
REMARK   10  A    between atoms: C13_17  and  C16_20
REMARK   11  A    between atoms: N2_24  and  C20_25
REMARK   12  A    between atoms: C20_25  and  C21_26
REMARK   13  A    between atoms: N4_33  and  C26_34
REMARK   14  A    between atoms: C26_34  and  C27_35
REMARK   15  A    between atoms: C27_35  and  N5_36
REMARK   16  A    between atoms: N5_36  and  C28_38
ROOT
HETATM    1  C6  UNL     1      20.290  28.867  14.266  1.00  0.00     0.250 C
HETATM    2  C7  UNL     1      20.266  30.337  14.737  1.00  0.00     0.147 C
HETATM    3  N1  UNL     1      18.947  30.628  15.092  1.00  0.00    -0.375 N
HETATM    4  C23 UNL     1      18.020  29.510  14.901  1.00  0.00     0.155 C
HETATM    5  C24 UNL     1      18.090  28.755  13.633  1.00  0.00     0.237 C
HETATM    6  C25 UNL     1      17.448  27.406  13.870  1.00  0.00     0.044 C
HETATM    7  N4  UNL     1      19.441  28.694  13.143  1.00  0.00     0.102 N
ENDROOT
BRANCH   3   8
HETATM    8  C12 UNL     1      18.504  31.529  16.025  1.00  0.00     0.224 C
BRANCH   8   9
HETATM    9  O2  UNL     1      19.585  31.555  17.014  1.00  0.00    -0.376 OA
ATOM     10  H2  UNL     1      19.257  31.002  17.713  1.00  0.00     0.212 HD
ENDBRANCH   8   9
BRANCH   8  11
HETATM   11  C13 UNL     1      18.109  32.922  15.953  1.00  0.00     0.001 C
HETATM   12  C14 UNL     1      16.717  33.098  16.684  1.00  0.00     0.020 C
HETATM   13  C15 UNL     1      17.670  33.142  14.463  1.00  0.00     0.020 C
BRANCH  11  14
HETATM   14  C16 UNL     1      18.916  34.098  16.243  1.00  0.00     0.026 C
HETATM   15  C17 UNL     1      18.157  34.949  17.288  1.00  0.00     0.009 C
HETATM   16  C18 UNL     1      18.684  34.848  18.668  1.00  0.00     0.031 C
HETATM   17  C19 UNL     1      20.171  35.202  18.765  1.00  0.00     0.273 C
HETATM   18  N2  UNL     1      20.603  35.328  17.417  1.00  0.00     0.097 N
HETATM   19  C22 UNL     1      20.284  34.045  16.760  1.00  0.00     0.278 C
BRANCH  18  20
HETATM   20  C20 UNL     1      21.982  35.657  17.318  1.00  0.00     0.371 C
BRANCH  20  21
HETATM   21  C21 UNL     1      22.249  37.020  17.785  1.00  0.00     0.259 C
HETATM   22  N3  UNL     1      22.996  37.295  18.975  1.00  0.00    -0.061 NA
HETATM   23  O3  UNL     1      21.824  38.018  17.146  1.00  0.00    -0.275 OA
ENDBRANCH  20  21
ENDBRANCH  18  20
ENDBRANCH  11  14
ENDBRANCH   8  11
ENDBRANCH   3   8
BRANCH   2  24
HETATM   24  C8  UNL     1      20.940  31.209  13.727  1.00  0.00    -0.014 C
HETATM   25  C9  UNL     1      20.115  31.799  12.642  1.00  0.00     0.049 C
BRANCH  24  26
HETATM   26  C10 UNL     1      22.046  32.060  14.203  1.00  0.00     0.149 C
HETATM   27  C11 UNL     1      22.775  31.646  15.455  1.00  0.00     0.096 C
HETATM   28  O1  UNL     1      22.377  33.052  13.635  1.00  0.00    -0.293 OA
ENDBRANCH  24  26
ENDBRANCH   2  24
BRANCH   1  29
HETATM   29  C5  UNL     1      21.652  28.318  14.048  1.00  0.00     0.038 C
BRANCH  29  30
HETATM   30  C4  UNL     1      22.233  28.664  12.698  1.00  0.00     0.002 C
BRANCH  30  31
HETATM   31  C3  UNL     1      23.538  27.932  12.479  1.00  0.00    -0.000 C
BRANCH  31  32
HETATM   32  C2  UNL     1      23.463  26.860  11.435  1.00  0.00    -0.005 C
HETATM   33  C1  UNL     1      24.733  26.059  11.347  1.00  0.00     0.005 C
ENDBRANCH  31  32
ENDBRANCH  30  31
ENDBRANCH  29  30
ENDBRANCH   1  29
BRANCH   7  34
HETATM   34  C26 UNL     1      19.754  27.667  12.231  1.00  0.00     0.293 C
BRANCH  34  35
HETATM   35  C27 UNL     1      19.095  27.837  10.907  1.00  0.00     0.152 C
BRANCH  35  36
HETATM   36  N5  UNL     1      19.581  26.794   9.990  1.00  0.00    -0.367 N
ATOM     37  H5  UNL     1      19.570  26.953   8.983  1.00  0.00     0.161 HD
BRANCH  36  38
HETATM   38  C28 UNL     1      20.069  25.560  10.513  1.00  0.00     0.348 C
HETATM   39  O4  UNL     1      19.856  24.478   9.927  1.00  0.00    -0.284 OA
ENDBRANCH  36  38
ENDBRANCH  35  36
ENDBRANCH  34  35
ENDBRANCH   7  34
TORSDOF 16
ENDMDL