MODEL 3
REMARK VINA RESULT: -7.320190287      1.360      1.463
REMARK  12 active torsions:
REMARK  status: ('A' for Active; 'I' for Inactive)
REMARK    1  A    between atoms: O1_2  and  C2_3
REMARK    2  A    between atoms: N2_12  and  C8_13
REMARK    3  A    between atoms: C8_13  and  C9_14
REMARK    4  A    between atoms: C9_14  and  C10_15
REMARK    5  A    between atoms: C10_15  and  C11_16
REMARK    6  A    between atoms: C11_16  and  C12_17
REMARK    7  A    between atoms: C12_17  and  C13_18
REMARK    8  A    between atoms: C13_18  and  C14_19
REMARK    9  A    between atoms: C17_24  and  N4_25
REMARK   10  A    between atoms: N4_25  and  C18_28
REMARK   11  A    between atoms: C18_28  and  C19_29
REMARK   12  A    between atoms: C19_29  and  N5_30
ROOT
HETATM    1  C2  UNL     1      17.372  32.153  15.741  1.00  0.00     0.045 C
HETATM    2  C3  UNL     1      17.364  32.226  14.427  1.00  0.00     0.032 C
HETATM    3  C4  UNL     1      18.513  32.374  13.558  1.00  0.00     0.009 C
HETATM    4  C5  UNL     1      19.538  31.521  13.458  1.00  0.00    -0.039 C
HETATM    5  C6  UNL     1      20.620  31.890  12.487  1.00  0.00     0.160 C
HETATM    6  N1  UNL     1      21.315  30.765  11.981  1.00  0.00    -0.339 N
ATOM      7  H1  UNL     1      22.123  30.898  11.372  1.00  0.00     0.164 HD
HETATM    8  C7  UNL     1      20.894  29.454  12.316  1.00  0.00     0.322 C
HETATM    9  O2  UNL     1      21.347  28.482  11.712  1.00  0.00    -0.247 OA
HETATM   10  N2  UNL     1      19.951  29.193  13.340  1.00  0.00    -0.305 N
HETATM   11  C15 UNL     1      19.617  30.267  14.258  1.00  0.00     0.126 C
HETATM   12  C16 UNL     1      20.744  30.420  15.243  1.00  0.00     0.063 C
HETATM   13  C17 UNL     1      20.362  30.416  16.667  1.00  0.00     0.188 C
HETATM   14  C24 UNL     1      18.981  30.831  17.012  1.00  0.00     0.039 C
HETATM   15  C25 UNL     1      18.634  32.220  16.525  1.00  0.00     0.066 C
ENDROOT
BRANCH  13  16
HETATM   16  N4  UNL     1      21.276  31.326  17.380  1.00  0.00    -0.069 N
ATOM     17  H42 UNL     1      20.769  31.990  17.965  1.00  0.00     0.277 HD
ATOM     18  H41 UNL     1      21.796  30.843  18.112  1.00  0.00     0.277 HD
BRANCH  16  19
HETATM   19  C18 UNL     1      22.159  31.996  16.448  1.00  0.00     0.252 C
BRANCH  19  20
HETATM   20  C19 UNL     1      22.756  33.181  17.173  1.00  0.00     0.144 C
BRANCH  20  21
HETATM   21  N5  UNL     1      21.701  34.069  17.539  1.00  0.00    -0.407 N
HETATM   22  C20 UNL     1      21.796  34.663  18.818  1.00  0.00     0.143 C
HETATM   23  C21 UNL     1      22.387  36.063  18.651  1.00  0.00     0.187 C
HETATM   24  O4  UNL     1      21.400  36.785  17.971  1.00  0.00    -0.388 OA
HETATM   25  C22 UNL     1      21.224  36.346  16.679  1.00  0.00     0.187 C
HETATM   26  C23 UNL     1      21.215  34.890  16.482  1.00  0.00     0.143 C
ENDBRANCH  20  21
ENDBRANCH  19  20
ENDBRANCH  16  19
ENDBRANCH  13  16
BRANCH  10  27
HETATM   27  C8  UNL     1      19.365  27.937  13.489  1.00  0.00     0.069 C
BRANCH  27  28
HETATM   28  C9  UNL     1      18.024  27.610  13.049  1.00  0.00     0.045 C
BRANCH  28  29
HETATM   29  C10 UNL     1      17.951  27.396  11.555  1.00  0.00     0.005 C
BRANCH  29  30
HETATM   30  C11 UNL     1      18.112  25.922  11.202  1.00  0.00     0.001 C
BRANCH  30  31
HETATM   31  C12 UNL     1      19.460  25.801  10.537  1.00  0.00     0.009 C
BRANCH  31  32
HETATM   32  C13 UNL     1      20.499  25.099  11.343  1.00  0.00     0.099 C
BRANCH  32  33
HETATM   33  C14 UNL     1      21.775  24.897  10.663  1.00  0.00     0.231 C
HETATM   34  N3  UNL     1      21.775  24.614   9.244  1.00  0.00    -0.062 NA
HETATM   35  O3  UNL     1      22.900  24.944  11.195  1.00  0.00    -0.277 OA
ENDBRANCH  32  33
ENDBRANCH  31  32
ENDBRANCH  30  31
ENDBRANCH  29  30
ENDBRANCH  28  29
ENDBRANCH  27  28
ENDBRANCH  10  27
BRANCH   1  36
HETATM   36  O1  UNL     1      16.175  32.010  16.429  1.00  0.00    -0.360 OA
HETATM   37  C1  UNL     1      15.603  33.171  16.996  1.00  0.00     0.209 C
ENDBRANCH   1  36
TORSDOF 12
ENDMDL