MODEL 1
REMARK VINA RESULT: -8.103704726      0.000      0.000
REMARK  13 active torsions:
REMARK  status: ('A' for Active; 'I' for Inactive)
REMARK    1  A    between atoms: C2_2  and  C3_3
REMARK    2  A    between atoms: C4_4  and  C5_5
REMARK    3  A    between atoms: C6_6  and  C7_7
REMARK       I    between atoms: C7_7  and  N1_9
REMARK    4  A    between atoms: N1_9  and  C8_11
REMARK    5  A    between atoms: C8_11  and  C9_12
REMARK    6  A    between atoms: C8_11  and  C11_14
REMARK       I    between atoms: C11_14  and  N2_16
REMARK    7  A    between atoms: N2_16  and  C12_18
REMARK    8  A    between atoms: C12_18  and  C13_19
REMARK    9  A    between atoms: C12_18  and  C16_23
REMARK   10  A    between atoms: C13_19  and  C14_20
REMARK   11  A    between atoms: C14_20  and  S1_21
REMARK   12  A    between atoms: C16_23  and  C17_25
REMARK   13  A    between atoms: C18_28  and  O5_29
ROOT
HETATM    1  C7  UNL     1      20.261  31.035  15.843  1.00  0.00     0.257 C
HETATM    2  O1  UNL     1      20.051  30.147  16.750  1.00  0.00    -0.267 OA
HETATM    3  N1  UNL     1      20.117  30.598  14.511  1.00  0.00    -0.344 N
ATOM      4  H1  UNL     1      20.269  31.257  13.747  1.00  0.00     0.163 HD
ENDROOT
BRANCH   3   5
HETATM    5  C8  UNL     1      19.758  29.239  14.209  1.00  0.00     0.176 C
BRANCH   5   6
HETATM    6  C9  UNL     1      18.254  29.096  14.162  1.00  0.00     0.030 C
HETATM    7  C10 UNL     1      17.702  30.175  13.287  1.00  0.00     0.007 C
ENDBRANCH   5   6
BRANCH   5   8
HETATM    8  C11 UNL     1      20.420  28.703  13.000  1.00  0.00     0.241 C
HETATM    9  O2  UNL     1      21.034  29.530  12.279  1.00  0.00    -0.271 OA
HETATM   10  N2  UNL     1      20.393  27.351  12.634  1.00  0.00    -0.347 N
ATOM     11  H2  UNL     1      19.895  26.678  13.216  1.00  0.00     0.163 HD
BRANCH  10  12
HETATM   12  C12 UNL     1      21.075  26.898  11.422  1.00  0.00     0.164 C
BRANCH  12  13
HETATM   13  C13 UNL     1      20.095  26.092  10.573  1.00  0.00     0.043 C
BRANCH  13  14
HETATM   14  C14 UNL     1      18.701  26.277  11.072  1.00  0.00     0.076 C
BRANCH  14  15
HETATM   15  S1  UNL     1      17.755  27.421  10.011  1.00  0.00    -0.173 SA
HETATM   16  C15 UNL     1      18.220  27.072   8.299  1.00  0.00     0.089 C
ENDBRANCH  14  15
ENDBRANCH  13  14
ENDBRANCH  12  13
BRANCH  12  17
HETATM   17  C16 UNL     1      22.220  26.023  11.754  1.00  0.00     0.236 C
HETATM   18  O3  UNL     1      22.024  24.761  11.849  1.00  0.00    -0.285 OA
BRANCH  17  19
HETATM   19  C17 UNL     1      23.578  26.480  11.989  1.00  0.00     0.302 C
HETATM   20  N3  UNL     1      24.718  25.663  11.786  1.00  0.00    -0.054 NA
HETATM   21  O4  UNL     1      23.757  27.651  12.390  1.00  0.00    -0.268 OA
ENDBRANCH  17  19
ENDBRANCH  12  17
ENDBRANCH  10  12
ENDBRANCH   5   8
ENDBRANCH   3   5
BRANCH   1  22
HETATM   22  C6  UNL     1      20.621  32.386  16.227  1.00  0.00     0.092 A
HETATM   23  C5  UNL     1      19.772  33.289  16.765  1.00  0.00     0.052 A
HETATM   24  N4  UNL     1      20.268  34.476  17.298  1.00  0.00    -0.354 N
HETATM   25  C21 UNL     1      21.559  34.768  17.297  1.00  0.00     0.010 A
HETATM   26  C23 UNL     1      19.314  35.399  17.865  1.00  0.00     0.156 C
HETATM   27  C20 UNL     1      22.423  33.855  16.745  1.00  0.00     0.062 A
HETATM   28  C22 UNL     1      22.090  36.044  17.870  1.00  0.00     0.068 C
HETATM   29  C18 UNL     1      21.998  32.663  16.206  1.00  0.00     0.088 A
BRANCH  23  30
HETATM   30  C4  UNL     1      18.328  33.197  16.659  1.00  0.00     0.031 C
HETATM   31  C3  UNL     1      17.620  33.257  15.565  1.00  0.00     0.002 C
BRANCH  31  32
HETATM   32  C2  UNL     1      16.150  33.141  15.594  1.00  0.00    -0.010 C
HETATM   33  C1  UNL     1      15.572  32.227  16.310  1.00  0.00     0.011 C
ENDBRANCH  31  32
ENDBRANCH  23  30
BRANCH  29  34
HETATM   34  O5  UNL     1      22.843  31.740  15.653  1.00  0.00    -0.355 OA
HETATM   35  C19 UNL     1      23.550  32.071  14.477  1.00  0.00     0.210 C
ENDBRANCH  29  34
ENDBRANCH   1  22
TORSDOF 13
ENDMDL