MODEL 4
REMARK VINA RESULT: -7.564988759      6.009     10.816
REMARK  15 active torsions:
REMARK  status: ('A' for Active; 'I' for Inactive)
REMARK    1  A    between atoms: C2_2  and  C3_3
REMARK    2  A    between atoms: C3_3  and  O1_4
REMARK    3  A    between atoms: O1_4  and  C4_5
REMARK    4  A    between atoms: C4_5  and  C5_6
REMARK    5  A    between atoms: C5_6  and  C6_7
REMARK    6  A    between atoms: C6_7  and  N1_8
REMARK    7  A    between atoms: N1_8  and  C7_10
REMARK    8  A    between atoms: N3_14  and  C9_16
REMARK    9  A    between atoms: C9_16  and  C10_17
REMARK   10  A    between atoms: C10_17  and  C11_18
REMARK   11  A    between atoms: C11_18  and  N4_19
REMARK   12  A    between atoms: N5_22  and  C14_23
REMARK   13  A    between atoms: C14_23  and  C15_24
REMARK   14  A    between atoms: C22_33  and  N7_34
REMARK   15  A    between atoms: N7_34  and  C23_36
ROOT
HETATM    1  C7  UNL     1      20.830  36.729  16.701  1.00  0.00     0.707 A
HETATM    2  N2  UNL     1      19.657  36.449  17.351  1.00  0.00    -0.022 N
ATOM      3  H2  UNL     1      18.960  37.188  17.438  1.00  0.00     0.203 HD
HETATM    4  C8  UNL     1      19.387  35.250  17.877  1.00  0.00     0.707 A
HETATM    5  N3  UNL     1      18.326  34.919  18.487  1.00  0.00    -0.225 N
ATOM      6  H3  UNL     1      18.266  33.962  18.835  1.00  0.00     0.177 HD
HETATM    7  N6  UNL     1      20.363  34.290  17.732  1.00  0.00    -0.022 N
ATOM      8  H6  UNL     1      20.196  33.362  18.120  1.00  0.00     0.203 HD
HETATM    9  C22 UNL     1      21.514  34.518  17.109  1.00  0.00     0.707 A
HETATM   10  N8  UNL     1      21.725  35.756  16.599  1.00  0.00    -0.022 N
ATOM     11  H8  UNL     1      22.605  35.946  16.119  1.00  0.00     0.203 HD
ENDROOT
BRANCH   5  12
HETATM   12  C9  UNL     1      17.221  35.767  18.726  1.00  0.00     0.140 C
BRANCH  12  13
HETATM   13  C10 UNL     1      15.957  35.017  18.323  1.00  0.00     0.050 C
BRANCH  13  14
HETATM   14  C11 UNL     1      15.496  35.529  16.985  1.00  0.00     0.274 C
BRANCH  14  15
HETATM   15  N4  UNL     1      15.383  34.432  16.072  1.00  0.00     0.094 N
HETATM   16  C12 UNL     1      16.207  34.518  14.904  1.00  0.00     0.293 C
HETATM   17  C13 UNL     1      17.570  33.869  15.128  1.00  0.00     0.157 C
HETATM   18  N5  UNL     1      17.352  32.466  15.316  1.00  0.00    -0.370 N
HETATM   19  C20 UNL     1      16.145  32.098  15.914  1.00  0.00     0.093 C
HETATM   20  C21 UNL     1      15.591  33.194  16.801  1.00  0.00     0.317 C
BRANCH  18  21
HETATM   21  C14 UNL     1      17.962  31.619  14.392  1.00  0.00     0.068 C
BRANCH  21  22
HETATM   22  C15 UNL     1      18.164  30.203  14.778  1.00  0.00     0.024 C
HETATM   23  C16 UNL     1      18.173  29.381  13.479  1.00  0.00     0.010 C
HETATM   24  C17 UNL     1      19.442  28.592  13.476  1.00  0.00     0.001 C
HETATM   25  C18 UNL     1      20.402  29.483  14.235  1.00  0.00     0.001 C
HETATM   26  C19 UNL     1      19.521  29.953  15.385  1.00  0.00     0.010 C
ENDBRANCH  21  22
ENDBRANCH  18  21
ENDBRANCH  14  15
ENDBRANCH  13  14
ENDBRANCH  12  13
ENDBRANCH   5  12
BRANCH   1  27
HETATM   27  N1  UNL     1      20.966  37.905  16.246  1.00  0.00    -0.225 N
ATOM     28  H1  UNL     1      21.315  38.002  15.292  1.00  0.00     0.177 HD
BRANCH  27  29
HETATM   29  C6  UNL     1      20.669  39.114  16.970  1.00  0.00     0.140 C
BRANCH  29  30
HETATM   30  C5  UNL     1      20.109  40.103  15.939  1.00  0.00     0.046 C
BRANCH  30  31
HETATM   31  C4  UNL     1      18.615  40.127  16.027  1.00  0.00     0.169 C
BRANCH  31  32
HETATM   32  O1  UNL     1      18.061  38.960  16.503  1.00  0.00    -0.391 OA
BRANCH  32  33
HETATM   33  C3  UNL     1      16.791  39.076  16.997  1.00  0.00     0.167 C
BRANCH  33  34
HETATM   34  C2  UNL     1      16.186  40.454  16.866  1.00  0.00     0.022 C
HETATM   35  C1  UNL     1      15.109  40.628  17.932  1.00  0.00     0.007 C
ENDBRANCH  33  34
ENDBRANCH  32  33
ENDBRANCH  31  32
ENDBRANCH  30  31
ENDBRANCH  29  30
ENDBRANCH  27  29
ENDBRANCH   1  27
BRANCH   9  36
HETATM   36  N7  UNL     1      22.383  33.569  17.012  1.00  0.00    -0.220 N
ATOM     37  H7  UNL     1      23.195  33.612  17.627  1.00  0.00     0.178 HD
BRANCH  36  38
HETATM   38  C23 UNL     1      22.298  32.460  16.110  1.00  0.00     0.099 A
HETATM   39  C24 UNL     1      22.048  32.758  14.684  1.00  0.00     0.028 A
HETATM   40  C25 UNL     1      23.436  32.421  15.083  1.00  0.00     0.028 A
ENDBRANCH  36  38
ENDBRANCH   9  36
TORSDOF 15
ENDMDL