MODEL 3
REMARK VINA RESULT: -8.374804257      2.240      5.165
REMARK  15 active torsions:
REMARK  status: ('A' for Active; 'I' for Inactive)
REMARK    1  A    between atoms: C2_2  and  C3_3
REMARK    2  A    between atoms: C3_3  and  C4_4
REMARK    3  A    between atoms: C4_4  and  C5_5
REMARK    4  A    between atoms: C5_5  and  C6_6
REMARK    5  A    between atoms: C6_6  and  N1_7
REMARK    6  A    between atoms: N1_7  and  C7_9
REMARK    7  A    between atoms: C8_12  and  C9_13
REMARK    8  A    between atoms: C9_13  and  N3_14
REMARK    9  A    between atoms: N3_14  and  S1_16
REMARK   10  A    between atoms: S1_16  and  N4_19
REMARK   11  A    between atoms: C15_25  and  N5_26
REMARK   12  A    between atoms: N5_26  and  C16_28
REMARK   13  A    between atoms: C16_28  and  C17_29
REMARK   14  A    between atoms: C17_29  and  C18_30
REMARK   15  A    between atoms: C18_30  and  N6_31
ROOT
HETATM    1  C7  UNL     1      21.895  28.209  13.368  1.00  0.00     0.679 A
HETATM    2  N2  UNL     1      20.888  28.029  12.499  1.00  0.00    -0.194 N
ATOM      3  H2  UNL     1      21.107  27.757  11.541  1.00  0.00     0.184 HD
HETATM    4  C8  UNL     1      19.599  28.195  12.849  1.00  0.00     0.048 A
HETATM    5  C14 UNL     1      19.338  28.561  14.144  1.00  0.00     0.076 A
HETATM    6  C15 UNL     1      20.355  28.765  15.100  1.00  0.00     0.122 A
HETATM    7  N7  UNL     1      21.593  28.572  14.642  1.00  0.00    -0.177 N
ATOM      8  H7  UNL     1      22.366  28.706  15.294  1.00  0.00     0.186 HD
ENDROOT
BRANCH   4   9
HETATM    9  C9  UNL     1      18.491  27.994  11.852  1.00  0.00     0.191 C
BRANCH   9  10
HETATM   10  N3  UNL     1      19.080  27.403  10.666  1.00  0.00    -0.301 N
ATOM     11  H3  UNL     1      19.482  27.927   9.888  1.00  0.00     0.173 HD
BRANCH  10  12
HETATM   12  S1  UNL     1      19.002  25.682  10.768  1.00  0.00     0.299 S
HETATM   13  O1  UNL     1      18.032  25.336  11.834  1.00  0.00    -0.188 OA
HETATM   14  O2  UNL     1      20.352  25.097  11.050  1.00  0.00    -0.188 OA
BRANCH  12  15
HETATM   15  N4  UNL     1      18.508  25.094   9.220  1.00  0.00    -0.194 NA
HETATM   16  C10 UNL     1      17.431  25.857   8.667  1.00  0.00     0.109 C
HETATM   17  C11 UNL     1      17.519  25.661   7.154  1.00  0.00     0.017 C
HETATM   18  C12 UNL     1      18.824  24.877   6.965  1.00  0.00     0.017 C
HETATM   19  C13 UNL     1      19.566  25.329   8.223  1.00  0.00     0.109 C
ENDBRANCH  12  15
ENDBRANCH  10  12
ENDBRANCH   9  10
ENDBRANCH   4   9
BRANCH   1  20
HETATM   20  N1  UNL     1      23.129  28.041  13.041  1.00  0.00    -0.226 N
ATOM     21  H1  UNL     1      23.870  28.500  13.570  1.00  0.00     0.177 HD
BRANCH  20  22
HETATM   22  C6  UNL     1      23.449  27.203  11.926  1.00  0.00     0.138 C
BRANCH  22  23
HETATM   23  C5  UNL     1      24.903  26.756  11.941  1.00  0.00     0.020 C
BRANCH  23  24
HETATM   24  C4  UNL     1      25.131  26.033  10.633  1.00  0.00     0.002 C
BRANCH  24  25
HETATM   25  C3  UNL     1      23.824  25.893   9.921  1.00  0.00    -0.000 C
BRANCH  25  26
HETATM   26  C2  UNL     1      23.772  24.571   9.194  1.00  0.00    -0.005 C
HETATM   27  C1  UNL     1      23.496  24.884   7.734  1.00  0.00     0.005 C
ENDBRANCH  25  26
ENDBRANCH  24  25
ENDBRANCH  23  24
ENDBRANCH  22  23
ENDBRANCH  20  22
ENDBRANCH   1  20
BRANCH   6  28
HETATM   28  N5  UNL     1      20.041  29.107  16.291  1.00  0.00    -0.355 N
ATOM     29  H5  UNL     1      19.792  28.367  16.948  1.00  0.00     0.166 HD
BRANCH  28  30
HETATM   30  C16 UNL     1      20.014  30.432  16.758  1.00  0.00     0.064 C
BRANCH  30  31
HETATM   31  C17 UNL     1      18.632  31.054  16.760  1.00  0.00     0.074 C
BRANCH  31  32
HETATM   32  C18 UNL     1      18.662  32.512  16.449  1.00  0.00     0.277 C
BRANCH  32  33
HETATM   33  N6  UNL     1      17.661  33.238  17.152  1.00  0.00     0.092 N
HETATM   34  C19 UNL     1      16.384  33.294  16.520  1.00  0.00     0.298 C
HETATM   35  C20 UNL     1      15.326  33.721  17.518  1.00  0.00     0.198 C
HETATM   36  O3  UNL     1      15.885  34.290  18.664  1.00  0.00    -0.388 OA
HETATM   37  C21 UNL     1      16.879  35.188  18.326  1.00  0.00     0.198 C
HETATM   38  C22 UNL     1      18.057  34.507  17.661  1.00  0.00     0.298 C
ENDBRANCH  32  33
ENDBRANCH  31  32
ENDBRANCH  30  31
ENDBRANCH  28  30
ENDBRANCH   6  28
TORSDOF 15
ENDMDL