MODEL 1
REMARK VINA RESULT: -8.422014153      0.000      0.000
REMARK  13 active torsions:
REMARK  status: ('A' for Active; 'I' for Inactive)
REMARK    1  A    between atoms: C2_2  and  C3_3
REMARK    2  A    between atoms: C5_7  and  C6_8
REMARK       I    between atoms: C6_8  and  N1_10
REMARK    3  A    between atoms: C7_12  and  C8_13
REMARK    4  A    between atoms: C8_13  and  C9_14
REMARK    5  A    between atoms: C9_14  and  C10_15
REMARK    6  A    between atoms: C10_15  and  N2_16
REMARK    7  A    between atoms: C13_22  and  C14_23
REMARK       I    between atoms: C14_23  and  N5_25
REMARK    8  A    between atoms: N5_25  and  C15_27
REMARK    9  A    between atoms: C15_27  and  C16_28
REMARK   10  A    between atoms: C16_28  and  C17_29
REMARK   11  A    between atoms: C17_29  and  C18_30
REMARK   12  A    between atoms: C18_30  and  C19_31
REMARK   13  A    between atoms: C19_31  and  C20_32
ROOT
HETATM    1  C3  UNL     1      21.390  31.968  15.547  1.00  0.00     0.158 C
HETATM    2  O1  UNL     1      20.814  32.172  14.280  1.00  0.00    -0.311 OA
HETATM    3  C4  UNL     1      19.857  31.271  13.849  1.00  0.00     0.277 C
HETATM    4  O2  UNL     1      19.412  31.408  12.681  1.00  0.00    -0.264 OA
HETATM    5  C5  UNL     1      19.319  30.159  14.660  1.00  0.00     0.130 C
HETATM    6  C12 UNL     1      17.867  30.511  14.967  1.00  0.00     0.044 C
HETATM    7  C13 UNL     1      17.792  31.446  16.131  1.00  0.00     0.080 C
HETATM    8  C22 UNL     1      19.042  32.252  16.367  1.00  0.00     0.021 C
HETATM    9  C23 UNL     1      20.294  31.448  16.463  1.00  0.00     0.021 C
HETATM   10  C24 UNL     1      20.009  30.018  15.986  1.00  0.00     0.037 C
ENDROOT
BRANCH   5  11
HETATM   11  C6  UNL     1      19.425  28.878  13.935  1.00  0.00     0.240 C
HETATM   12  O3  UNL     1      18.538  27.998  14.173  1.00  0.00    -0.272 OA
HETATM   13  N1  UNL     1      20.476  28.678  13.025  1.00  0.00    -0.340 N
HETATM   14  C7  UNL     1      21.539  28.026  13.350  1.00  0.00     0.064 C
ATOM     15  H1  UNL     1      20.395  29.059  12.083  1.00  0.00     0.167 HD
BRANCH  14  16
HETATM   16  C8  UNL     1      22.648  27.804  12.418  1.00  0.00     0.046 C
BRANCH  16  17
HETATM   17  C9  UNL     1      22.769  26.376  12.014  1.00  0.00     0.025 C
BRANCH  17  18
HETATM   18  C10 UNL     1      21.809  25.994  10.919  1.00  0.00     0.122 C
BRANCH  18  19
HETATM   19  N2  UNL     1      20.660  25.363  11.485  1.00  0.00    -0.367 N
HETATM   20  C11 UNL     1      19.464  25.845  11.331  1.00  0.00     0.196 C
HETATM   21  N3  UNL     1      18.394  25.135  11.938  1.00  0.00    -0.067 NA
HETATM   22  N4  UNL     1      19.304  27.026  10.580  1.00  0.00    -0.067 NA
ATOM     23  H2  UNL     1      20.783  24.507  12.027  1.00  0.00     0.161 HD
ENDBRANCH  18  19
ENDBRANCH  17  18
ENDBRANCH  16  17
ENDBRANCH  14  16
ENDBRANCH   5  11
BRANCH   7  24
HETATM   24  C14 UNL     1      16.691  32.427  15.866  1.00  0.00     0.221 C
HETATM   25  O4  UNL     1      15.495  32.157  16.126  1.00  0.00    -0.273 OA
HETATM   26  N5  UNL     1      17.023  33.673  15.314  1.00  0.00    -0.361 N
ATOM     27  H5  UNL     1      18.003  33.869  15.108  1.00  0.00     0.162 HD
BRANCH  26  28
HETATM   28  C15 UNL     1      16.058  34.674  15.029  1.00  0.00     0.122 C
BRANCH  28  29
HETATM   29  C16 UNL     1      16.091  35.839  15.984  1.00  0.00     0.020 C
BRANCH  29  30
HETATM   30  C17 UNL     1      15.255  35.414  17.187  1.00  0.00     0.002 C
BRANCH  30  31
HETATM   31  C18 UNL     1      16.086  35.100  18.372  1.00  0.00     0.007 C
BRANCH  31  32
HETATM   32  C19 UNL     1      17.236  36.045  18.501  1.00  0.00     0.077 C
BRANCH  32  33
HETATM   33  C20 UNL     1      18.564  35.431  18.626  1.00  0.00     0.123 C
HETATM   34  C21 UNL     1      19.588  35.786  17.610  1.00  0.00     0.091 C
HETATM   35  O5  UNL     1      18.853  34.670  19.493  1.00  0.00    -0.298 OA
ENDBRANCH  32  33
ENDBRANCH  31  32
ENDBRANCH  30  31
ENDBRANCH  29  30
ENDBRANCH  28  29
ENDBRANCH  26  28
ENDBRANCH   7  24
BRANCH   1  36
HETATM   36  C2  UNL     1      22.079  33.132  16.086  1.00  0.00    -0.005 C
HETATM   37  C1  UNL     1      22.474  33.152  17.345  1.00  0.00     0.009 C
ENDBRANCH   1  36
TORSDOF 13
ENDMDL