MODEL 4
REMARK VINA RESULT: -8.687140485      0.917      2.801
REMARK  13 active torsions:
REMARK  status: ('A' for Active; 'I' for Inactive)
REMARK    1  A    between atoms: C3_3  and  O1_4
REMARK    2  A    between atoms: O1_4  and  C4_5
REMARK    3  A    between atoms: C4_5  and  C5_6
REMARK    4  A    between atoms: C5_6  and  O2_7
REMARK    5  A    between atoms: O2_7  and  C6_8
REMARK    6  A    between atoms: C6_8  and  C7_9
REMARK    7  A    between atoms: C7_9  and  O3_10
REMARK    8  A    between atoms: O3_10  and  C8_11
REMARK    9  A    between atoms: C8_11  and  C9_12
REMARK   10  A    between atoms: C9_12  and  N1_13
REMARK   11  A    between atoms: C13_22  and  N4_23
REMARK       I    between atoms: N4_23  and  C14_25
REMARK   12  A    between atoms: C14_25  and  C15_27
REMARK   13  A    between atoms: C15_27  and  C16_28
ROOT
HETATM    1  C1  UNL     1      17.781  29.491  12.636  1.00  0.00     0.014 C
HETATM    2  C2  UNL     1      17.802  28.671  11.757  1.00  0.00    -0.091 C
HETATM    3  C3  UNL     1      17.842  27.661  10.650  1.00  0.00     0.267 C
ENDROOT
BRANCH   3   4
HETATM    4  O1  UNL     1      17.883  26.452  11.241  1.00  0.00    -0.349 OA
BRANCH   4   5
HETATM    5  C4  UNL     1      19.038  25.853  11.394  1.00  0.00     0.159 C
BRANCH   5   6
HETATM    6  C5  UNL     1      20.052  25.634  10.379  1.00  0.00     0.158 C
BRANCH   6   7
HETATM    7  O2  UNL     1      21.204  24.982  10.476  1.00  0.00    -0.359 OA
BRANCH   7   8
HETATM    8  C6  UNL     1      22.117  25.264  11.402  1.00  0.00     0.200 C
BRANCH   8   9
HETATM    9  C7  UNL     1      22.945  26.501  11.144  1.00  0.00     0.194 C
BRANCH   9  10
HETATM   10  O3  UNL     1      22.978  27.467  12.064  1.00  0.00    -0.387 OA
BRANCH  10  11
HETATM   11  C8  UNL     1      21.965  28.357  12.151  1.00  0.00     0.187 C
BRANCH  11  12
HETATM   12  C9  UNL     1      21.154  28.258  13.430  1.00  0.00     0.152 C
BRANCH  12  13
HETATM   13  N1  UNL     1      21.182  29.469  14.229  1.00  0.00    -0.346 N
HETATM   14  C10 UNL     1      21.960  30.579  13.725  1.00  0.00     0.133 C
HETATM   15  C11 UNL     1      22.884  31.145  14.766  1.00  0.00     0.095 C
HETATM   16  C12 UNL     1      22.139  31.916  15.807  1.00  0.00     0.073 C
HETATM   17  N2  UNL     1      22.492  33.161  15.915  1.00  0.00    -0.389 N
HETATM   18  N3  UNL     1      21.121  31.449  16.654  1.00  0.00    -0.351 N
ATOM     19  H22 UNL     1      23.232  33.501  15.300  1.00  0.00     0.157 HD
ATOM     20  H21 UNL     1      21.983  33.687  16.626  1.00  0.00     0.157 HD
HETATM   21  C13 UNL     1      20.121  30.445  16.445  1.00  0.00     0.279 C
ATOM     22  H3  UNL     1      21.088  31.898  17.569  1.00  0.00     0.163 HD
HETATM   23  C26 UNL     1      20.443  29.425  15.425  1.00  0.00     0.262 C
HETATM   24  O5  UNL     1      19.950  28.275  15.678  1.00  0.00    -0.269 OA
BRANCH  21  25
HETATM   25  N4  UNL     1      18.818  31.032  16.202  1.00  0.00    -0.332 N
HETATM   26  C14 UNL     1      18.667  31.976  15.133  1.00  0.00     0.220 C
HETATM   27  O4  UNL     1      19.688  32.243  14.456  1.00  0.00    -0.274 OA
ATOM     28  H4  UNL     1      18.020  30.778  16.784  1.00  0.00     0.165 HD
BRANCH  26  29
HETATM   29  C15 UNL     1      17.366  32.597  14.860  1.00  0.00     0.112 C
BRANCH  29  30
HETATM   30  C16 UNL     1      16.886  33.620  15.832  1.00  0.00    -0.031 C
HETATM   31  C17 UNL     1      15.820  33.038  16.701  1.00  0.00     0.014 C
HETATM   32  C18 UNL     1      15.359  34.023  17.762  1.00  0.00    -0.013 C
HETATM   33  C19 UNL     1      16.551  34.558  18.497  1.00  0.00     0.009 C
HETATM   34  C23 UNL     1      14.666  35.143  17.002  1.00  0.00     0.009 C
HETATM   35  C20 UNL     1      17.507  35.257  17.570  1.00  0.00    -0.013 C
HETATM   36  C21 UNL     1      16.842  36.358  16.793  1.00  0.00     0.009 C
HETATM   37  C25 UNL     1      18.025  34.227  16.573  1.00  0.00     0.014 C
HETATM   38  C22 UNL     1      15.666  35.743  16.050  1.00  0.00    -0.013 C
HETATM   39  C24 UNL     1      16.196  34.769  15.062  1.00  0.00     0.014 C
ENDBRANCH  29  30
ENDBRANCH  26  29
ENDBRANCH  21  25
ENDBRANCH  12  13
ENDBRANCH  11  12
ENDBRANCH  10  11
ENDBRANCH   9  10
ENDBRANCH   8   9
ENDBRANCH   7   8
ENDBRANCH   6   7
ENDBRANCH   5   6
ENDBRANCH   4   5
ENDBRANCH   3   4
TORSDOF 13
ENDMDL