MODEL 3
REMARK VINA RESULT: -7.594203232      0.712      1.665
REMARK  15 active torsions:
REMARK  status: ('A' for Active; 'I' for Inactive)
REMARK    1  A    between atoms: C2_2  and  N1_3
REMARK    2  A    between atoms: N1_3  and  C3_5
REMARK    3  A    between atoms: C3_5  and  C4_6
REMARK    4  A    between atoms: C3_5  and  C7_9
REMARK    5  A    between atoms: C7_9  and  C8_10
REMARK    6  A    between atoms: C7_9  and  N2_14
REMARK    7  A    between atoms: C8_10  and  C9_11
REMARK       I    between atoms: N2_14  and  C12_16
REMARK    8  A    between atoms: C12_16  and  C13_18
REMARK    9  A    between atoms: C13_18  and  C14_19
REMARK   10  A    between atoms: C13_18  and  O5_37
REMARK   11  A    between atoms: C14_19  and  C15_20
REMARK       I    between atoms: C15_20  and  N3_22
REMARK   12  A    between atoms: N3_22  and  C16_24
REMARK   13  A    between atoms: C16_24  and  C22_34
REMARK   14  A    between atoms: C17_25  and  O3_26
REMARK   15  A    between atoms: C17_25  and  N4_28
ROOT
HETATM    1  C13 UNL     1      21.094  31.919  13.888  1.00  0.00     0.221 C
ENDROOT
BRANCH   1   2
HETATM    2  C12 UNL     1      21.077  30.854  12.822  1.00  0.00     0.251 C
HETATM    3  N2  UNL     1      21.240  29.474  13.210  1.00  0.00    -0.327 N
ATOM      4  H2  UNL     1      21.373  29.261  14.199  1.00  0.00     0.168 HD
HETATM    5  O1  UNL     1      20.932  31.105  11.651  1.00  0.00    -0.270 OA
BRANCH   3   6
HETATM    6  C7  UNL     1      21.225  28.379  12.273  1.00  0.00     0.035 C
BRANCH   6   7
HETATM    7  C3  UNL     1      19.896  27.800  12.053  1.00  0.00     0.031 C
BRANCH   7   8
HETATM    8  N1  UNL     1      19.206  27.360  13.233  1.00  0.00    -0.392 N
ATOM      9  H1  UNL     1      19.586  26.678  13.890  1.00  0.00     0.159 HD
BRANCH   8  10
HETATM   10  C2  UNL     1      17.880  28.004  13.394  1.00  0.00     0.115 C
HETATM   11  C1  UNL     1      18.057  29.232  14.299  1.00  0.00     0.026 C
ENDBRANCH   8  10
ENDBRANCH   7   8
BRANCH   7  12
HETATM   12  C4  UNL     1      19.730  26.876  10.870  1.00  0.00     0.029 C
HETATM   13  C5  UNL     1      19.665  25.435  11.294  1.00  0.00     0.016 C
HETATM   14  C6  UNL     1      18.621  27.252   9.927  1.00  0.00     0.016 C
ENDBRANCH   7  12
ENDBRANCH   6   7
BRANCH   6  15
HETATM   15  C8  UNL     1      22.398  27.485  12.490  1.00  0.00     0.063 C
BRANCH  15  16
HETATM   16  C9  UNL     1      23.369  27.243  11.421  1.00  0.00    -0.017 C
HETATM   17  C10 UNL     1      23.325  25.883  10.760  1.00  0.00     0.010 C
HETATM   18  C11 UNL     1      24.755  27.263  12.140  1.00  0.00     0.010 C
ENDBRANCH  15  16
ENDBRANCH   6  15
ENDBRANCH   3   6
ENDBRANCH   1   2
BRANCH   1  19
HETATM   19  C14 UNL     1      19.758  32.655  13.800  1.00  0.00     0.144 C
BRANCH  19  20
HETATM   20  C15 UNL     1      19.151  32.974  15.116  1.00  0.00     0.225 C
HETATM   21  O2  UNL     1      19.502  32.507  16.207  1.00  0.00    -0.273 OA
HETATM   22  N3  UNL     1      18.066  33.912  15.123  1.00  0.00    -0.327 N
ATOM     23  H3  UNL     1      17.733  34.319  14.249  1.00  0.00     0.168 HD
BRANCH  22  24
HETATM   24  C16 UNL     1      17.440  34.282  16.392  1.00  0.00     0.066 C
HETATM   25  C17 UNL     1      17.953  35.496  16.923  1.00  0.00     0.161 C
BRANCH  25  26
HETATM   26  O3  UNL     1      19.277  35.622  16.683  1.00  0.00    -0.345 OA
ATOM     27  H3  UNL     1      19.483  35.459  15.770  1.00  0.00     0.219 HD
ENDBRANCH  25  26
BRANCH  25  28
HETATM   28  N4  UNL     1      17.485  36.599  17.627  1.00  0.00    -0.356 N
HETATM   29  C18 UNL     1      17.889  37.117  18.902  1.00  0.00     0.151 C
HETATM   30  C19 UNL     1      18.238  38.614  18.824  1.00  0.00     0.187 C
HETATM   31  O4  UNL     1      18.131  39.042  17.508  1.00  0.00    -0.388 OA
HETATM   32  C20 UNL     1      16.791  38.868  17.080  1.00  0.00     0.187 C
HETATM   33  C21 UNL     1      16.411  37.414  16.987  1.00  0.00     0.151 C
ENDBRANCH  25  28
BRANCH  24  34
HETATM   34  C22 UNL     1      15.997  33.949  16.390  1.00  0.00     0.032 C
HETATM   35  C23 UNL     1      15.686  32.572  15.837  1.00  0.00     0.016 C
HETATM   36  C24 UNL     1      15.593  33.851  17.889  1.00  0.00     0.016 C
ENDBRANCH  24  34
ENDBRANCH  22  24
ENDBRANCH  19  20
ENDBRANCH   1  19
BRANCH   1  37
HETATM   37  O5  UNL     1      22.153  32.696  13.801  1.00  0.00    -0.381 OA
HETATM   38  C25 UNL     1      23.288  32.399  14.509  1.00  0.00     0.202 C
ENDBRANCH   1  37
TORSDOF 15
ENDMDL