MODEL 3
REMARK VINA RESULT: -7.505686314      2.561      9.718
REMARK  15 active torsions:
REMARK  status: ('A' for Active; 'I' for Inactive)
REMARK    1  A    between atoms: C2_2  and  C3_3
REMARK    2  A    between atoms: C3_3  and  C4_4
REMARK    3  A    between atoms: C4_4  and  C5_5
REMARK    4  A    between atoms: C5_5  and  C6_6
REMARK    5  A    between atoms: C5_5  and  N5_34
REMARK       I    between atoms: C6_6  and  N1_8
REMARK    6  A    between atoms: N1_8  and  N2_10
REMARK       I    between atoms: N2_10  and  C7_11
REMARK    7  A    between atoms: N2_10  and  C18_31
REMARK       I    between atoms: C7_11  and  N3_13
REMARK    8  A    between atoms: N3_13  and  C8_15
REMARK    9  A    between atoms: C8_15  and  C9_16
REMARK   10  A    between atoms: C8_15  and  C15_28
REMARK       I    between atoms: C9_16  and  N4_18
REMARK   11  A    between atoms: N4_18  and  C10_20
REMARK   12  A    between atoms: C10_20  and  C11_21
REMARK   13  A    between atoms: C10_20  and  C12_23
REMARK   14  A    between atoms: C12_23  and  O6_25
REMARK   15  A    between atoms: O6_25  and  C13_26
ROOT
HETATM    1  N2  UNL     1      18.479  32.078  15.987  1.00  0.00    -0.236 N
HETATM    2  C7  UNL     1      19.315  31.052  15.506  1.00  0.00     0.338 C
HETATM    3  O2  UNL     1      20.395  30.833  16.146  1.00  0.00    -0.245 OA
HETATM    4  N3  UNL     1      19.008  30.290  14.381  1.00  0.00    -0.328 N
ATOM      5  H3  UNL     1      18.143  30.483  13.876  1.00  0.00     0.165 HD
ENDROOT
BRANCH   1   6
HETATM    6  N1  UNL     1      18.908  32.843  17.128  1.00  0.00    -0.258 N
HETATM    7  C6  UNL     1      19.794  33.953  16.914  1.00  0.00     0.290 C
HETATM    8  O1  UNL     1      20.125  34.160  15.707  1.00  0.00    -0.265 OA
ATOM      9  H1  UNL     1      18.589  32.602  18.067  1.00  0.00     0.190 HD
BRANCH   7  10
HETATM   10  C5  UNL     1      20.288  34.796  18.006  1.00  0.00     0.181 C
BRANCH  10  11
HETATM   11  C4  UNL     1      19.574  36.119  18.139  1.00  0.00     0.071 C
BRANCH  11  12
HETATM   12  C3  UNL     1      18.255  35.975  18.867  1.00  0.00     0.006 C
BRANCH  12  13
HETATM   13  C2  UNL     1      17.093  36.128  17.919  1.00  0.00    -0.004 C
HETATM   14  C1  UNL     1      16.043  35.076  18.143  1.00  0.00     0.005 C
ENDBRANCH  12  13
ENDBRANCH  11  12
ENDBRANCH  10  11
BRANCH  10  15
HETATM   15  N5  UNL     1      21.707  34.859  18.166  1.00  0.00    -0.047 N
HETATM   16  C21 UNL     1      22.114  35.013  19.576  1.00  0.00     0.278 C
HETATM   17  C22 UNL     1      22.282  36.022  17.495  1.00  0.00     0.278 C
HETATM   18  C23 UNL     1      22.334  33.636  17.729  1.00  0.00     0.278 C
ENDBRANCH  10  15
ENDBRANCH   7  10
ENDBRANCH   1   6
BRANCH   1  19
HETATM   19  C18 UNL     1      17.218  32.370  15.372  1.00  0.00     0.105 C
HETATM   20  C19 UNL     1      16.057  31.936  16.200  1.00  0.00     0.034 C
HETATM   21  C20 UNL     1      17.132  33.772  14.827  1.00  0.00     0.034 C
ENDBRANCH   1  19
BRANCH   4  22
HETATM   22  C8  UNL     1      19.880  29.225  13.900  1.00  0.00     0.181 C
BRANCH  22  23
HETATM   23  C9  UNL     1      19.075  28.190  13.262  1.00  0.00     0.241 C
HETATM   24  O3  UNL     1      18.113  27.607  13.877  1.00  0.00    -0.271 OA
HETATM   25  N4  UNL     1      19.307  27.770  11.932  1.00  0.00    -0.340 N
ATOM     26  H4  UNL     1      20.067  28.182  11.391  1.00  0.00     0.163 HD
BRANCH  25  27
HETATM   27  C10 UNL     1      18.471  26.763  11.345  1.00  0.00     0.246 C
BRANCH  27  28
HETATM   28  C11 UNL     1      17.680  27.372  10.253  1.00  0.00     0.266 C
HETATM   29  O4  UNL     1      17.291  28.523  10.386  1.00  0.00    -0.304 OA
ENDBRANCH  27  28
BRANCH  27  30
HETATM   30  C12 UNL     1      19.332  25.642  10.829  1.00  0.00     0.288 C
HETATM   31  O5  UNL     1      19.161  25.174   9.686  1.00  0.00    -0.262 OA
BRANCH  30  32
HETATM   32  O6  UNL     1      20.334  25.110  11.624  1.00  0.00    -0.320 OA
BRANCH  32  33
HETATM   33  C13 UNL     1      21.639  24.998  11.103  1.00  0.00     0.174 C
HETATM   34  C14 UNL     1      22.432  26.174  11.609  1.00  0.00     0.034 C
ENDBRANCH  32  33
ENDBRANCH  30  32
ENDBRANCH  27  30
ENDBRANCH  25  27
ENDBRANCH  22  23
BRANCH  22  35
HETATM   35  C15 UNL     1      20.949  29.787  12.981  1.00  0.00     0.009 C
HETATM   36  C16 UNL     1      22.296  29.877  13.632  1.00  0.00     0.012 C
HETATM   37  C17 UNL     1      20.564  31.192  12.574  1.00  0.00     0.012 C
ENDBRANCH  22  35
ENDBRANCH   4  22
TORSDOF 15
ENDMDL