MODEL 2
REMARK VINA RESULT: -7.454088128      2.688      9.214
REMARK  14 active torsions:
REMARK  status: ('A' for Active; 'I' for Inactive)
REMARK    1  A    between atoms: C2_2  and  O1_3
REMARK    2  A    between atoms: O1_3  and  C3_4
REMARK       I    between atoms: C3_4  and  N1_6
REMARK       I    between atoms: N2_9  and  C6_10
REMARK    3  A    between atoms: C6_10  and  C7_12
REMARK    4  A    between atoms: C7_12  and  C8_13
REMARK    5  A    between atoms: C7_12  and  N3_16
REMARK    6  A    between atoms: C8_13  and  C9_14
REMARK       I    between atoms: N3_16  and  C10_18
REMARK    7  A    between atoms: C10_18  and  C11_20
REMARK    8  A    between atoms: C11_20  and  C12_21
REMARK    9  A    between atoms: C11_20  and  C18_32
REMARK   10  A    between atoms: C12_21  and  C13_22
REMARK   11  A    between atoms: C13_22  and  C14_23
REMARK   12  A    between atoms: C14_23  and  C15_24
REMARK   13  A    between atoms: C15_24  and  N4_25
REMARK       I    between atoms: N4_25  and  C16_27
REMARK   14  A    between atoms: C18_32  and  C19_33
ROOT
HETATM    1  N3  UNL     1      20.362  29.581  13.915  1.00  0.00    -0.347 N
ATOM      2  H3  UNL     1      20.520  30.463  13.427  1.00  0.00     0.163 HD
HETATM    3  C10 UNL     1      20.280  29.612  15.339  1.00  0.00     0.222 C
HETATM    4  O5  UNL     1      20.092  28.499  15.890  1.00  0.00    -0.273 OA
ENDROOT
BRANCH   1   5
HETATM    5  C7  UNL     1      20.238  28.379  13.115  1.00  0.00     0.183 C
BRANCH   5   6
HETATM    6  C6  UNL     1      21.616  27.999  12.699  1.00  0.00     0.243 C
HETATM    7  N2  UNL     1      21.953  26.903  11.879  1.00  0.00    -0.347 N
HETATM    8  C5  UNL     1      23.330  26.662  11.540  1.00  0.00     0.146 C
HETATM    9  C22 UNL     1      20.928  25.994  11.395  1.00  0.00     0.146 C
HETATM   10  C4  UNL     1      23.598  26.015  10.238  1.00  0.00     0.148 C
HETATM   11  N1  UNL     1      22.539  25.115   9.870  1.00  0.00    -0.325 N
HETATM   12  C3  UNL     1      22.426  24.679   8.539  1.00  0.00     0.362 C
HETATM   13  C23 UNL     1      21.616  24.696  10.919  1.00  0.00     0.148 C
HETATM   14  O2  UNL     1      21.531  23.897   8.126  1.00  0.00    -0.238 OA
HETATM   15  O3  UNL     1      22.601  28.715  13.112  1.00  0.00    -0.271 OA
BRANCH  12  16
HETATM   16  O1  UNL     1      23.342  25.123   7.600  1.00  0.00    -0.304 OA
BRANCH  16  17
HETATM   17  C2  UNL     1      24.052  24.242   6.749  1.00  0.00     0.176 C
HETATM   18  C1  UNL     1      23.667  24.338   5.310  1.00  0.00     0.034 C
ENDBRANCH  16  17
ENDBRANCH  12  16
ENDBRANCH   5   6
BRANCH   5  19
HETATM   19  C8  UNL     1      19.385  28.766  11.937  1.00  0.00     0.104 C
BRANCH  19  20
HETATM   20  C9  UNL     1      17.974  29.044  12.310  1.00  0.00     0.233 C
HETATM   21  O4  UNL     1      17.534  30.120  12.647  1.00  0.00    -0.307 OA
ENDBRANCH  19  20
ENDBRANCH   5  19
ENDBRANCH   1   5
BRANCH   3  22
HETATM   22  C11 UNL     1      20.399  30.843  16.119  1.00  0.00     0.078 C
BRANCH  22  23
HETATM   23  C12 UNL     1      19.064  31.363  16.507  1.00  0.00     0.014 C
BRANCH  23  24
HETATM   24  C13 UNL     1      18.283  32.064  15.456  1.00  0.00     0.002 C
BRANCH  24  25
HETATM   25  C14 UNL     1      16.875  32.399  15.894  1.00  0.00     0.020 C
BRANCH  25  26
HETATM   26  C15 UNL     1      16.473  33.794  15.507  1.00  0.00     0.122 C
BRANCH  26  27
HETATM   27  N4  UNL     1      17.111  34.750  16.371  1.00  0.00    -0.365 N
HETATM   28  C16 UNL     1      17.169  34.615  17.783  1.00  0.00     0.183 C
HETATM   29  N5  UNL     1      15.953  34.489  18.505  1.00  0.00    -0.064 NA
HETATM   30  N6  UNL     1      18.274  34.605  18.410  1.00  0.00    -0.369 N
HETATM   31  C17 UNL     1      19.569  34.723  17.810  1.00  0.00     0.148 C
ATOM     32  H6  UNL     1      18.236  34.506  19.425  1.00  0.00     0.161 HD
ATOM     33  H4  UNL     1      17.546  35.569  15.946  1.00  0.00     0.162 HD
ENDBRANCH  26  27
ENDBRANCH  25  26
ENDBRANCH  24  25
ENDBRANCH  23  24
ENDBRANCH  22  23
BRANCH  22  34
HETATM   34  C18 UNL     1      21.206  31.839  15.311  1.00  0.00     0.018 C
BRANCH  34  35
HETATM   35  C19 UNL     1      22.647  31.896  15.695  1.00  0.00    -0.022 C
HETATM   36  C20 UNL     1      22.739  32.819  16.912  1.00  0.00     0.009 C
HETATM   37  C21 UNL     1      23.506  32.472  14.608  1.00  0.00     0.009 C
ENDBRANCH  34  35
ENDBRANCH  22  34
ENDBRANCH   3  22
TORSDOF 14
ENDMDL