MODEL 1
REMARK VINA RESULT: -8.222161518      0.000      0.000
REMARK  16 active torsions:
REMARK  status: ('A' for Active; 'I' for Inactive)
REMARK    1  A    between atoms: C2_2  and  C3_3
REMARK    2  A    between atoms: C3_3  and  C4_4
REMARK    3  A    between atoms: C4_4  and  C5_5
REMARK    4  A    between atoms: C5_5  and  C6_6
REMARK    5  A    between atoms: C6_6  and  C7_7
REMARK    6  A    between atoms: C7_7  and  C8_8
REMARK    7  A    between atoms: C8_8  and  C9_9
REMARK    8  A    between atoms: C9_9  and  C10_10
REMARK    9  A    between atoms: C10_10  and  C11_11
REMARK   10  A    between atoms: C11_11  and  C12_12
REMARK       I    between atoms: C12_12  and  N1_14
REMARK   11  A    between atoms: C16_18  and  C17_19
REMARK       I    between atoms: C17_19  and  N2_21
REMARK   12  A    between atoms: C18_23  and  C19_24
REMARK   13  A    between atoms: C18_23  and  N3_27
REMARK   14  A    between atoms: C22_29  and  O4_30
REMARK   15  A    between atoms: C23_32  and  O5_33
REMARK   16  A    between atoms: N4_36  and  O6_37
ROOT
HETATM    1  C17 UNL     1      22.204  31.173  14.688  1.00  0.00     0.246 C
HETATM    2  O2  UNL     1      23.050  31.826  14.041  1.00  0.00    -0.271 OA
HETATM    3  N2  UNL     1      21.543  30.101  14.093  1.00  0.00    -0.307 N
ATOM      4  H2  UNL     1      21.925  29.185  14.330  1.00  0.00     0.170 HD
HETATM    5  C18 UNL     1      20.553  30.067  13.309  1.00  0.00     0.173 C
ENDROOT
BRANCH   1   6
HETATM    6  C16 UNL     1      21.914  31.547  16.094  1.00  0.00     0.179 C
HETATM    7  N1  UNL     1      20.593  32.104  16.245  1.00  0.00    -0.339 N
HETATM    8  C12 UNL     1      19.365  31.496  16.543  1.00  0.00     0.220 C
HETATM    9  C13 UNL     1      20.728  33.556  16.008  1.00  0.00     0.127 C
HETATM   10  O1  UNL     1      19.384  30.250  16.743  1.00  0.00    -0.273 OA
HETATM   11  C14 UNL     1      22.088  33.922  16.481  1.00  0.00     0.022 C
HETATM   12  C15 UNL     1      22.874  32.662  16.465  1.00  0.00     0.037 C
BRANCH   8  13
HETATM   13  C11 UNL     1      18.098  32.243  16.630  1.00  0.00     0.103 C
BRANCH  13  14
HETATM   14  C10 UNL     1      16.858  31.512  16.262  1.00  0.00     0.009 C
BRANCH  14  15
HETATM   15  C9  UNL     1      15.760  32.459  15.865  1.00  0.00     0.000 C
BRANCH  15  16
HETATM   16  C8  UNL     1      16.324  33.756  15.341  1.00  0.00     0.000 C
BRANCH  16  17
HETATM   17  C7  UNL     1      15.571  34.961  15.862  1.00  0.00     0.000 C
BRANCH  17  18
HETATM   18  C6  UNL     1      15.132  34.626  17.279  1.00  0.00     0.000 C
BRANCH  18  19
HETATM   19  C5  UNL     1      16.122  35.129  18.298  1.00  0.00     0.000 C
BRANCH  19  20
HETATM   20  C4  UNL     1      16.785  36.424  17.868  1.00  0.00     0.000 C
BRANCH  20  21
HETATM   21  C3  UNL     1      18.295  36.283  17.851  1.00  0.00    -0.000 C
BRANCH  21  22
HETATM   22  C2  UNL     1      18.654  35.145  18.786  1.00  0.00    -0.005 C
HETATM   23  C1  UNL     1      20.103  35.316  19.248  1.00  0.00     0.005 C
ENDBRANCH  21  22
ENDBRANCH  20  21
ENDBRANCH  19  20
ENDBRANCH  18  19
ENDBRANCH  17  18
ENDBRANCH  16  17
ENDBRANCH  15  16
ENDBRANCH  14  15
ENDBRANCH  13  14
ENDBRANCH   8  13
ENDBRANCH   1   6
BRANCH   5  24
HETATM   24  C19 UNL     1      19.901  31.274  12.877  1.00  0.00     0.190 C
HETATM   25  C20 UNL     1      18.501  31.503  13.332  1.00  0.00     0.100 C
HETATM   26  O3  UNL     1      20.451  32.117  12.152  1.00  0.00    -0.290 OA
ENDBRANCH   5  24
BRANCH   5  27
HETATM   27  N3  UNL     1      20.108  28.755  12.876  1.00  0.00    -0.249 N
HETATM   28  C21 UNL     1      20.596  28.218  11.626  1.00  0.00     0.187 C
HETATM   29  C22 UNL     1      20.020  26.866  11.409  1.00  0.00     0.168 C
HETATM   30  C23 UNL     1      18.543  26.740  11.665  1.00  0.00     0.170 C
HETATM   31  C24 UNL     1      18.161  27.210  13.049  1.00  0.00     0.211 C
HETATM   32  N4  UNL     1      19.217  28.028  13.630  1.00  0.00    -0.195 N
BRANCH  29  33
HETATM   33  O4  UNL     1      20.755  25.938  12.159  1.00  0.00    -0.391 OA
ATOM     34  H4  UNL     1      20.369  25.078  12.043  1.00  0.00     0.210 HD
ENDBRANCH  29  33
BRANCH  30  35
HETATM   35  O5  UNL     1      18.229  25.381  11.549  1.00  0.00    -0.391 OA
ATOM     36  H5  UNL     1      17.662  25.167  12.280  1.00  0.00     0.210 HD
ENDBRANCH  30  35
BRANCH  32  37
HETATM   37  O6  UNL     1      19.290  28.062  14.870  1.00  0.00    -0.272 OA
ATOM     38  H6  UNL     1      18.799  28.716  15.353  1.00  0.00     0.246 HD
ENDBRANCH  32  37
ENDBRANCH   5  27
TORSDOF 16
ENDMDL