MODEL 1
REMARK VINA RESULT: -5.354534950      0.000      0.000
REMARK  5 active torsions:
REMARK  status: ('A' for Active; 'I' for Inactive)
REMARK    1  A    between atoms: C2_3  and  C3_4
REMARK    2  A    between atoms: C3_4  and  N2_5
REMARK    3  A    between atoms: C3_4  and  O1_9
REMARK    4  A    between atoms: C4_11  and  N3_12
REMARK    5  A    between atoms: C6_17  and  N4_18
ROOT
HETATM    1  N1  UNL     1       7.722  24.673  31.744  1.00  0.00    -0.104 NA
HETATM    2  C1  UNL     1       7.842  24.419  33.145  1.00  0.00     0.063 C
HETATM    3  C2  UNL     1       8.658  25.011  34.001  1.00  0.00     0.027 C
HETATM    4  C4  UNL     1       8.455  24.450  35.379  1.00  0.00     0.220 C
HETATM    5  C5  UNL     1       6.983  24.014  35.257  1.00  0.00     0.076 C
HETATM    6  C6  UNL     1       7.044  23.413  33.871  1.00  0.00     0.233 C
ENDROOT
BRANCH   3   7
HETATM    7  C3  UNL     1       9.618  26.073  33.633  1.00  0.00     0.350 C
BRANCH   7   8
HETATM    8  N2  UNL     1      10.442  26.491  34.738  1.00  0.00    -0.049 N
ATOM      9  H23 UNL     1       9.952  26.370  35.625  1.00  0.00     0.277 HD
ATOM     10  H22 UNL     1      11.213  25.839  34.886  1.00  0.00     0.277 HD
ATOM     11  H21 UNL     1      10.785  27.447  34.638  1.00  0.00     0.277 HD
ENDBRANCH   7   8
BRANCH   7  12
HETATM   12  O1  UNL     1      10.498  25.502  32.682  1.00  0.00    -0.366 OA
ATOM     13  H1  UNL     1      10.564  26.126  31.969  1.00  0.00     0.212 HD
ENDBRANCH   7  12
ENDBRANCH   3   7
BRANCH   4  14
HETATM   14  N3  UNL     1       9.237  23.247  35.576  1.00  0.00    -0.071 N
ATOM     15  H33 UNL     1       8.913  22.487  34.977  1.00  0.00     0.275 HD
ATOM     16  H32 UNL     1      10.181  23.348  35.203  1.00  0.00     0.275 HD
ATOM     17  H31 UNL     1       9.249  22.971  36.559  1.00  0.00     0.275 HD
ENDBRANCH   4  14
BRANCH   6  18
HETATM   18  N4  UNL     1       5.736  23.207  33.304  1.00  0.00    -0.070 N
ATOM     19  H43 UNL     1       5.104  23.965  33.564  1.00  0.00     0.275 HD
ATOM     20  H42 UNL     1       5.753  23.342  32.293  1.00  0.00     0.275 HD
ATOM     21  H41 UNL     1       5.331  22.301  33.542  1.00  0.00     0.275 HD
ENDBRANCH   6  18
TORSDOF 5
ENDMDL