MODEL 5
REMARK VINA RESULT: -5.395683277      2.220      4.760
REMARK  5 active torsions:
REMARK  status: ('A' for Active; 'I' for Inactive)
REMARK    1  A    between atoms: N1_1  and  C1_4
REMARK    2  A    between atoms: C2_9  and  S1_10
REMARK    3  A    between atoms: S1_10  and  C3_11
REMARK    4  A    between atoms: C3_11  and  N4_12
REMARK    5  A    between atoms: C3_11  and  N5_16
ROOT
HETATM    1  C1  UNL     1       9.356  25.552  36.058  1.00  0.00     0.692 A
HETATM    2  N2  UNL     1       9.816  25.804  34.824  1.00  0.00    -0.130 N
ATOM      3  H2  UNL     1       9.657  25.221  34.002  1.00  0.00     0.205 HD
HETATM    4  N3  UNL     1      10.506  26.926  34.846  1.00  0.00    -0.265 N
ATOM      5  H3  UNL     1      10.968  27.352  34.042  1.00  0.00     0.189 HD
HETATM    6  C2  UNL     1      10.506  27.423  36.094  1.00  0.00     0.178 A
HETATM    7  N6  UNL     1       9.788  26.559  36.832  1.00  0.00    -0.168 N
ATOM      8  H6  UNL     1       9.601  26.655  37.830  1.00  0.00     0.186 HD
ENDROOT
BRANCH   6   9
HETATM    9  S1  UNL     1      11.278  28.912  36.700  1.00  0.00    -0.031 SA
BRANCH   9  10
HETATM   10  C3  UNL     1      12.578  29.398  35.559  1.00  0.00     0.447 C
BRANCH  10  11
HETATM   11  N4  UNL     1      12.058  29.737  34.251  1.00  0.00    -0.041 N
ATOM     12  H43 UNL     1      11.374  30.491  34.310  1.00  0.00     0.277 HD
ATOM     13  H42 UNL     1      12.764  30.204  33.683  1.00  0.00     0.277 HD
ATOM     14  H41 UNL     1      11.673  28.925  33.769  1.00  0.00     0.277 HD
ENDBRANCH  10  11
BRANCH  10  15
HETATM   15  N5  UNL     1      13.579  28.332  35.472  1.00  0.00    -0.041 N
ATOM     16  H53 UNL     1      14.511  28.657  35.729  1.00  0.00     0.277 HD
ATOM     17  H52 UNL     1      13.460  27.632  36.205  1.00  0.00     0.277 HD
ATOM     18  H51 UNL     1      13.559  27.920  34.539  1.00  0.00     0.277 HD
ENDBRANCH  10  15
ENDBRANCH   9  10
ENDBRANCH   6   9
BRANCH   1  19
HETATM   19  N1  UNL     1       8.630  24.531  36.430  1.00  0.00    -0.233 N
ATOM     20  H12 UNL     1       8.622  23.600  36.013  1.00  0.00     0.174 HD
ATOM     21  H11 UNL     1       7.959  24.506  37.197  1.00  0.00     0.174 HD
ENDBRANCH   1  19
TORSDOF 5
ENDMDL