MODEL 3
REMARK VINA RESULT: -5.979599756      1.542      2.153
REMARK  5 active torsions:
REMARK  status: ('A' for Active; 'I' for Inactive)
REMARK    1  A    between atoms: C2_2  and  N1_3
REMARK    2  A    between atoms: C2_2  and  C3_7
REMARK    3  A    between atoms: C3_7  and  N2_8
REMARK    4  A    between atoms: C3_7  and  C4_12
REMARK    5  A    between atoms: C5_15  and  N4_16
ROOT
HETATM    1  C4  UNL     1       9.234  25.260  33.856  1.00  0.00     0.145 A
HETATM    2  N3  UNL     1       9.020  25.398  35.175  1.00  0.00    -0.176 N
ATOM      3  H3  UNL     1       8.315  24.884  35.704  1.00  0.00     0.185 HD
HETATM    4  C5  UNL     1       9.863  26.307  35.706  1.00  0.00     0.691 A
HETATM    5  N5  UNL     1      10.612  26.729  34.668  1.00  0.00    -0.131 N
ATOM      6  H5  UNL     1      11.355  27.426  34.726  1.00  0.00     0.205 HD
HETATM    7  N6  UNL     1      10.237  26.104  33.562  1.00  0.00    -0.272 N
ATOM      8  H6  UNL     1      10.644  26.242  32.637  1.00  0.00     0.189 HD
ENDROOT
BRANCH   1   9
HETATM    9  C3  UNL     1       8.539  24.374  32.882  1.00  0.00     0.282 C
BRANCH   9  10
HETATM   10  C2  UNL     1       7.335  23.771  33.621  1.00  0.00     0.217 C
HETATM   11  C1  UNL     1       6.331  23.219  32.647  1.00  0.00     0.042 C
BRANCH  10  12
HETATM   12  N1  UNL     1       7.808  22.796  34.566  1.00  0.00    -0.073 N
ATOM     13  H13 UNL     1       7.073  22.128  34.796  1.00  0.00     0.274 HD
ATOM     14  H12 UNL     1       8.480  22.165  34.129  1.00  0.00     0.274 HD
ATOM     15  H11 UNL     1       8.198  23.210  35.413  1.00  0.00     0.274 HD
ENDBRANCH  10  12
ENDBRANCH   9  10
BRANCH   9  16
HETATM   16  N2  UNL     1       9.403  23.339  32.405  1.00  0.00    -0.066 N
ATOM     17  H23 UNL     1       9.193  22.440  32.838  1.00  0.00     0.275 HD
ATOM     18  H22 UNL     1       9.203  23.093  31.436  1.00  0.00     0.275 HD
ATOM     19  H21 UNL     1      10.380  23.602  32.536  1.00  0.00     0.275 HD
ENDBRANCH   9  16
ENDBRANCH   1   9
BRANCH   4  20
HETATM   20  N4  UNL     1       9.966  26.712  36.930  1.00  0.00    -0.233 N
ATOM     21  H42 UNL     1       9.224  27.144  37.481  1.00  0.00     0.174 HD
ATOM     22  H41 UNL     1      10.771  26.681  37.555  1.00  0.00     0.174 HD
ENDBRANCH   4  20
TORSDOF 5
ENDMDL