MODEL 4
REMARK VINA RESULT: -5.382859245      2.439      4.873
REMARK  4 active torsions:
REMARK  status: ('A' for Active; 'I' for Inactive)
REMARK    1  A    between atoms: N1_1  and  C1_4
REMARK    2  A    between atoms: C2_9  and  S1_10
REMARK    3  A    between atoms: S1_10  and  N4_11
REMARK    4  A    between atoms: C3_14  and  N5_15
ROOT
HETATM    1  C1  UNL     1       7.040  23.716  32.986  1.00  0.00     0.692 A
HETATM    2  N2  UNL     1       6.549  23.509  34.222  1.00  0.00    -0.131 N
ATOM      3  H2  UNL     1       5.711  22.938  34.331  1.00  0.00     0.205 HD
HETATM    4  N3  UNL     1       7.122  24.025  35.306  1.00  0.00    -0.275 N
ATOM      5  H3  UNL     1       6.739  23.862  36.238  1.00  0.00     0.188 HD
HETATM    6  C2  UNL     1       8.243  24.785  35.122  1.00  0.00     0.149 A
HETATM    7  C3  UNL     1       8.745  24.998  33.858  1.00  0.00     0.151 A
HETATM    8  N6  UNL     1       8.148  24.464  32.772  1.00  0.00    -0.173 N
ATOM      9  H6  UNL     1       8.515  24.616  31.833  1.00  0.00     0.186 HD
ENDROOT
BRANCH   6  10
HETATM   10  S1  UNL     1       9.091  25.527  36.507  1.00  0.00     0.002 SA
BRANCH  10  11
HETATM   11  N4  UNL     1       9.167  24.397  37.860  1.00  0.00    -0.368 N
ATOM     12  H42 UNL     1       9.957  23.777  38.041  1.00  0.00     0.164 HD
ATOM     13  H41 UNL     1       8.318  24.457  38.422  1.00  0.00     0.164 HD
ENDBRANCH  10  11
ENDBRANCH   6  10
BRANCH   7  14
HETATM   14  N5  UNL     1       9.814  25.729  33.732  1.00  0.00    -0.383 N
ATOM     15  H52 UNL     1      10.568  25.667  34.416  1.00  0.00     0.157 HD
ATOM     16  H51 UNL     1       9.878  26.362  32.935  1.00  0.00     0.157 HD
ENDBRANCH   7  14
BRANCH   1  17
HETATM   17  N1  UNL     1       6.447  23.193  31.970  1.00  0.00    -0.233 N
ATOM     18  H12 UNL     1       5.505  22.822  32.096  1.00  0.00     0.174 HD
ATOM     19  H11 UNL     1       6.925  23.160  31.070  1.00  0.00     0.174 HD
ENDBRANCH   1  17
TORSDOF 4
ENDMDL