MODEL 4
REMARK VINA RESULT: -5.664394648      1.995      3.917
REMARK  3 active torsions:
REMARK  status: ('A' for Active; 'I' for Inactive)
REMARK    1  A    between atoms: C2_2  and  O1_4
REMARK    2  A    between atoms: C2_2  and  C4_8
REMARK    3  A    between atoms: O1_4  and  N1_5
ROOT
HETATM    1  C4  UNL     1       8.109  25.256  34.847  1.00  0.00     0.228 C
HETATM    2  N2  UNL     1       7.967  24.585  36.074  1.00  0.00    -0.384 N
ATOM      3  H2  UNL     1       7.197  23.935  36.229  1.00  0.00     0.156 HD
HETATM    4  C5  UNL     1       8.920  24.832  37.085  1.00  0.00     0.250 C
HETATM    5  N3  UNL     1       9.603  26.102  36.968  1.00  0.00    -0.107 NA
HETATM    6  N4  UNL     1      10.135  26.175  35.691  1.00  0.00    -0.033 NA
HETATM    7  N5  UNL     1       9.224  26.092  34.701  1.00  0.00    -0.298 N
ATOM      8  H5  UNL     1       9.347  26.636  33.847  1.00  0.00     0.179 HD
ENDROOT
BRANCH   1   9
HETATM    9  C2  UNL     1       8.073  24.314  33.633  1.00  0.00     0.119 C
HETATM   10  C1  UNL     1       7.005  23.239  33.876  1.00  0.00     0.052 C
HETATM   11  C3  UNL     1       7.786  25.056  32.369  1.00  0.00     0.052 C
BRANCH   9  12
HETATM   12  O1  UNL     1       9.266  23.623  33.467  1.00  0.00    -0.273 OA
BRANCH  12  13
HETATM   13  N1  UNL     1       9.569  23.567  32.174  1.00  0.00    -0.310 N
ATOM     14  H12 UNL     1      10.510  23.430  31.807  1.00  0.00     0.184 HD
ATOM     15  H11 UNL     1       8.720  23.682  31.620  1.00  0.00     0.184 HD
ENDBRANCH  12  13
ENDBRANCH   9  12
ENDBRANCH   1   9
TORSDOF 3
ENDMDL