MODEL 4
REMARK VINA RESULT: -4.802119575      1.980      4.341
REMARK  3 active torsions:
REMARK  status: ('A' for Active; 'I' for Inactive)
REMARK    1  A    between atoms: C2_2  and  N1_4
REMARK    2  A    between atoms: N1_4  and  C5_6
REMARK    3  A    between atoms: C6_10  and  N5_11
ROOT
HETATM    1  C5  UNL     1       9.197  25.076  35.174  1.00  0.00     0.239 C
HETATM    2  N2  UNL     1       9.841  26.360  35.101  1.00  0.00    -0.101 NA
HETATM    3  N3  UNL     1      10.363  26.523  36.404  1.00  0.00    -0.036 NA
HETATM    4  N4  UNL     1       9.226  26.238  37.168  1.00  0.00    -0.093 NA
HETATM    5  C6  UNL     1       8.743  24.984  36.616  1.00  0.00     0.332 C
ENDROOT
BRANCH   1   6
HETATM    6  N1  UNL     1       8.073  24.916  34.322  1.00  0.00    -0.392 N
HETATM    7  C4  UNL     1       7.403  26.083  33.904  1.00  0.00     0.145 C
BRANCH   6   8
HETATM    8  C2  UNL     1       8.209  23.842  33.409  1.00  0.00     0.072 C
HETATM    9  C1  UNL     1       6.913  23.368  32.783  1.00  0.00     0.031 C
HETATM   10  C3  UNL     1       9.255  24.109  32.325  1.00  0.00     0.031 C
ENDBRANCH   6   8
ENDBRANCH   1   6
BRANCH   5  11
HETATM   11  N5  UNL     1       9.282  23.841  37.291  1.00  0.00    -0.057 N
ATOM     12  H53 UNL     1       8.631  23.057  37.262  1.00  0.00     0.276 HD
ATOM     13  H52 UNL     1      10.053  23.433  36.762  1.00  0.00     0.276 HD
ATOM     14  H51 UNL     1       9.564  24.049  38.249  1.00  0.00     0.276 HD
ENDBRANCH   5  11
TORSDOF 3
ENDMDL