MODEL 1
REMARK VINA RESULT: -6.104590070      0.000      0.000
REMARK  4 active torsions:
REMARK  status: ('A' for Active; 'I' for Inactive)
REMARK    1  A    between atoms: C2_2  and  O1_3
REMARK    2  A    between atoms: O1_3  and  C3_4
REMARK    3  A    between atoms: C4_7  and  N2_8
REMARK    4  A    between atoms: C5_13  and  N4_14
ROOT
HETATM    1  C3  UNL     1       9.745  25.622  34.079  1.00  0.00     0.252 A
HETATM    2  N1  UNL     1       9.017  24.907  34.956  1.00  0.00    -0.154 N
ATOM      3  H1  UNL     1       8.461  24.121  34.618  1.00  0.00     0.188 HD
HETATM    4  C4  UNL     1       9.007  25.205  36.267  1.00  0.00     0.693 A
HETATM    5  N3  UNL     1       9.745  26.244  36.699  1.00  0.00    -0.023 N
ATOM      6  H3  UNL     1       9.742  26.476  37.692  1.00  0.00     0.203 HD
HETATM    7  C5  UNL     1      10.486  26.984  35.858  1.00  0.00     0.693 A
HETATM    8  N5  UNL     1      10.479  26.666  34.551  1.00  0.00    -0.154 N
ATOM      9  H5  UNL     1      11.037  27.218  33.899  1.00  0.00     0.188 HD
ENDROOT
BRANCH   1  10
HETATM   10  O1  UNL     1       9.785  25.352  32.719  1.00  0.00    -0.322 OA
BRANCH  10  11
HETATM   11  C2  UNL     1       9.043  24.224  32.271  1.00  0.00     0.174 C
HETATM   12  C1  UNL     1       7.601  24.560  32.071  1.00  0.00     0.034 C
ENDBRANCH  10  11
ENDBRANCH   1  10
BRANCH   4  13
HETATM   13  N2  UNL     1       8.297  24.503  37.110  1.00  0.00    -0.234 N
ATOM     14  H22 UNL     1       8.111  23.516  36.932  1.00  0.00     0.174 HD
ATOM     15  H21 UNL     1       7.918  24.927  37.956  1.00  0.00     0.174 HD
ENDBRANCH   4  13
BRANCH   7  16
HETATM   16  N4  UNL     1      11.188  27.976  36.277  1.00  0.00    -0.234 N
ATOM     17  H42 UNL     1      11.482  28.020  37.253  1.00  0.00     0.174 HD
ATOM     18  H41 UNL     1      11.467  28.734  35.654  1.00  0.00     0.174 HD
ENDBRANCH   7  16
TORSDOF 4
ENDMDL