MODEL 1
REMARK VINA RESULT: -6.763740848      0.000      0.000
REMARK  3 active torsions:
REMARK  status: ('A' for Active; 'I' for Inactive)
REMARK    1  A    between atoms: O1_2  and  N1_3
REMARK    2  A    between atoms: N1_3  and  C2_5
REMARK    3  A    between atoms: C4_12  and  N5_13
ROOT
HETATM    1  C2  UNL     1      10.942  27.740  35.504  1.00  0.00     0.719 A
HETATM    2  N2  UNL     1      10.720  27.836  36.826  1.00  0.00    -0.161 N
ATOM      3  H2  UNL     1      10.296  27.058  37.331  1.00  0.00     0.187 HD
HETATM    4  C3  UNL     1      11.058  28.959  37.480  1.00  0.00     0.221 A
HETATM    5  N3  UNL     1      10.818  29.049  38.880  1.00  0.00    -0.062 NA
HETATM    6  N4  UNL     1      11.616  29.958  36.772  1.00  0.00    -0.163 N
ATOM      7  H4  UNL     1      11.875  30.812  37.267  1.00  0.00     0.187 HD
HETATM    8  C4  UNL     1      11.852  29.895  35.451  1.00  0.00     0.693 A
HETATM    9  N6  UNL     1      11.508  28.767  34.810  1.00  0.00    -0.021 N
ATOM     10  H6  UNL     1      11.671  28.679  33.807  1.00  0.00     0.203 HD
ENDROOT
BRANCH   1  11
HETATM   11  N1  UNL     1      10.613  26.656  34.885  1.00  0.00    -0.096 N
ATOM     12  H1  UNL     1      11.149  26.384  34.061  1.00  0.00     0.213 HD
BRANCH  11  13
HETATM   13  O1  UNL     1       9.586  25.862  35.280  1.00  0.00    -0.272 OA
HETATM   14  C1  UNL     1       8.918  25.110  34.268  1.00  0.00     0.238 C
ENDBRANCH  11  13
ENDBRANCH   1  11
BRANCH   8  15
HETATM   15  N5  UNL     1      12.390  30.885  34.827  1.00  0.00    -0.234 N
ATOM     16  H52 UNL     1      12.516  31.792  35.276  1.00  0.00     0.174 HD
ATOM     17  H51 UNL     1      12.705  30.787  33.862  1.00  0.00     0.174 HD
ENDBRANCH   8  15
TORSDOF 3
ENDMDL