MODEL 4
REMARK VINA RESULT: -6.036778562      0.279      2.400
REMARK  4 active torsions:
REMARK  status: ('A' for Active; 'I' for Inactive)
REMARK    1  A    between atoms: N1_2  and  N2_3
REMARK    2  A    between atoms: N1_2  and  C2_6
REMARK    3  A    between atoms: C3_9  and  N4_10
REMARK    4  A    between atoms: C4_15  and  N6_16
ROOT
HETATM    1  C2  UNL     1      10.437  27.053  35.744  1.00  0.00     0.727 A
HETATM    2  N3  UNL     1      10.306  26.628  34.482  1.00  0.00    -0.020 N
ATOM      3  H3  UNL     1      10.760  27.148  33.731  1.00  0.00     0.203 HD
HETATM    4  C3  UNL     1       9.589  25.531  34.180  1.00  0.00     0.705 A
HETATM    5  N5  UNL     1       8.982  24.831  35.157  1.00  0.00    -0.022 N
ATOM      6  H5  UNL     1       8.436  23.998  34.934  1.00  0.00     0.203 HD
HETATM    7  C4  UNL     1       9.103  25.245  36.428  1.00  0.00     0.705 A
HETATM    8  N7  UNL     1       9.825  26.344  36.703  1.00  0.00    -0.020 N
ATOM      9  H7  UNL     1       9.911  26.648  37.674  1.00  0.00     0.203 HD
ENDROOT
BRANCH   1  10
HETATM   10  N1  UNL     1      11.191  28.213  36.096  1.00  0.00    -0.134 N
HETATM   11  C1  UNL     1      10.897  28.932  37.303  1.00  0.00     0.197 C
BRANCH  10  12
HETATM   12  N2  UNL     1      12.219  28.611  35.213  1.00  0.00    -0.329 N
ATOM     13  H22 UNL     1      13.125  28.837  35.623  1.00  0.00     0.177 HD
ATOM     14  H21 UNL     1      12.077  28.674  34.206  1.00  0.00     0.177 HD
ENDBRANCH  10  12
ENDBRANCH   1  10
BRANCH   4  15
HETATM   15  N4  UNL     1       9.474  25.142  32.983  1.00  0.00    -0.234 N
ATOM     16  H42 UNL     1       9.055  24.231  32.796  1.00  0.00     0.174 HD
ATOM     17  H41 UNL     1       9.795  25.726  32.211  1.00  0.00     0.174 HD
ENDBRANCH   4  15
BRANCH   7  18
HETATM   18  N6  UNL     1       8.536  24.603  37.410  1.00  0.00    -0.234 N
ATOM     19  H62 UNL     1       7.520  24.632  37.497  1.00  0.00     0.174 HD
ATOM     20  H61 UNL     1       9.085  24.076  38.090  1.00  0.00     0.174 HD
ENDBRANCH   7  18
TORSDOF 4
ENDMDL