MODEL 5
REMARK VINA RESULT: -5.319363817      2.745      4.282
REMARK  3 active torsions:
REMARK  status: ('A' for Active; 'I' for Inactive)
REMARK    1  A    between atoms: O1_2  and  C2_3
REMARK    2  A    between atoms: C3_6  and  N2_7
REMARK    3  A    between atoms: C4_12  and  N4_13
ROOT
HETATM    1  C2  UNL     1       8.076  24.693  35.010  1.00  0.00     0.252 A
HETATM    2  N1  UNL     1       9.081  24.567  34.124  1.00  0.00    -0.154 N
ATOM      3  H1  UNL     1       9.992  24.968  34.346  1.00  0.00     0.188 HD
HETATM    4  C3  UNL     1       8.913  23.920  32.943  1.00  0.00     0.693 A
HETATM    5  N3  UNL     1       7.724  23.381  32.619  1.00  0.00    -0.023 N
ATOM      6  H3  UNL     1       7.594  22.894  31.732  1.00  0.00     0.203 HD
HETATM    7  C4  UNL     1       6.711  23.501  33.496  1.00  0.00     0.693 A
HETATM    8  N5  UNL     1       6.896  24.147  34.666  1.00  0.00    -0.154 N
ATOM      9  H5  UNL     1       6.111  24.225  35.313  1.00  0.00     0.188 HD
ENDROOT
BRANCH   4  10
HETATM   10  N2  UNL     1       9.863  23.789  32.083  1.00  0.00    -0.234 N
ATOM     11  H22 UNL     1      10.801  23.636  32.454  1.00  0.00     0.174 HD
ATOM     12  H21 UNL     1       9.703  23.833  31.076  1.00  0.00     0.174 HD
ENDBRANCH   4  10
BRANCH   1  13
HETATM   13  O1  UNL     1       8.206  25.347  36.230  1.00  0.00    -0.326 OA
HETATM   14  C1  UNL     1       8.963  24.875  37.298  1.00  0.00     0.213 C
ENDBRANCH   1  13
BRANCH   7  15
HETATM   15  N4  UNL     1       5.547  22.985  33.204  1.00  0.00    -0.234 N
ATOM     16  H42 UNL     1       5.332  22.019  33.455  1.00  0.00     0.174 HD
ATOM     17  H41 UNL     1       4.854  23.557  32.721  1.00  0.00     0.174 HD
ENDBRANCH   7  15
TORSDOF 3
ENDMDL