MODEL 1
REMARK VINA RESULT: -6.811519808      0.000      0.000
REMARK  4 active torsions:
REMARK  status: ('A' for Active; 'I' for Inactive)
REMARK    1  A    between atoms: N1_1  and  C1_4
REMARK    2  A    between atoms: N6_15  and  C4_16
REMARK    3  A    between atoms: C4_16  and  C5_17
REMARK    4  A    between atoms: C5_17  and  O1_18
ROOT
HETATM    1  C1  UNL     1      28.249  30.028 -18.492  1.00  0.00     0.146 A
HETATM    2  N2  UNL     1      28.422  29.863 -17.173  1.00  0.00    -0.282 N
ATOM      3  H2  UNL     1      29.014  30.447 -16.582  1.00  0.00     0.188 HD
HETATM    4  N3  UNL     1      27.707  28.821 -16.745  1.00  0.00    -0.281 N
ATOM      5  H3  UNL     1      27.674  28.493 -15.779  1.00  0.00     0.188 HD
HETATM    6  C2  UNL     1      27.038  28.265 -17.768  1.00  0.00     0.170 A
HETATM    7  C3  UNL     1      27.380  29.027 -18.874  1.00  0.00     0.141 A
HETATM    8  N4  UNL     1      26.706  28.465 -19.894  1.00  0.00    -0.279 N
ATOM      9  H4  UNL     1      26.726  28.778 -20.866  1.00  0.00     0.189 HD
HETATM   10  N5  UNL     1      26.008  27.432 -19.421  1.00  0.00    -0.238 N
ATOM     11  H5  UNL     1      25.410  26.832 -19.990  1.00  0.00     0.208 HD
HETATM   12  N6  UNL     1      26.190  27.286 -18.133  1.00  0.00    -0.257 N
ENDROOT
BRANCH  12  13
HETATM   13  C4  UNL     1      25.580  26.262 -17.306  1.00  0.00     0.178 C
BRANCH  13  14
HETATM   14  C5  UNL     1      26.610  25.678 -16.328  1.00  0.00     0.186 C
BRANCH  14  15
HETATM   15  O1  UNL     1      26.363  26.206 -15.069  1.00  0.00    -0.399 OA
ATOM     16  H1  UNL     1      26.593  25.551 -14.421  1.00  0.00     0.209 HD
ENDBRANCH  14  15
ENDBRANCH  13  14
ENDBRANCH  12  13
BRANCH   1  17
HETATM   17  N1  UNL     1      28.793  30.940 -19.222  1.00  0.00    -0.382 N
ATOM     18  H12 UNL     1      28.362  31.773 -19.624  1.00  0.00     0.157 HD
ATOM     19  H11 UNL     1      29.769  30.972 -19.518  1.00  0.00     0.157 HD
ENDBRANCH   1  17
TORSDOF 4
ENDMDL