MODEL 3
REMARK VINA RESULT: -5.474625633      1.258      1.344
REMARK  5 active torsions:
REMARK  status: ('A' for Active; 'I' for Inactive)
REMARK    1  A    between atoms: N1_1  and  C1_4
REMARK    2  A    between atoms: C2_7  and  N3_8
REMARK    3  A    between atoms: N3_8  and  N4_10
REMARK    4  A    between atoms: N5_13  and  C3_14
REMARK    5  A    between atoms: C3_14  and  C4_15
ROOT
HETATM    1  C1  UNL     1      27.036  28.444 -18.351  1.00  0.00     0.705 A
HETATM    2  N2  UNL     1      27.842  29.271 -17.655  1.00  0.00    -0.018 N
ATOM      3  H2  UNL     1      27.896  29.324 -16.637  1.00  0.00     0.203 HD
HETATM    4  C2  UNL     1      28.567  30.021 -18.516  1.00  0.00     0.728 A
HETATM    5  N5  UNL     1      28.172  29.620 -19.737  1.00  0.00    -0.107 N
HETATM    6  N6  UNL     1      27.257  28.676 -19.659  1.00  0.00    -0.115 N
ATOM      7  H6  UNL     1      26.801  28.209 -20.442  1.00  0.00     0.206 HD
ENDROOT
BRANCH   4   8
HETATM    8  N3  UNL     1      29.439  30.919 -18.196  1.00  0.00    -0.137 N
ATOM      9  H3  UNL     1      29.186  31.905 -18.244  1.00  0.00     0.205 HD
BRANCH   8  10
HETATM   10  N4  UNL     1      30.717  30.558 -17.788  1.00  0.00    -0.331 N
ATOM     11  H42 UNL     1      30.868  30.324 -16.807  1.00  0.00     0.177 HD
ATOM     12  H41 UNL     1      31.489  30.527 -18.454  1.00  0.00     0.177 HD
ENDBRANCH   8  10
ENDBRANCH   4   8
BRANCH   5  13
HETATM   13  C3  UNL     1      28.686  30.152 -20.960  1.00  0.00     0.183 C
BRANCH  13  14
HETATM   14  C4  UNL     1      27.837  31.255 -21.557  1.00  0.00     0.137 C
HETATM   15 CL1  UNL     1      28.114  32.832 -20.846  1.00  0.00    -0.129 Cl
ENDBRANCH  13  14
ENDBRANCH   5  13
BRANCH   1  16
HETATM   16  N1  UNL     1      26.198  27.580 -17.857  1.00  0.00    -0.233 N
ATOM     17  H12 UNL     1      25.376  27.795 -17.292  1.00  0.00     0.174 HD
ATOM     18  H11 UNL     1      26.238  26.567 -17.961  1.00  0.00     0.174 HD
ENDBRANCH   1  16
TORSDOF 5
ENDMDL