MODEL 3
REMARK VINA RESULT: -5.623614706      1.664      2.519
REMARK  5 active torsions:
REMARK  status: ('A' for Active; 'I' for Inactive)
REMARK    1  A    between atoms: N1_1  and  C1_4
REMARK    2  A    between atoms: C2_7  and  N3_8
REMARK    3  A    between atoms: N3_8  and  N4_10
REMARK    4  A    between atoms: N6_15  and  C3_16
REMARK    5  A    between atoms: C3_16  and  C4_17
ROOT
HETATM    1  C1  UNL     1      27.471  29.267 -20.097  1.00  0.00     0.707 A
HETATM    2  N2  UNL     1      26.650  28.330 -19.580  1.00  0.00    -0.018 N
ATOM      3  H2  UNL     1      25.982  27.751 -20.089  1.00  0.00     0.203 HD
HETATM    4  C2  UNL     1      26.889  28.314 -18.253  1.00  0.00     0.726 A
HETATM    5  N5  UNL     1      27.838  29.220 -17.948  1.00  0.00    -0.114 N
ATOM      6  H5  UNL     1      28.216  29.425 -17.023  1.00  0.00     0.206 HD
HETATM    7  N6  UNL     1      28.180  29.791 -19.089  1.00  0.00    -0.108 N
ENDROOT
BRANCH   4   8
HETATM    8  N3  UNL     1      26.284  27.536 -17.412  1.00  0.00    -0.137 N
ATOM      9  H3  UNL     1      26.761  27.282 -16.547  1.00  0.00     0.205 HD
BRANCH   8  10
HETATM   10  N4  UNL     1      25.017  27.037 -17.645  1.00  0.00    -0.331 N
ATOM     11  H42 UNL     1      24.875  26.032 -17.545  1.00  0.00     0.177 HD
ATOM     12  H41 UNL     1      24.235  27.636 -17.911  1.00  0.00     0.177 HD
ENDBRANCH   8  10
ENDBRANCH   4   8
BRANCH   1  13
HETATM   13  N1  UNL     1      27.532  29.575 -21.366  1.00  0.00    -0.233 N
ATOM     14  H12 UNL     1      27.910  30.423 -21.787  1.00  0.00     0.174 HD
ATOM     15  H11 UNL     1      27.193  28.976 -22.120  1.00  0.00     0.174 HD
ENDBRANCH   1  13
BRANCH   7  16
HETATM   16  C3  UNL     1      29.170  30.840 -19.294  1.00  0.00     0.183 C
BRANCH  16  17
HETATM   17  C4  UNL     1      28.525  32.221 -19.183  1.00  0.00     0.137 C
HETATM   18 CL1  UNL     1      28.311  32.970 -20.771  1.00  0.00    -0.129 Cl
ENDBRANCH  16  17
ENDBRANCH   7  16
TORSDOF 5
ENDMDL