MODEL 1
REMARK VINA RESULT: -6.227261059      0.000      0.000
REMARK  5 active torsions:
REMARK  status: ('A' for Active; 'I' for Inactive)
REMARK    1  A    between atoms: N1_1  and  C1_4
REMARK    2  A    between atoms: C2_7  and  C3_8
REMARK    3  A    between atoms: C3_8  and  O1_9
REMARK    4  A    between atoms: O1_9  and  N3_10
REMARK    5  A    between atoms: C4_15  and  N5_16
ROOT
HETATM    1  C1  UNL     1      27.345  29.212 -19.869  1.00  0.00     0.691 A
HETATM    2  N2  UNL     1      26.680  28.130 -19.425  1.00  0.00    -0.177 N
ATOM      3  H2  UNL     1      26.163  27.548 -20.084  1.00  0.00     0.185 HD
HETATM    4  C2  UNL     1      26.691  27.807 -18.112  1.00  0.00     0.139 A
HETATM    5  N4  UNL     1      27.391  28.614 -17.293  1.00  0.00    -0.177 N
ATOM      6  H4  UNL     1      27.418  28.397 -16.296  1.00  0.00     0.185 HD
HETATM    7  C4  UNL     1      28.056  29.696 -17.738  1.00  0.00     0.691 A
HETATM    8  N6  UNL     1      28.044  30.013 -19.045  1.00  0.00    -0.023 N
ATOM      9  H6  UNL     1      28.544  30.830 -19.397  1.00  0.00     0.203 HD
ENDROOT
BRANCH   4  10
HETATM   10  C3  UNL     1      25.954  26.610 -17.612  1.00  0.00     0.278 C
BRANCH  10  11
HETATM   11  O1  UNL     1      24.646  26.926 -17.239  1.00  0.00    -0.280 OA
BRANCH  11  12
HETATM   12  N3  UNL     1      23.777  26.758 -18.257  1.00  0.00    -0.311 N
ATOM     13  H32 UNL     1      23.404  25.848 -18.528  1.00  0.00     0.184 HD
ATOM     14  H31 UNL     1      23.545  27.642 -18.711  1.00  0.00     0.184 HD
ENDBRANCH  11  12
ENDBRANCH  10  11
ENDBRANCH   4  10
BRANCH   1  15
HETATM   15  N1  UNL     1      27.337  29.523 -21.125  1.00  0.00    -0.234 N
ATOM     16  H12 UNL     1      26.475  29.347 -21.640  1.00  0.00     0.174 HD
ATOM     17  H11 UNL     1      28.163  29.926 -21.567  1.00  0.00     0.174 HD
ENDBRANCH   1  15
BRANCH   7  18
HETATM   18  N5  UNL     1      28.730  30.473 -16.957  1.00  0.00    -0.234 N
ATOM     19  H52 UNL     1      28.819  30.181 -15.984  1.00  0.00     0.174 HD
ATOM     20  H51 UNL     1      29.161  31.341 -17.279  1.00  0.00     0.174 HD
ENDBRANCH   7  18
TORSDOF 5
ENDMDL