MODEL 3
REMARK VINA RESULT: -5.988993872      1.965      3.017
REMARK  4 active torsions:
REMARK  status: ('A' for Active; 'I' for Inactive)
REMARK    1  A    between atoms: N1_1  and  C1_4
REMARK    2  A    between atoms: C4_10  and  C5_11
REMARK    3  A    between atoms: C5_11  and  C6_14
REMARK    4  A    between atoms: C6_14  and  N4_15
ROOT
HETATM    1  C1  UNL     1      28.281  30.533 -17.130  1.00  0.00     0.676 A
HETATM    2  N2  UNL     1      27.821  29.314 -17.467  1.00  0.00    -0.200 N
ATOM      3  H2  UNL     1      27.612  28.629 -16.741  1.00  0.00     0.183 HD
HETATM    4  C2  UNL     1      27.637  29.001 -18.760  1.00  0.00     0.135 A
HETATM    5  C3  UNL     1      27.914  29.906 -19.743  1.00  0.00     0.091 A
HETATM    6  N3  UNL     1      27.733  29.610 -21.097  1.00  0.00    -0.099 NA
HETATM    7  C4  UNL     1      28.393  31.165 -19.347  1.00  0.00     0.125 A
HETATM    8  N5  UNL     1      28.570  31.466 -18.076  1.00  0.00    -0.188 N
ATOM      9  H5  UNL     1      28.919  32.386 -17.806  1.00  0.00     0.184 HD
ENDROOT
BRANCH   7  10
HETATM   10  C5  UNL     1      28.667  32.149 -20.417  1.00  0.00     0.311 C
HETATM   11  F1  UNL     1      27.553  32.316 -21.231  1.00  0.00    -0.197 F
HETATM   12  F2  UNL     1      28.815  33.377 -19.742  1.00  0.00    -0.197 F
BRANCH  10  13
HETATM   13  C6  UNL     1      29.894  31.903 -21.224  1.00  0.00     0.315 C
BRANCH  13  14
HETATM   14  N4  UNL     1      31.051  31.635 -20.425  1.00  0.00    -0.073 N
ATOM     15  H43 UNL     1      31.895  31.638 -20.997  1.00  0.00     0.274 HD
ATOM     16  H42 UNL     1      31.261  32.424 -19.813  1.00  0.00     0.274 HD
ATOM     17  H41 UNL     1      30.979  30.770 -19.890  1.00  0.00     0.274 HD
ENDBRANCH  13  14
ENDBRANCH  10  13
ENDBRANCH   7  10
BRANCH   1  18
HETATM   18  N1  UNL     1      28.444  30.795 -15.889  1.00  0.00    -0.234 N
ATOM     19  H12 UNL     1      29.382  30.875 -15.497  1.00  0.00     0.174 HD
ATOM     20  H11 UNL     1      27.613  30.919 -15.310  1.00  0.00     0.174 HD
ENDBRANCH   1  18
TORSDOF 4
ENDMDL