MODEL 3
REMARK VINA RESULT: -6.682730459      2.535      4.200
REMARK  3 active torsions:
REMARK  status: ('A' for Active; 'I' for Inactive)
REMARK    1  A    between atoms: C4_11  and  N5_12
REMARK    2  A    between atoms: N6_15  and  C5_16
REMARK    3  A    between atoms: C5_16  and  C6_17
ROOT
HETATM    1  N1  UNL     1      27.029  29.306 -21.703  1.00  0.00    -0.234 N
ATOM      2  H11 UNL     1      27.425  30.008 -22.329  1.00  0.00     0.174 HD
ATOM      3  H12 UNL     1      26.425  28.561 -22.050  1.00  0.00     0.174 HD
HETATM    4  C1  UNL     1      27.370  29.442 -20.476  1.00  0.00     0.681 A
HETATM    5  N2  UNL     1      26.839  28.500 -19.637  1.00  0.00    -0.177 N
ATOM      6  H2  UNL     1      26.242  27.775 -20.035  1.00  0.00     0.185 HD
HETATM    7  C2  UNL     1      27.068  28.487 -18.315  1.00  0.00     0.159 A
HETATM    8  N3  UNL     1      26.510  27.502 -17.448  1.00  0.00    -0.080 NA
HETATM    9  C3  UNL     1      27.881  29.488 -17.826  1.00  0.00     0.132 A
HETATM   10  N4  UNL     1      28.162  29.528 -16.430  1.00  0.00    -0.095 NA
HETATM   11  C4  UNL     1      28.401  30.418 -18.682  1.00  0.00     0.145 A
HETATM   12  N6  UNL     1      28.164  30.422 -20.020  1.00  0.00    -0.165 N
ENDROOT
BRANCH  12  13
HETATM   13  C5  UNL     1      28.740  31.386 -20.884  1.00  0.00     0.180 C
BRANCH  13  14
HETATM   14  C6  UNL     1      30.057  31.097 -21.470  1.00  0.00     0.242 C
HETATM   15  F1  UNL     1      30.003  30.348 -22.626  1.00  0.00    -0.254 F
ENDBRANCH  13  14
ENDBRANCH  12  13
BRANCH  11  16
HETATM   16  N5  UNL     1      29.161  31.360 -18.262  1.00  0.00    -0.383 N
ATOM     17  H52 UNL     1      29.727  31.128 -17.445  1.00  0.00     0.157 HD
ATOM     18  H51 UNL     1      29.183  32.269 -18.723  1.00  0.00     0.157 HD
ENDBRANCH  11  16
TORSDOF 3
ENDMDL