MODEL 2
REMARK VINA RESULT: -6.231926629      1.731      2.484
REMARK  5 active torsions:
REMARK  status: ('A' for Active; 'I' for Inactive)
REMARK    1  A    between atoms: N1_1  and  C1_4
REMARK    2  A    between atoms: C3_11  and  N4_12
REMARK    3  A    between atoms: N4_12  and  O1_14
REMARK    4  A    between atoms: O1_14  and  C4_15
REMARK    5  A    between atoms: C4_15  and  N5_16
ROOT
HETATM    1  C1  UNL     1      27.403  29.227 -19.879  1.00  0.00     0.692 A
HETATM    2  N2  UNL     1      27.993  29.919 -18.886  1.00  0.00    -0.165 N
ATOM      3  H2  UNL     1      28.532  30.755 -19.113  1.00  0.00     0.186 HD
HETATM    4  C2  UNL     1      27.887  29.531 -17.592  1.00  0.00     0.208 A
HETATM    5 CL1  UNL     1      28.672  30.459 -16.329  1.00  0.00    -0.044 Cl
HETATM    6  N3  UNL     1      27.188  28.441 -17.253  1.00  0.00    -0.163 N
ATOM      7  H3  UNL     1      27.109  28.152 -16.278  1.00  0.00     0.187 HD
HETATM    8  C3  UNL     1      26.591  27.738 -18.232  1.00  0.00     0.718 A
HETATM    9  N6  UNL     1      26.697  28.126 -19.523  1.00  0.00    -0.021 N
ATOM     10  H6  UNL     1      26.234  27.577 -20.247  1.00  0.00     0.203 HD
ENDROOT
BRANCH   8  11
HETATM   11  N4  UNL     1      25.908  26.676 -17.913  1.00  0.00    -0.094 N
ATOM     12  H4  UNL     1      25.130  26.769 -17.260  1.00  0.00     0.213 HD
BRANCH  11  13
HETATM   13  O1  UNL     1      26.193  25.446 -18.419  1.00  0.00    -0.239 OA
BRANCH  13  14
HETATM   14  C4  UNL     1      25.237  24.637 -19.082  1.00  0.00     0.430 C
BRANCH  14  15
HETATM   15  N5  UNL     1      24.906  25.349 -20.326  1.00  0.00    -0.056 N
ATOM     16  H53 UNL     1      24.744  26.347 -20.194  1.00  0.00     0.276 HD
ATOM     17  H52 UNL     1      25.693  25.436 -20.968  1.00  0.00     0.276 HD
ATOM     18  H51 UNL     1      24.108  24.854 -20.723  1.00  0.00     0.276 HD
ENDBRANCH  14  15
ENDBRANCH  13  14
ENDBRANCH  11  13
ENDBRANCH   8  11
BRANCH   1  19
HETATM   19  N1  UNL     1      27.488  29.576 -21.125  1.00  0.00    -0.234 N
ATOM     20  H12 UNL     1      27.965  28.976 -21.797  1.00  0.00     0.174 HD
ATOM     21  H11 UNL     1      27.090  30.445 -21.484  1.00  0.00     0.174 HD
ENDBRANCH   1  19
TORSDOF 5
ENDMDL