MODEL 5
REMARK VINA RESULT: -6.217542131      2.767      4.189
REMARK  6 active torsions:
REMARK  status: ('A' for Active; 'I' for Inactive)
REMARK    1  A    between atoms: N1_1  and  C1_4
REMARK    2  A    between atoms: C2_7  and  O1_8
REMARK    3  A    between atoms: O1_8  and  C3_9
REMARK    4  A    between atoms: C3_9  and  O2_10
REMARK    5  A    between atoms: O2_10  and  N3_11
REMARK    6  A    between atoms: C4_16  and  N5_17
ROOT
HETATM    1  C1  UNL     1      30.484  31.558 -20.773  1.00  0.00     0.693 A
HETATM    2  N2  UNL     1      30.461  30.936 -19.574  1.00  0.00    -0.154 N
ATOM      3  H2  UNL     1      31.308  30.931 -19.006  1.00  0.00     0.188 HD
HETATM    4  C2  UNL     1      29.355  30.322 -19.099  1.00  0.00     0.254 A
HETATM    5  N4  UNL     1      28.229  30.321 -19.842  1.00  0.00    -0.154 N
ATOM      6  H4  UNL     1      27.383  29.862 -19.504  1.00  0.00     0.188 HD
HETATM    7  C4  UNL     1      28.241  30.937 -21.038  1.00  0.00     0.693 A
HETATM    8  N6  UNL     1      29.360  31.557 -21.511  1.00  0.00    -0.023 N
ATOM      9  H6  UNL     1      29.345  32.017 -22.422  1.00  0.00     0.203 HD
ENDROOT
BRANCH   4  10
HETATM   10  O1  UNL     1      29.315  29.682 -17.876  1.00  0.00    -0.293 OA
BRANCH  10  11
HETATM   11  C3  UNL     1      28.171  29.869 -17.066  1.00  0.00     0.379 C
BRANCH  11  12
HETATM   12  O2  UNL     1      27.830  28.627 -16.540  1.00  0.00    -0.261 OA
BRANCH  12  13
HETATM   13  N3  UNL     1      26.942  28.063 -17.386  1.00  0.00    -0.309 N
ATOM     14  H32 UNL     1      26.589  27.108 -17.326  1.00  0.00     0.184 HD
ATOM     15  H31 UNL     1      26.698  28.767 -18.083  1.00  0.00     0.184 HD
ENDBRANCH  12  13
ENDBRANCH  11  12
ENDBRANCH  10  11
ENDBRANCH   4  10
BRANCH   1  16
HETATM   16  N1  UNL     1      31.540  32.149 -21.234  1.00  0.00    -0.234 N
ATOM     17  H12 UNL     1      32.345  32.275 -20.621  1.00  0.00     0.174 HD
ATOM     18  H11 UNL     1      31.602  32.497 -22.190  1.00  0.00     0.174 HD
ENDBRANCH   1  16
BRANCH   7  19
HETATM   19  N5  UNL     1      27.200  30.965 -21.777  1.00  0.00    -0.234 N
ATOM     20  H52 UNL     1      27.214  31.595 -22.580  1.00  0.00     0.174 HD
ATOM     21  H51 UNL     1      26.390  30.381 -21.570  1.00  0.00     0.174 HD
ENDBRANCH   7  19
TORSDOF 6
ENDMDL