MODEL 2
REMARK VINA RESULT: -6.377264219      0.159      2.304
REMARK  6 active torsions:
REMARK  status: ('A' for Active; 'I' for Inactive)
REMARK    1  A    between atoms: N1_1  and  C1_4
REMARK    2  A    between atoms: C2_7  and  O1_8
REMARK    3  A    between atoms: O1_8  and  C3_9
REMARK    4  A    between atoms: C3_9  and  C4_10
REMARK    5  A    between atoms: C4_10  and  O2_11
REMARK    6  A    between atoms: C5_15  and  N4_16
ROOT
HETATM    1  C1  UNL     1      28.219  29.704 -17.875  1.00  0.00     0.693 A
HETATM    2  N2  UNL     1      27.508  28.739 -17.292  1.00  0.00    -0.154 N
ATOM      3  H2  UNL     1      27.610  28.577 -16.290  1.00  0.00     0.188 HD
HETATM    4  C2  UNL     1      26.667  27.984 -17.996  1.00  0.00     0.252 A
HETATM    5  N3  UNL     1      26.550  28.219 -19.319  1.00  0.00    -0.154 N
ATOM      6  H3  UNL     1      25.909  27.647 -19.867  1.00  0.00     0.188 HD
HETATM    7  C5  UNL     1      27.248  29.180 -19.935  1.00  0.00     0.693 A
HETATM    8  N5  UNL     1      28.091  29.928 -19.200  1.00  0.00    -0.023 N
ATOM      9  H5  UNL     1      28.634  30.668 -19.646  1.00  0.00     0.203 HD
ENDROOT
BRANCH   4  10
HETATM   10  O1  UNL     1      25.889  26.966 -17.496  1.00  0.00    -0.319 OA
BRANCH  10  11
HETATM   11  C3  UNL     1      25.406  25.907 -18.254  1.00  0.00     0.205 C
BRANCH  11  12
HETATM   12  C4  UNL     1      23.924  26.040 -18.459  1.00  0.00     0.191 C
BRANCH  12  13
HETATM   13  O2  UNL     1      23.430  26.814 -17.387  1.00  0.00    -0.399 OA
ATOM     14  H2  UNL     1      22.873  27.485 -17.764  1.00  0.00     0.209 HD
ENDBRANCH  12  13
ENDBRANCH  11  12
ENDBRANCH  10  11
ENDBRANCH   4  10
BRANCH   1  15
HETATM   15  N1  UNL     1      29.049  30.452 -17.191  1.00  0.00    -0.234 N
ATOM     16  H12 UNL     1      29.179  31.423 -17.476  1.00  0.00     0.174 HD
ATOM     17  H11 UNL     1      29.560  30.084 -16.388  1.00  0.00     0.174 HD
ENDBRANCH   1  15
BRANCH   7  18
HETATM   18  N4  UNL     1      27.121  29.395 -21.215  1.00  0.00    -0.234 N
ATOM     19  H42 UNL     1      27.875  29.146 -21.856  1.00  0.00     0.174 HD
ATOM     20  H41 UNL     1      26.276  29.814 -21.602  1.00  0.00     0.174 HD
ENDBRANCH   7  18
TORSDOF 6
ENDMDL