MODEL 2
REMARK VINA RESULT: -7.227125556      1.831      2.718
REMARK  1 active torsions:
REMARK  status: ('A' for Active; 'I' for Inactive)
REMARK    1  A    between atoms: C4_14  and  N7_15
ROOT
HETATM    1  N1  UNL     1      27.012  28.834 -19.860  1.00  0.00    -0.386 N
ATOM      2  H11 UNL     1      26.621  28.807 -18.918  1.00  0.00     0.157 HD
ATOM      3  H12 UNL     1      26.805  28.185 -20.618  1.00  0.00     0.157 HD
HETATM    4  C1  UNL     1      27.848  29.799 -20.077  1.00  0.00     0.116 C
HETATM    5  N2  UNL     1      28.389  29.836 -21.384  1.00  0.00    -0.318 N
ATOM      6  H2  UNL     1      28.003  29.162 -22.044  1.00  0.00     0.170 HD
HETATM    7  C2  UNL     1      29.404  30.693 -21.893  1.00  0.00     0.192 C
HETATM    8  N3  UNL     1      30.078  30.307 -23.080  1.00  0.00    -0.063 NA
HETATM    9  N4  UNL     1      29.755  31.814 -21.338  1.00  0.00    -0.332 N
ATOM     10  H4  UNL     1      30.499  32.297 -21.842  1.00  0.00     0.165 HD
HETATM   11  C3  UNL     1      29.320  32.509 -20.176  1.00  0.00     0.289 A
HETATM   12  N5  UNL     1      27.880  32.842 -20.235  1.00  0.00    -0.117 NA
HETATM   13  N6  UNL     1      28.457  32.039 -19.301  1.00  0.00    -0.162 NA
HETATM   14  C4  UNL     1      28.148  30.739 -18.980  1.00  0.00     0.287 C
ENDROOT
BRANCH  14  15
HETATM   15  N7  UNL     1      29.247  30.149 -18.195  1.00  0.00     0.044 NA
HETATM   16  F1  UNL     1      28.669  29.353 -17.264  1.00  0.00    -0.099 F
HETATM   17  F2  UNL     1      30.040  29.426 -19.002  1.00  0.00    -0.099 F
ENDBRANCH  14  15
TORSDOF 1
ENDMDL