MODEL 2
REMARK VINA RESULT: -7.629714256      1.448      1.722
REMARK  7 active torsions:
REMARK  status: ('A' for Active; 'I' for Inactive)
REMARK    1  A    between atoms: C3_4  and  S1_5
REMARK    2  A    between atoms: S1_5  and  C4_6
REMARK    3  A    between atoms: C7_9  and  C8_10
REMARK    4  A    between atoms: C8_10  and  N1_11
REMARK    5  A    between atoms: N1_11  and  S2_13
REMARK    6  A    between atoms: S2_13  and  N2_14
REMARK    7  A    between atoms: C10_20  and  O4_21
ROOT
HETATM    1  C4  UNL     1      24.327   6.077  14.142  1.00  0.00     0.083 C
HETATM    2  C5  UNL     1      22.971   5.964  14.749  1.00  0.00     0.018 C
HETATM    3  C6  UNL     1      22.918   6.762  16.013  1.00  0.00     0.007 C
HETATM    4  C7  UNL     1      23.986   7.796  16.160  1.00  0.00     0.006 C
HETATM    5  C9  UNL     1      25.381   7.276  15.971  1.00  0.00     0.039 C
HETATM    6  C10 UNL     1      25.354   5.927  15.240  1.00  0.00     0.132 C
ENDROOT
BRANCH   1   7
HETATM    7  S1  UNL     1      24.592   4.984  12.744  1.00  0.00    -0.097 SA
BRANCH   7   8
HETATM    8  C3  UNL     1      24.350   5.782  11.165  1.00  0.00     0.119 A
HETATM    9  O1  UNL     1      25.022   6.830  10.719  1.00  0.00    -0.307 OA
HETATM   10  C2  UNL     1      24.634   7.197   9.538  1.00  0.00     0.057 A
HETATM   11  C1  UNL     1      25.151   8.340   8.700  1.00  0.00     0.077 C
HETATM   12  C13 UNL     1      23.626   6.355   9.124  1.00  0.00    -0.023 A
HETATM   13  C11 UNL     1      23.454   5.463  10.161  1.00  0.00    -0.013 A
HETATM   14  C14 UNL     1      22.905   6.427   7.831  1.00  0.00     0.051 C
HETATM   15  C12 UNL     1      22.468   4.337  10.192  1.00  0.00     0.052 C
ENDBRANCH   7   8
ENDBRANCH   1   7
BRANCH   6  16
HETATM   16  O4  UNL     1      24.912   4.986  16.168  1.00  0.00    -0.394 OA
ATOM     17  H4  UNL     1      25.309   4.144  15.983  1.00  0.00     0.210 HD
ENDBRANCH   6  16
BRANCH   4  18
HETATM   18  C8  UNL     1      23.927   8.350  17.569  1.00  0.00     0.138 C
BRANCH  18  19
HETATM   19  N1  UNL     1      23.115   7.581  18.457  1.00  0.00    -0.303 N
ATOM     20  H1  UNL     1      22.097   7.542  18.433  1.00  0.00     0.173 HD
BRANCH  19  21
HETATM   21  S2  UNL     1      24.110   6.731  19.572  1.00  0.00     0.312 S
HETATM   22  O2  UNL     1      23.326   6.479  20.826  1.00  0.00    -0.183 OA
HETATM   23  O3  UNL     1      24.416   5.379  18.951  1.00  0.00    -0.183 OA
BRANCH  21  24
HETATM   24  N2  UNL     1      25.604   7.509  19.853  1.00  0.00    -0.312 N
ATOM     25  H22 UNL     1      25.721   8.520  19.786  1.00  0.00     0.170 HD
ATOM     26  H21 UNL     1      26.351   6.856  20.092  1.00  0.00     0.170 HD
ENDBRANCH  21  24
ENDBRANCH  19  21
ENDBRANCH  18  19
ENDBRANCH   4  18
TORSDOF 7
ENDMDL