MODEL 5
REMARK VINA RESULT: -7.158267742      2.926      4.248
REMARK  7 active torsions:
REMARK  status: ('A' for Active; 'I' for Inactive)
REMARK    1  A    between atoms: O1_1  and  C1_3
REMARK    2  A    between atoms: C1_3  and  C2_4
REMARK    3  A    between atoms: C1_3  and  C11_22
REMARK    4  A    between atoms: C2_4  and  N1_5
REMARK    5  A    between atoms: C4_12  and  N4_13
REMARK    6  A    between atoms: N4_13  and  C5_15
REMARK    7  A    between atoms: C11_22  and  N5_23
ROOT
HETATM    1  N1  UNL     1      23.316   6.707  13.624  1.00  0.00    -0.367 N
ATOM      2  H1  UNL     1      23.383   7.644  13.226  1.00  0.00     0.161 HD
HETATM    3  C3  UNL     1      24.096   6.418  14.606  1.00  0.00     0.162 A
HETATM    4  N2  UNL     1      24.259   5.313  15.333  1.00  0.00    -0.278 N
ATOM      5  H2  UNL     1      23.708   4.479  15.131  1.00  0.00     0.189 HD
HETATM    6  N3  UNL     1      25.108   5.305  16.283  1.00  0.00    -0.278 N
ATOM      7  H3  UNL     1      25.241   4.464  16.846  1.00  0.00     0.189 HD
HETATM    8  C4  UNL     1      25.820   6.400  16.538  1.00  0.00     0.163 A
HETATM    9  S1  UNL     1      25.241   7.485  15.354  1.00  0.00    -0.016 SA
ENDROOT
BRANCH   1  10
HETATM   10  C2  UNL     1      22.372   5.820  13.056  1.00  0.00     0.159 C
BRANCH  10  11
HETATM   11  C1  UNL     1      22.947   4.912  12.040  1.00  0.00     0.174 C
BRANCH  11  12
HETATM   12  O1  UNL     1      23.539   3.795  12.668  1.00  0.00    -0.389 OA
ATOM     13  H1  UNL     1      24.450   3.721  12.410  1.00  0.00     0.210 HD
ENDBRANCH  11  12
BRANCH  11  14
HETATM   14  C11 UNL     1      23.858   5.495  11.015  1.00  0.00     0.091 C
BRANCH  14  15
HETATM   15  N5  UNL     1      23.307   5.583   9.740  1.00  0.00    -0.391 N
HETATM   16  C12 UNL     1      22.150   4.940   9.321  1.00  0.00     0.122 C
HETATM   17  C13 UNL     1      22.248   4.413   7.878  1.00  0.00     0.020 C
HETATM   18  C14 UNL     1      21.689   5.415   6.894  1.00  0.00     0.002 C
HETATM   19  C15 UNL     1      22.610   6.612   6.763  1.00  0.00     0.002 C
HETATM   20  C16 UNL     1      22.776   7.312   8.107  1.00  0.00     0.020 C
HETATM   21  C17 UNL     1      23.817   6.652   8.942  1.00  0.00     0.122 C
ENDBRANCH  14  15
ENDBRANCH  11  14
ENDBRANCH  10  11
ENDBRANCH   1  10
BRANCH   8  22
HETATM   22  N4  UNL     1      26.724   6.599  17.477  1.00  0.00    -0.365 N
ATOM     23  H4  UNL     1      27.706   6.715  17.230  1.00  0.00     0.162 HD
BRANCH  22  24
HETATM   24  C5  UNL     1      26.303   6.651  18.884  1.00  0.00     0.083 C
HETATM   25  C6  UNL     1      26.144   5.269  19.403  1.00  0.00     0.025 C
HETATM   26  C7  UNL     1      25.115   5.342  20.543  1.00  0.00     0.002 C
HETATM   27  C8  UNL     1      23.789   5.575  19.801  1.00  0.00     0.000 C
HETATM   28  C9  UNL     1      23.814   6.963  19.277  1.00  0.00     0.002 C
HETATM   29  C10 UNL     1      25.138   7.556  18.988  1.00  0.00     0.025 C
ENDBRANCH  22  24
ENDBRANCH   8  22
TORSDOF 7
ENDMDL