MODEL 5
REMARK VINA RESULT: -7.560712569      2.447      3.297
REMARK  8 active torsions:
REMARK  status: ('A' for Active; 'I' for Inactive)
REMARK    1  A    between atoms: C2_2  and  C5_5
REMARK    2  A    between atoms: C6_10  and  C7_11
REMARK    3  A    between atoms: C7_11  and  C8_12
REMARK    4  A    between atoms: C8_12  and  O2_14
REMARK    5  A    between atoms: O2_14  and  C9_15
REMARK    6  A    between atoms: C9_15  and  C10_16
REMARK    7  A    between atoms: C10_16  and  N4_20
REMARK    8  A    between atoms: N4_20  and  C11_22
ROOT
HETATM    1  O2  UNL     1      24.617   8.507  14.744  1.00  0.00    -0.314 OA
ENDROOT
BRANCH   1   2
HETATM    2  C8  UNL     1      23.607   8.900  15.578  1.00  0.00     0.266 C
HETATM    3  O1  UNL     1      23.755   9.843  16.369  1.00  0.00    -0.265 OA
BRANCH   2   4
HETATM    4  C7  UNL     1      22.317   8.179  15.522  1.00  0.00     0.189 C
BRANCH   4   5
HETATM    5  C6  UNL     1      22.478   7.039  14.567  1.00  0.00     0.106 A
HETATM    6  N2  UNL     1      22.424   5.731  14.891  1.00  0.00    -0.287 N
HETATM    7  N1  UNL     1      22.600   5.028  13.805  1.00  0.00    -0.287 N
ATOM      8  H2  UNL     1      22.272   5.355  15.826  1.00  0.00     0.188 HD
HETATM    9  C5  UNL     1      22.774   5.857  12.738  1.00  0.00     0.105 A
ATOM     10  H1  UNL     1      22.606   4.008  13.761  1.00  0.00     0.188 HD
HETATM   11  N5  UNL     1      22.694   7.097  13.245  1.00  0.00    -0.332 N
ATOM     12  H5  UNL     1      22.783   7.958  12.704  1.00  0.00     0.168 HD
BRANCH   9  13
HETATM   13  C2  UNL     1      23.001   5.418  11.331  1.00  0.00     0.009 C
HETATM   14  C1  UNL     1      22.963   3.897  11.343  1.00  0.00     0.023 C
HETATM   15  C3  UNL     1      21.867   5.902  10.459  1.00  0.00     0.023 C
HETATM   16  C4  UNL     1      24.352   5.901  10.825  1.00  0.00     0.023 C
ENDBRANCH   9  13
ENDBRANCH   4   5
ENDBRANCH   2   4
ENDBRANCH   1   2
BRANCH   1  17
HETATM   17  C9  UNL     1      25.951   8.289  15.110  1.00  0.00     0.254 C
BRANCH  17  18
HETATM   18  C10 UNL     1      26.187   6.831  15.396  1.00  0.00     0.096 C
HETATM   19  N3  UNL     1      26.014   5.970  14.496  1.00  0.00    -0.387 N
ATOM     20  H32 UNL     1      25.706   6.199  13.550  1.00  0.00     0.157 HD
ATOM     21  H31 UNL     1      26.174   4.982  14.690  1.00  0.00     0.157 HD
BRANCH  18  22
HETATM   22  N4  UNL     1      26.607   6.518  16.685  1.00  0.00    -0.369 N
ATOM     23  H4  UNL     1      27.608   6.344  16.783  1.00  0.00     0.161 HD
BRANCH  22  24
HETATM   24  C11 UNL     1      25.862   6.405  17.879  1.00  0.00     0.035 C
HETATM   25  C12 UNL     1      26.496   5.325  18.770  1.00  0.00     0.036 C
HETATM   26  C13 UNL     1      26.044   5.806  20.131  1.00  0.00    -0.011 C
HETATM   27  C14 UNL     1      24.550   5.581  20.180  1.00  0.00     0.009 C
HETATM   28  C18 UNL     1      26.386   7.295  20.036  1.00  0.00     0.012 C
HETATM   29  C15 UNL     1      23.849   6.253  19.044  1.00  0.00    -0.011 C
HETATM   30  C16 UNL     1      24.218   7.747  19.071  1.00  0.00     0.012 C
HETATM   31  C19 UNL     1      24.425   5.898  17.681  1.00  0.00     0.036 C
HETATM   32  C17 UNL     1      25.706   7.633  18.705  1.00  0.00     0.014 C
ENDBRANCH  22  24
ENDBRANCH  18  22
ENDBRANCH  17  18
ENDBRANCH   1  17
TORSDOF 8
ENDMDL