MODEL 1
REMARK VINA RESULT: -8.115553510      0.000      0.000
REMARK  6 active torsions:
REMARK  status: ('A' for Active; 'I' for Inactive)
REMARK       I    between atoms: C1_2  and  N1_3
REMARK    1  A    between atoms: C1_2  and  C9_13
REMARK    2  A    between atoms: N1_3  and  C2_5
REMARK    3  A    between atoms: C2_5  and  C3_6
REMARK    4  A    between atoms: C3_6  and  N2_7
REMARK    5  A    between atoms: C12_16  and  C13_17
REMARK    6  A    between atoms: C13_17  and  N3_18
ROOT
HETATM    1  C9  UNL     1      24.615   6.913  15.800  1.00  0.00     0.078 C
HETATM    2  C10 UNL     1      24.662   8.371  15.395  1.00  0.00     0.014 C
HETATM    3  C11 UNL     1      25.237   9.117  16.565  1.00  0.00     0.007 C
HETATM    4  C12 UNL     1      25.817   8.090  17.521  1.00  0.00     0.006 C
HETATM    5  C16 UNL     1      25.675   6.760  16.867  1.00  0.00     0.020 C
ENDROOT
BRANCH   1   6
HETATM    6  C1  UNL     1      25.076   6.139  14.594  1.00  0.00     0.221 C
HETATM    7  O1  UNL     1      26.274   6.136  14.288  1.00  0.00    -0.273 OA
HETATM    8  N1  UNL     1      24.085   5.444  13.867  1.00  0.00    -0.359 N
ATOM      9  H1  UNL     1      23.116   5.488  14.180  1.00  0.00     0.162 HD
BRANCH   8  10
HETATM   10  C2  UNL     1      24.409   4.675  12.698  1.00  0.00     0.142 C
BRANCH  10  11
HETATM   11  C3  UNL     1      24.346   5.532  11.471  1.00  0.00     0.136 C
BRANCH  11  12
HETATM   12  N2  UNL     1      23.508   4.902  10.510  1.00  0.00    -0.411 N
HETATM   13  C4  UNL     1      23.013   5.727   9.470  1.00  0.00     0.117 C
HETATM   14  C5  UNL     1      22.221   4.863   8.476  1.00  0.00     0.019 C
HETATM   15  C6  UNL     1      21.040   4.220   9.177  1.00  0.00     0.003 C
HETATM   16  C7  UNL     1      21.189   4.341  10.693  1.00  0.00     0.019 C
HETATM   17  C8  UNL     1      22.629   3.901  10.999  1.00  0.00     0.117 C
ENDBRANCH  11  12
ENDBRANCH  10  11
ENDBRANCH   8  10
ENDBRANCH   1   6
BRANCH   4  18
HETATM   18  C13 UNL     1      25.033   8.166  18.782  1.00  0.00     0.156 C
BRANCH  18  19
HETATM   19  N3  UNL     1      24.974   6.926  19.532  1.00  0.00    -0.263 N
HETATM   20  N4  UNL     1      24.065   5.999  19.588  1.00  0.00    -0.247 N
HETATM   21  C14 UNL     1      24.455   5.036  20.440  1.00  0.00     0.341 A
ATOM     22  H4  UNL     1      23.189   6.002  19.066  1.00  0.00     0.192 HD
HETATM   23  O2  UNL     1      23.790   3.992  20.717  1.00  0.00    -0.245 OA
HETATM   24  N5  UNL     1      25.663   5.394  20.928  1.00  0.00    -0.283 N
HETATM   25  C15 UNL     1      25.978   6.568  20.359  1.00  0.00     0.197 A
ATOM     26  H5  UNL     1      26.226   4.873  21.599  1.00  0.00     0.173 HD
HETATM   27  S1  UNL     1      27.377   7.396  20.655  1.00  0.00    -0.039 SA
ENDBRANCH  18  19
ENDBRANCH   4  18
TORSDOF 6
ENDMDL