MODEL 3
REMARK VINA RESULT: -6.266203122      1.141      1.889
REMARK  10 active torsions:
REMARK  status: ('A' for Active; 'I' for Inactive)
REMARK    1  A    between atoms: C2_2  and  N1_3
REMARK    2  A    between atoms: N1_3  and  C3_4
REMARK    3  A    between atoms: N1_3  and  C5_6
REMARK    4  A    between atoms: C5_6  and  C6_7
REMARK    5  A    between atoms: C6_7  and  N2_8
REMARK    6  A    between atoms: N2_8  and  C7_10
REMARK    7  A    between atoms: C8_13  and  C9_14
REMARK    8  A    between atoms: C10_15  and  C11_16
REMARK    9  A    between atoms: C19_27  and  C20_28
REMARK   10  A    between atoms: C20_28  and  N5_29
ROOT
HETATM    1  C7  UNL     1      23.859   7.283   6.147  1.00  0.00     0.127 A
HETATM    2  N3  UNL     1      23.724   7.088   7.467  1.00  0.00    -0.333 N
ATOM      3  H3  UNL     1      22.854   6.679   7.807  1.00  0.00     0.168 HD
HETATM    4  C8  UNL     1      24.674   7.401   8.368  1.00  0.00     0.103 A
HETATM    5  C18 UNL     1      25.833   7.953   7.828  1.00  0.00     0.127 A
HETATM    6  N4  UNL     1      25.991   8.156   6.516  1.00  0.00    -0.362 N
ATOM      7  H4  UNL     1      26.858   8.562   6.165  1.00  0.00     0.165 HD
HETATM    8  C19 UNL     1      25.015   7.828   5.660  1.00  0.00     0.079 A
ENDROOT
BRANCH   4   9
HETATM    9  C9  UNL     1      24.534   7.191   9.783  1.00  0.00    -0.045 C
HETATM   10  C10 UNL     1      24.431   6.996  10.967  1.00  0.00    -0.067 C
BRANCH  10  11
HETATM   11  C11 UNL     1      24.327   6.739  12.402  1.00  0.00     0.201 C
HETATM   12  C12 UNL     1      25.185   5.554  12.728  1.00  0.00     0.045 C
HETATM   13  C13 UNL     1      24.970   5.234  14.204  1.00  0.00     0.006 C
HETATM   14  C14 UNL     1      24.082   6.252  14.850  1.00  0.00     0.037 C
HETATM   15  C15 UNL     1      22.825   6.539  14.081  1.00  0.00     0.055 C
HETATM   16  C16 UNL     1      21.696   5.716  14.607  1.00  0.00     0.045 C
HETATM   17  C17 UNL     1      22.466   8.010  14.311  1.00  0.00     0.045 C
HETATM   18  O1  UNL     1      23.005   6.406  12.704  1.00  0.00    -0.363 OA
ENDBRANCH  10  11
ENDBRANCH   4   9
BRANCH   1  19
HETATM   19  N2  UNL     1      22.927   6.975   5.313  1.00  0.00    -0.370 N
ATOM     20  H2  UNL     1      22.703   7.658   4.590  1.00  0.00     0.161 HD
BRANCH  19  21
HETATM   21  C6  UNL     1      22.190   5.768   5.315  1.00  0.00     0.165 C
BRANCH  21  22
HETATM   22  C5  UNL     1      20.826   5.790   5.899  1.00  0.00     0.077 C
BRANCH  22  23
HETATM   23  N1  UNL     1      20.623   5.332   7.203  1.00  0.00    -0.392 N
BRANCH  23  24
HETATM   24  C2  UNL     1      21.404   4.267   7.698  1.00  0.00     0.117 C
HETATM   25  C1  UNL     1      21.859   4.556   9.142  1.00  0.00     0.026 C
ENDBRANCH  23  24
BRANCH  23  26
HETATM   26  C3  UNL     1      20.245   6.245   8.214  1.00  0.00     0.117 C
HETATM   27  C4  UNL     1      20.136   7.673   7.805  1.00  0.00     0.026 C
ENDBRANCH  23  26
ENDBRANCH  22  23
ENDBRANCH  21  22
ENDBRANCH  19  21
ENDBRANCH   1  19
BRANCH   8  28
HETATM   28  C20 UNL     1      25.196   8.057   4.175  1.00  0.00     0.290 C
BRANCH  28  29
HETATM   29  N5  UNL     1      26.557   8.438   3.963  1.00  0.00    -0.074 N
ATOM     30  H53 UNL     1      26.723   9.431   4.131  1.00  0.00     0.274 HD
ATOM     31  H52 UNL     1      27.189   8.075   4.678  1.00  0.00     0.274 HD
ATOM     32  H51 UNL     1      26.813   8.146   3.020  1.00  0.00     0.274 HD
ENDBRANCH  28  29
ENDBRANCH   8  28
TORSDOF 10
ENDMDL