MODEL 4
REMARK VINA RESULT: -7.363503084      1.318      1.498
REMARK  7 active torsions:
REMARK  status: ('A' for Active; 'I' for Inactive)
REMARK    1  A    between atoms: C4_4  and  N1_5
REMARK    2  A    between atoms: C10_12  and  C11_13
REMARK    3  A    between atoms: N3_14  and  N4_16
REMARK    4  A    between atoms: N4_16  and  C12_18
REMARK    5  A    between atoms: C12_18  and  N5_20
REMARK    6  A    between atoms: N5_20  and  C13_22
REMARK    7  A    between atoms: C13_22  and  C14_23
ROOT
HETATM    1  C1  UNL     1      22.515   3.279  11.152  1.00  0.00     0.049 C
HETATM    2  C2  UNL     1      22.865   4.547  10.461  1.00  0.00    -0.047 A
HETATM    3  C3  UNL     1      22.542   4.705   9.159  1.00  0.00     0.037 A
HETATM    4  C4  UNL     1      22.862   5.890   8.488  1.00  0.00     0.031 A
HETATM    5  C7  UNL     1      23.510   6.891   9.172  1.00  0.00     0.053 A
HETATM    6  C8  UNL     1      23.853   6.746  10.518  1.00  0.00     0.059 A
HETATM    7  C9  UNL     1      24.530   7.827  11.182  1.00  0.00     0.100 C
HETATM    8  N2  UNL     1      25.080   8.723  11.696  1.00  0.00    -0.191 NA
HETATM    9  C10 UNL     1      23.523   5.578  11.132  1.00  0.00     0.007 A
ENDROOT
BRANCH   9  10
HETATM   10  C11 UNL     1      23.843   5.348  12.527  1.00  0.00     0.120 C
HETATM   11  N3  UNL     1      25.037   5.058  12.871  1.00  0.00    -0.309 N
ATOM     12  H3  UNL     1      25.771   4.987  12.166  1.00  0.00     0.186 HD
BRANCH  11  13
HETATM   13  N4  UNL     1      25.333   4.839  14.210  1.00  0.00    -0.277 N
ATOM     14  H4  UNL     1      25.649   3.924  14.530  1.00  0.00     0.189 HD
BRANCH  13  15
HETATM   15  C12 UNL     1      25.188   5.916  15.123  1.00  0.00     0.186 C
HETATM   16  S1  UNL     1      26.038   7.283  14.910  1.00  0.00    -0.040 SA
BRANCH  15  17
HETATM   17  N5  UNL     1      24.305   5.834  16.242  1.00  0.00    -0.366 N
ATOM     18  H5  UNL     1      23.318   6.076  16.149  1.00  0.00     0.161 HD
BRANCH  17  19
HETATM   19  C13 UNL     1      24.842   5.401  17.508  1.00  0.00     0.126 C
BRANCH  19  20
HETATM   20  C14 UNL     1      24.585   6.455  18.533  1.00  0.00     0.006 C
HETATM   21  C15 UNL     1      25.779   7.289  18.847  1.00  0.00     0.034 C
HETATM   22  C16 UNL     1      26.759   6.477  19.679  1.00  0.00     0.232 C
HETATM   23  N6  UNL     1      26.165   5.921  20.856  1.00  0.00    -0.075 N
HETATM   24  C17 UNL     1      25.005   5.103  20.564  1.00  0.00     0.232 C
ATOM     25  H62 UNL     1      26.852   5.401  21.402  1.00  0.00     0.277 HD
ATOM     26  H61 UNL     1      25.938   6.651  21.531  1.00  0.00     0.277 HD
HETATM   27  C18 UNL     1      23.967   5.841  19.773  1.00  0.00     0.034 C
ENDBRANCH  19  20
ENDBRANCH  17  19
ENDBRANCH  15  17
ENDBRANCH  13  15
ENDBRANCH  11  13
ENDBRANCH   9  10
BRANCH   4  28
HETATM   28  N1  UNL     1      22.525   6.060   7.126  1.00  0.00    -0.390 N
HETATM   29  C5  UNL     1      21.529   5.243   6.482  1.00  0.00     0.149 C
HETATM   30  C6  UNL     1      23.190   7.074   6.352  1.00  0.00     0.149 C
ENDBRANCH   4  28
TORSDOF 7
ENDMDL