MODEL 1
REMARK VINA RESULT: -7.961798990      0.000      0.000
REMARK  6 active torsions:
REMARK  status: ('A' for Active; 'I' for Inactive)
REMARK    1  A    between atoms: C4_7  and  C5_8
REMARK    2  A    between atoms: N3_11  and  C8_12
REMARK    3  A    between atoms: C8_12  and  C9_13
REMARK    4  A    between atoms: C9_13  and  N4_14
REMARK       I    between atoms: N4_14  and  C10_16
REMARK       I    between atoms: C10_16  and  N5_18
REMARK    5  A    between atoms: N5_18  and  C11_20
REMARK    6  A    between atoms: C15_24  and  O2_25
ROOT
HETATM    1  C9  UNL     1      24.371   5.639  12.337  1.00  0.00     0.154 C
ENDROOT
BRANCH   1   2
HETATM    2  C8  UNL     1      23.877   6.989  11.873  1.00  0.00     0.292 C
BRANCH   2   3
HETATM    3  N3  UNL     1      22.988   6.770  10.743  1.00  0.00     0.090 N
HETATM    4  C7  UNL     1      22.554   8.025  10.160  1.00  0.00     0.273 C
HETATM    5  C6  UNL     1      23.574   8.516   9.155  1.00  0.00     0.041 C
HETATM    6  C5  UNL     1      23.441   7.628   7.938  1.00  0.00     0.040 C
HETATM    7  C18 UNL     1      23.157   6.186   8.349  1.00  0.00     0.041 C
HETATM    8  C17 UNL     1      23.617   5.913   9.757  1.00  0.00     0.273 C
BRANCH   6   9
HETATM    9  C4  UNL     1      24.652   7.686   7.083  1.00  0.00     0.031 A
HETATM   10  N1  UNL     1      24.698   7.393   5.768  1.00  0.00    -0.349 N
HETATM   11  C1  UNL     1      23.552   6.973   4.991  1.00  0.00     0.156 C
HETATM   12  C2  UNL     1      25.952   7.552   5.306  1.00  0.00     0.182 A
HETATM   13  N2  UNL     1      26.701   7.948   6.348  1.00  0.00    -0.360 N
HETATM   14  C3  UNL     1      25.926   8.036   7.441  1.00  0.00     0.114 A
ATOM     15  H2  UNL     1      27.701   8.151   6.314  1.00  0.00     0.166 HD
ENDBRANCH   6   9
ENDBRANCH   2   3
ENDBRANCH   1   2
BRANCH   1  16
HETATM   16  N4  UNL     1      24.104   5.505  13.748  1.00  0.00    -0.341 N
HETATM   17  C10 UNL     1      25.057   5.872  14.723  1.00  0.00     0.316 C
HETATM   18  O1  UNL     1      26.166   6.317  14.369  1.00  0.00    -0.247 OA
HETATM   19  N5  UNL     1      24.763   5.740  16.114  1.00  0.00    -0.338 N
ATOM     20  H5  UNL     1      23.857   5.377  16.412  1.00  0.00     0.164 HD
ATOM     21  H4  UNL     1      23.202   5.136  14.050  1.00  0.00     0.164 HD
BRANCH  19  22
HETATM   22  C11 UNL     1      25.753   6.122  17.109  1.00  0.00     0.088 C
HETATM   23  C12 UNL     1      25.571   7.598  17.371  1.00  0.00     0.025 C
HETATM   24  C13 UNL     1      25.309   7.896  18.819  1.00  0.00     0.004 C
HETATM   25  C14 UNL     1      26.314   7.214  19.716  1.00  0.00     0.032 C
HETATM   26  C15 UNL     1      26.334   5.732  19.519  1.00  0.00     0.120 C
HETATM   27  C16 UNL     1      25.517   5.279  18.333  1.00  0.00     0.057 C
BRANCH  26  28
HETATM   28  O2  UNL     1      25.797   5.084  20.646  1.00  0.00    -0.396 OA
ATOM     29  H2  UNL     1      25.347   4.290  20.385  1.00  0.00     0.210 HD
ENDBRANCH  26  28
ENDBRANCH  19  22
ENDBRANCH   1  16
TORSDOF 6
ENDMDL