MODEL 1
REMARK VINA RESULT: -7.886787642      0.000      0.000
REMARK  6 active torsions:
REMARK  status: ('A' for Active; 'I' for Inactive)
REMARK    1  A    between atoms: C2_2  and  C3_3
REMARK    2  A    between atoms: N1_5  and  C5_6
REMARK    3  A    between atoms: C8_9  and  C9_10
REMARK    4  A    between atoms: C9_10  and  N2_11
REMARK       I    between atoms: N2_11  and  C10_13
REMARK    5  A    between atoms: C10_13  and  C11_15
REMARK    6  A    between atoms: C17_24  and  O2_25
ROOT
HETATM    1  C5  UNL     1      24.841   7.380  16.926  1.00  0.00     0.119 C
HETATM    2  C6  UNL     1      25.499   8.663  16.404  1.00  0.00     0.029 C
HETATM    3  C7  UNL     1      24.805   8.994  15.132  1.00  0.00     0.008 C
HETATM    4  C8  UNL     1      24.282   7.860  14.333  1.00  0.00     0.006 C
HETATM    5  C16 UNL     1      24.850   6.513  14.626  1.00  0.00     0.040 C
HETATM    6  C17 UNL     1      25.339   6.294  15.999  1.00  0.00     0.142 C
ENDROOT
BRANCH   4   7
HETATM    7  C9  UNL     1      24.401   8.235  12.871  1.00  0.00     0.127 C
BRANCH   7   8
HETATM    8  N2  UNL     1      23.925   7.252  11.958  1.00  0.00    -0.360 N
HETATM    9  C10 UNL     1      24.338   7.127  10.629  1.00  0.00     0.223 C
HETATM   10  O1  UNL     1      25.193   7.906  10.137  1.00  0.00    -0.273 OA
ATOM     11  H2  UNL     1      23.230   6.589  12.300  1.00  0.00     0.162 HD
BRANCH   9  12
HETATM   12  C11 UNL     1      23.793   6.075   9.737  1.00  0.00     0.103 C
HETATM   13  C12 UNL     1      22.650   5.331  10.398  1.00  0.00     0.017 C
HETATM   14  C13 UNL     1      22.098   4.291   9.493  1.00  0.00     0.028 C
HETATM   15  C14 UNL     1      21.926   4.697   8.075  1.00  0.00     0.232 C
HETATM   16  N3  UNL     1      22.948   5.567   7.568  1.00  0.00    -0.074 N
HETATM   17  C15 UNL     1      23.238   6.669   8.461  1.00  0.00     0.246 C
ATOM     18  H32 UNL     1      23.795   5.044   7.345  1.00  0.00     0.277 HD
ATOM     19  H31 UNL     1      22.710   5.905   6.635  1.00  0.00     0.277 HD
ENDBRANCH   9  12
ENDBRANCH   7   8
ENDBRANCH   4   7
BRANCH   6  20
HETATM   20  O2  UNL     1      24.992   5.025  16.431  1.00  0.00    -0.393 OA
ATOM     21  H2  UNL     1      25.439   4.340  15.949  1.00  0.00     0.210 HD
ENDBRANCH   6  20
BRANCH   1  22
HETATM   22  N1  UNL     1      25.141   7.142  18.294  1.00  0.00    -0.338 N
HETATM   23  C4  UNL     1      26.349   7.118  18.866  1.00  0.00     0.117 A
HETATM   24  C3  UNL     1      26.205   6.855  20.204  1.00  0.00     0.025 A
HETATM   25  N4  UNL     1      24.874   6.716  20.449  1.00  0.00    -0.348 N
HETATM   26  C18 UNL     1      24.235   6.898  19.257  1.00  0.00     0.080 A
ATOM     27  H4  UNL     1      24.438   6.516  21.349  1.00  0.00     0.167 HD
HETATM   28  C19 UNL     1      22.754   6.820  19.122  1.00  0.00     0.089 C
BRANCH  24  29
HETATM   29  C2  UNL     1      27.309   6.742  21.204  1.00  0.00     0.054 C
HETATM   30  C1  UNL     1      28.184   7.961  21.102  1.00  0.00     0.011 C
ENDBRANCH  24  29
ENDBRANCH   1  22
TORSDOF 6
ENDMDL