MODEL 5
REMARK VINA RESULT: -7.778827196      1.719      2.957
REMARK  7 active torsions:
REMARK  status: ('A' for Active; 'I' for Inactive)
REMARK    1  A    between atoms: C8_8  and  C9_9
REMARK    2  A    between atoms: C9_9  and  C10_10
REMARK       I    between atoms: C10_10  and  N1_12
REMARK    3  A    between atoms: N1_12  and  N2_14
REMARK       I    between atoms: N2_14  and  C11_16
REMARK       I    between atoms: C11_16  and  N3_18
REMARK    4  A    between atoms: N3_18  and  C12_20
REMARK    5  A    between atoms: C12_20  and  C13_21
REMARK    6  A    between atoms: C13_21  and  O3_22
REMARK    7  A    between atoms: O3_22  and  N4_23
ROOT
HETATM    1  C10 UNL     1      22.474   6.050  14.752  1.00  0.00     0.236 C
HETATM    2  O1  UNL     1      21.512   5.610  15.400  1.00  0.00    -0.272 OA
HETATM    3  N1  UNL     1      23.756   6.044  15.401  1.00  0.00    -0.266 N
ATOM      4  H1  UNL     1      24.556   6.407  14.883  1.00  0.00     0.190 HD
ENDROOT
BRANCH   1   5
HETATM    5  C9  UNL     1      22.417   6.570  13.385  1.00  0.00     0.110 C
BRANCH   5   6
HETATM    6  C8  UNL     1      22.157   5.561  12.356  1.00  0.00     0.011 C
HETATM    7  C2  UNL     1      23.340   4.931  11.669  1.00  0.00    -0.038 C
HETATM    8  C1  UNL     1      24.651   5.575  11.870  1.00  0.00     0.015 C
HETATM    9  C3  UNL     1      23.491   3.455  11.979  1.00  0.00     0.015 C
HETATM   10  C4  UNL     1      22.921   5.149  10.228  1.00  0.00     0.003 C
HETATM   11  C5  UNL     1      22.556   6.640  10.306  1.00  0.00     0.016 C
HETATM   12  C14 UNL     1      21.418   4.970  10.154  1.00  0.00    -0.036 C
HETATM   13  C6  UNL     1      21.398   6.081  11.157  1.00  0.00    -0.032 C
HETATM   14  C7  UNL     1      20.236   6.928  11.313  1.00  0.00     0.016 C
HETATM   15  C15 UNL     1      20.833   3.672  10.517  1.00  0.00     0.016 C
HETATM   16  C16 UNL     1      20.952   5.420   8.762  1.00  0.00     0.016 C
ENDBRANCH   5   6
ENDBRANCH   1   5
BRANCH   3  17
HETATM   17  N2  UNL     1      23.971   5.576  16.688  1.00  0.00    -0.249 N
HETATM   18  C11 UNL     1      25.215   5.770  17.334  1.00  0.00     0.334 C
HETATM   19  O2  UNL     1      26.119   6.384  16.720  1.00  0.00    -0.246 OA
HETATM   20  N3  UNL     1      25.460   5.289  18.652  1.00  0.00    -0.340 N
ATOM     21  H3  UNL     1      24.714   4.793  19.139  1.00  0.00     0.164 HD
ATOM     22  H2  UNL     1      23.222   5.085  17.176  1.00  0.00     0.192 HD
BRANCH  20  23
HETATM   23  C12 UNL     1      26.725   5.476  19.325  1.00  0.00     0.153 C
BRANCH  23  24
HETATM   24  C13 UNL     1      26.662   6.791  20.078  1.00  0.00     0.227 C
BRANCH  24  25
HETATM   25  O3  UNL     1      27.343   6.686  21.325  1.00  0.00    -0.220 OA
BRANCH  25  26
HETATM   26  N4  UNL     1      28.598   7.160  21.540  1.00  0.00     0.004 N
HETATM   27  O4  UNL     1      28.920   8.319  21.216  1.00  0.00    -0.511 OA
HETATM   28  O5  UNL     1      29.582   6.382  22.129  1.00  0.00    -0.511 OA
ENDBRANCH  25  26
ENDBRANCH  24  25
ENDBRANCH  23  24
ENDBRANCH  20  23
ENDBRANCH   3  17
TORSDOF 7
ENDMDL