MODEL 5
REMARK VINA RESULT: -7.182678557      1.840      3.254
REMARK  5 active torsions:
REMARK  status: ('A' for Active; 'I' for Inactive)
REMARK    1  A    between atoms: C2_2  and  N1_3
REMARK    2  A    between atoms: C9_11  and  C10_12
REMARK    3  A    between atoms: C10_12  and  N3_13
REMARK       I    between atoms: N3_13  and  C11_15
REMARK    4  A    between atoms: C11_15  and  C12_17
REMARK    5  A    between atoms: C13_20  and  N5_21
ROOT
HETATM    1  C10 UNL     1      23.587   4.512  12.376  1.00  0.00     0.071 C
ENDROOT
BRANCH   1   2
HETATM    2  C9  UNL     1      22.835   5.210  11.309  1.00  0.00     0.059 C
HETATM    3  C8  UNL     1      22.680   4.206  10.193  1.00  0.00     0.048 C
HETATM    4  C7  UNL     1      21.982   4.682   8.984  1.00  0.00     0.226 C
HETATM    5  N1  UNL     1      20.595   5.011   9.177  1.00  0.00     0.094 N
HETATM    6  C6  UNL     1      22.755   5.716   8.199  1.00  0.00     0.071 C
HETATM    7  C3  UNL     1      20.289   6.388   9.011  1.00  0.00     0.303 C
HETATM    8  C4  UNL     1      20.954   7.141  10.142  1.00  0.00     0.303 C
HETATM    9  N2  UNL     1      22.321   7.263  10.073  1.00  0.00     0.100 N
HETATM   10  C5  UNL     1      23.066   6.953   8.957  1.00  0.00     0.227 C
HETATM   11  C16 UNL     1      23.226   6.538  10.941  1.00  0.00     0.234 C
HETATM   12  C17 UNL     1      24.250   6.670   9.845  1.00  0.00     0.072 C
BRANCH   5  13
HETATM   13  C2  UNL     1      19.683   4.174   8.473  1.00  0.00     0.268 C
HETATM   14  C1  UNL     1      18.983   3.133   9.300  1.00  0.00     0.037 C
ENDBRANCH   5  13
ENDBRANCH   1   2
BRANCH   1  15
HETATM   15  N3  UNL     1      23.913   5.058  13.612  1.00  0.00    -0.335 N
HETATM   16  C11 UNL     1      25.136   5.431  14.128  1.00  0.00     0.273 C
HETATM   17  O1  UNL     1      26.232   5.313  13.519  1.00  0.00    -0.266 OA
ATOM     18  H3  UNL     1      23.121   5.207  14.237  1.00  0.00     0.168 HD
BRANCH  16  19
HETATM   19  C12 UNL     1      25.289   6.037  15.513  1.00  0.00     0.116 A
HETATM   20  N4  UNL     1      25.242   5.281  16.586  1.00  0.00    -0.332 N
HETATM   21  C13 UNL     1      25.335   5.856  17.779  1.00  0.00     0.143 A
ATOM     22  H4  UNL     1      25.137   4.270  16.504  1.00  0.00     0.168 HD
HETATM   23  S1  UNL     1      25.490   7.505  17.418  1.00  0.00    -0.057 SA
HETATM   24  C14 UNL     1      25.428   7.380  15.693  1.00  0.00     0.015 A
HETATM   25  C15 UNL     1      25.479   8.528  14.713  1.00  0.00     0.059 C
BRANCH  21  26
HETATM   26  N5  UNL     1      25.306   5.251  18.956  1.00  0.00    -0.380 N
ATOM     27  H52 UNL     1      24.781   4.428  19.250  1.00  0.00     0.158 HD
ATOM     28  H51 UNL     1      25.825   5.517  19.793  1.00  0.00     0.158 HD
ENDBRANCH  21  26
ENDBRANCH  16  19
ENDBRANCH   1  15
TORSDOF 5
ENDMDL