MODEL 3
REMARK VINA RESULT: -7.823655007      2.718      6.772
REMARK  5 active torsions:
REMARK  status: ('A' for Active; 'I' for Inactive)
REMARK    1  A    between atoms: O1_2  and  C2_3
REMARK    2  A    between atoms: C7_8  and  N1_9
REMARK       I    between atoms: N2_11  and  C8_13
REMARK    3  A    between atoms: C10_16  and  O3_17
REMARK    4  A    between atoms: C12_22  and  O4_23
REMARK    5  A    between atoms: O4_23  and  C13_24
ROOT
HETATM    1  C2  UNL     1      22.150   6.470  21.144  1.00  0.00     0.105 A
HETATM    2  C3  UNL     1      21.927   5.438  22.072  1.00  0.00     0.047 A
HETATM    3  C4  UNL     1      21.151   5.697  23.174  1.00  0.00    -0.044 A
HETATM    4  C5  UNL     1      20.905   4.627  24.159  1.00  0.00     0.049 C
HETATM    5  C6  UNL     1      20.600   6.941  23.370  1.00  0.00     0.032 A
HETATM    6  C7  UNL     1      19.799   7.519  24.335  1.00  0.00     0.112 A
HETATM    7  C10 UNL     1      19.536   8.839  24.027  1.00  0.00     0.170 A
HETATM    8  N3  UNL     1      20.176   9.078  22.870  1.00  0.00    -0.332 N
ATOM      9  H3  UNL     1      20.173   9.973  22.380  1.00  0.00     0.168 HD
HETATM   10  C11 UNL     1      20.821   7.976  22.443  1.00  0.00     0.084 A
HETATM   11  C12 UNL     1      21.599   7.713  21.340  1.00  0.00     0.140 A
ENDROOT
BRANCH   6  12
HETATM   12  N1  UNL     1      19.333   6.808  25.475  1.00  0.00    -0.293 N
HETATM   13  N2  UNL     1      19.213   7.454  26.577  1.00  0.00    -0.270 N
HETATM   14  C8  UNL     1      18.752   6.761  27.714  1.00  0.00     0.232 C
ATOM     15  H2  UNL     1      19.445   8.446  26.629  1.00  0.00     0.190 HD
HETATM   16  C9  UNL     1      19.084   7.274  29.060  1.00  0.00     0.119 C
HETATM   17  O2  UNL     1      18.069   5.724  27.607  1.00  0.00    -0.272 OA
ATOM     18  H1  UNL     1      19.101   5.817  25.418  1.00  0.00     0.187 HD
ENDBRANCH   6  12
BRANCH   7  19
HETATM   19  O3  UNL     1      18.761   9.701  24.795  1.00  0.00    -0.344 OA
ATOM     20  H3  UNL     1      17.934   9.476  25.203  1.00  0.00     0.219 HD
ENDBRANCH   7  19
BRANCH  11  21
HETATM   21  O4  UNL     1      21.842   8.698  20.407  1.00  0.00    -0.274 OA
BRANCH  21  22
HETATM   22  C13 UNL     1      20.966   9.053  19.400  1.00  0.00     0.260 C
HETATM   23  C14 UNL     1      21.319   8.738  17.979  1.00  0.00     0.126 C
HETATM   24  O5  UNL     1      19.908   9.625  19.708  1.00  0.00    -0.265 OA
ENDBRANCH  21  22
ENDBRANCH  11  21
BRANCH   1  25
HETATM   25  O1  UNL     1      22.930   6.236  20.022  1.00  0.00    -0.353 OA
HETATM   26  C1  UNL     1      23.444   4.938  19.734  1.00  0.00     0.210 C
ENDBRANCH   1  25
TORSDOF 5
ENDMDL