MODEL 2
REMARK VINA RESULT: -7.297551534      3.773      7.898
REMARK  5 active torsions:
REMARK  status: ('A' for Active; 'I' for Inactive)
REMARK    1  A    between atoms: C2_2  and  O1_3
REMARK    2  A    between atoms: O1_3  and  C3_4
REMARK    3  A    between atoms: C3_4  and  C4_6
REMARK    4  A    between atoms: C6_8  and  C7_9
REMARK    5  A    between atoms: C9_12  and  C10_13
ROOT
HETATM    1  C4  UNL     1      20.097   8.265  24.185  1.00  0.00     0.053 A
HETATM    2  C5  UNL     1      20.520   8.714  22.983  1.00  0.00     0.039 A
HETATM    3  C6  UNL     1      20.990   7.810  22.106  1.00  0.00     0.025 A
HETATM    4  S2  UNL     1      20.847   6.330  22.945  1.00  0.00    -0.093 SA
HETATM    5  C13 UNL     1      20.184   6.913  24.406  1.00  0.00    -0.004 A
HETATM    6  C14 UNL     1      19.788   6.143  25.645  1.00  0.00     0.057 C
ENDROOT
BRANCH   3   7
HETATM    7  C7  UNL     1      21.524   7.924  20.738  1.00  0.00     0.047 A
HETATM    8  S1  UNL     1      22.818   7.029  20.064  1.00  0.00    -0.098 SA
HETATM    9  C8  UNL     1      22.833   7.705  18.509  1.00  0.00     0.066 A
HETATM   10  C9  UNL     1      21.814   8.633  18.533  1.00  0.00     0.018 A
HETATM   11  C12 UNL     1      21.138   8.734  19.711  1.00  0.00     0.077 A
HETATM   12  N2  UNL     1      20.027   9.673  19.905  1.00  0.00    -0.100 NA
BRANCH  10  13
HETATM   13  C10 UNL     1      21.542   9.426  17.304  1.00  0.00     0.011 C
HETATM   14  C11 UNL     1      22.356   9.109  16.057  1.00  0.00     0.068 C
HETATM   15  N1  UNL     1      20.698  10.333  17.228  1.00  0.00    -0.402 N
ATOM     16  H12 UNL     1      20.154  10.545  18.064  1.00  0.00     0.156 HD
ATOM     17  H11 UNL     1      20.512  10.877  16.386  1.00  0.00     0.156 HD
ENDBRANCH  10  13
ENDBRANCH   3   7
BRANCH   1  18
HETATM   18  C3  UNL     1      19.557   9.160  25.239  1.00  0.00     0.294 C
HETATM   19  O2  UNL     1      18.624   9.972  25.006  1.00  0.00    -0.259 OA
BRANCH  18  20
HETATM   20  O1  UNL     1      20.058   9.134  26.514  1.00  0.00    -0.318 OA
BRANCH  20  21
HETATM   21  C2  UNL     1      19.307   9.537  27.644  1.00  0.00     0.174 C
HETATM   22  C1  UNL     1      18.506   8.419  28.234  1.00  0.00     0.034 C
ENDBRANCH  20  21
ENDBRANCH  18  20
ENDBRANCH   1  18
TORSDOF 5
ENDMDL