MODEL 3
REMARK VINA RESULT: -5.518506135      2.411      4.380
REMARK  6 active torsions:
REMARK  status: ('A' for Active; 'I' for Inactive)
REMARK    1  A    between atoms: C2_2  and  N1_3
REMARK    2  A    between atoms: N1_3  and  N2_5
REMARK    3  A    between atoms: N3_7  and  C4_9
REMARK    4  A    between atoms: C7_15  and  N5_16
REMARK    5  A    between atoms: C10_22  and  O1_23
REMARK    6  A    between atoms: O1_23  and  C11_24
ROOT
HETATM    1  C4  UNL     1      23.033   3.691  22.060  1.00  0.00     0.071 A
HETATM    2  C5  UNL     1      23.666   2.796  21.246  1.00  0.00     0.083 A
HETATM    3  S1  UNL     1      23.836   3.646  19.785  1.00  0.00    -0.081 SA
HETATM    4  C6  UNL     1      23.100   5.121  20.234  1.00  0.00     0.091 A
HETATM    5  N4  UNL     1      22.862   6.293  19.559  1.00  0.00    -0.335 N
ATOM      6  H4  UNL     1      23.166   6.370  18.588  1.00  0.00     0.168 HD
HETATM    7  C7  UNL     1      22.245   7.340  20.126  1.00  0.00     0.123 A
HETATM    8  C8  UNL     1      21.866   7.149  21.447  1.00  0.00     0.122 A
HETATM    9  C9  UNL     1      21.197   8.251  22.100  1.00  0.00     0.106 C
HETATM   10  N6  UNL     1      20.662   9.147  22.605  1.00  0.00    -0.191 NA
HETATM   11  C10 UNL     1      22.084   5.998  22.159  1.00  0.00     0.108 A
HETATM   12  C13 UNL     1      22.735   4.909  21.536  1.00  0.00     0.061 A
ENDROOT
BRANCH   7  13
HETATM   13  N5  UNL     1      22.029   8.416  19.492  1.00  0.00    -0.384 N
ATOM     14  H52 UNL     1      21.121   8.881  19.476  1.00  0.00     0.157 HD
ATOM     15  H51 UNL     1      22.761   8.882  18.955  1.00  0.00     0.157 HD
ENDBRANCH   7  13
BRANCH  11  16
HETATM   16  O1  UNL     1      21.644   5.975  23.462  1.00  0.00    -0.349 OA
BRANCH  16  17
HETATM   17  C11 UNL     1      20.354   5.747  23.921  1.00  0.00     0.171 C
HETATM   18  C12 UNL     1      20.209   6.469  25.266  1.00  0.00     0.034 C
ENDBRANCH  16  17
ENDBRANCH  11  16
BRANCH   1  19
HETATM   19  N3  UNL     1      22.694   3.297  23.428  1.00  0.00    -0.285 N
HETATM   20  N2  UNL     1      21.769   2.470  23.670  1.00  0.00    -0.241 N
ATOM     21  H2  UNL     1      21.551   2.209  24.632  1.00  0.00     0.208 HD
ATOM     22  H3  UNL     1      23.217   3.701  24.206  1.00  0.00     0.188 HD
BRANCH  20  23
HETATM   23  N1  UNL     1      21.051   1.917  22.611  1.00  0.00    -0.294 N
HETATM   24  C3  UNL     1      20.005   2.603  21.886  1.00  0.00     0.178 C
BRANCH  23  25
HETATM   25  C2  UNL     1      21.365   0.599  22.224  1.00  0.00     0.101 C
HETATM   26  C1  UNL     1      20.723  -0.425  22.731  1.00  0.00     0.031 C
ENDBRANCH  23  25
ENDBRANCH  20  23
ENDBRANCH   1  19
TORSDOF 6
ENDMDL