MODEL 1
REMARK VINA RESULT: -5.821733077      0.000      0.000
REMARK  5 active torsions:
REMARK  status: ('A' for Active; 'I' for Inactive)
REMARK    1  A    between atoms: C2_2  and  S1_3
REMARK    2  A    between atoms: S1_3  and  C3_4
REMARK    3  A    between atoms: C4_5  and  C5_6
REMARK    4  A    between atoms: C7_9  and  N2_10
REMARK    5  A    between atoms: C10_17  and  C11_18
ROOT
HETATM    1  C5  UNL     1      22.786   3.669  19.995  1.00  0.00     0.166 C
HETATM    2  C6  UNL     1      24.209   3.508  20.164  1.00  0.00     0.063 C
HETATM    3  N1  UNL     1      25.367   3.342  20.318  1.00  0.00    -0.197 NA
ENDROOT
BRANCH   1   4
HETATM    4  C4  UNL     1      22.281   4.824  20.870  1.00  0.00     0.006 A
HETATM    5  C3  UNL     1      21.701   4.455  22.036  1.00  0.00     0.023 A
HETATM    6  C12 UNL     1      21.167   5.300  23.051  1.00  0.00     0.023 A
HETATM    7  C8  UNL     1      21.274   6.633  22.754  1.00  0.00     0.060 A
HETATM    8  C10 UNL     1      20.577   4.991  24.239  1.00  0.00     0.060 A
HETATM    9  S2  UNL     1      21.980   7.291  21.315  1.00  0.00    -0.064 SA
HETATM   10  S3  UNL     1      20.557   7.417  24.094  1.00  0.00    -0.093 SA
HETATM   11  C7  UNL     1      22.539   6.056  20.290  1.00  0.00     0.077 A
HETATM   12  C9  UNL     1      20.141   6.069  25.007  1.00  0.00     0.070 A
BRANCH   5  13
HETATM   13  S1  UNL     1      21.431   2.668  22.345  1.00  0.00    -0.129 SA
BRANCH  13  14
HETATM   14  C2  UNL     1      19.918   2.026  21.733  1.00  0.00     0.075 C
HETATM   15  C1  UNL     1      19.726   0.670  22.457  1.00  0.00     0.016 C
ENDBRANCH  13  14
ENDBRANCH   5  13
BRANCH  11  16
HETATM   16  N2  UNL     1      23.102   6.228  19.168  1.00  0.00    -0.393 N
ATOM     17  H22 UNL     1      22.629   6.262  18.265  1.00  0.00     0.156 HD
ATOM     18  H21 UNL     1      24.105   6.352  19.030  1.00  0.00     0.156 HD
ENDBRANCH  11  16
BRANCH   8  19
HETATM   19  C11 UNL     1      20.454   3.672  24.932  1.00  0.00     0.210 C
HETATM   20  O1  UNL     1      21.351   3.019  25.437  1.00  0.00    -0.644 OA
HETATM   21  O2  UNL     1      19.159   3.126  25.010  1.00  0.00    -0.644 OA
ENDBRANCH   8  19
ENDBRANCH   1   4
TORSDOF 5
ENDMDL