MODEL 4
REMARK VINA RESULT: -6.678921538      3.982      6.542
REMARK  6 active torsions:
REMARK  status: ('A' for Active; 'I' for Inactive)
REMARK    1  A    between atoms: C2_2  and  N1_3
REMARK    2  A    between atoms: N1_3  and  C3_5
REMARK    3  A    between atoms: C6_10  and  S1_11
REMARK    4  A    between atoms: S1_11  and  S2_12
REMARK    5  A    between atoms: S2_12  and  C7_13
REMARK    6  A    between atoms: C11_18  and  O2_19
ROOT
HETATM    1  C3  UNL     1      20.244   9.123  20.533  1.00  0.00     0.145 A
HETATM    2  N2  UNL     1      19.673   9.861  19.585  1.00  0.00    -0.339 N
ATOM      3  H2  UNL     1      18.850  10.426  19.792  1.00  0.00     0.168 HD
HETATM    4  C4  UNL     1      20.184   9.847  18.386  1.00  0.00     0.032 A
HETATM    5  C5  UNL     1      19.595  10.661  17.246  1.00  0.00     0.070 C
HETATM    6  C6  UNL     1      21.288   9.069  18.167  1.00  0.00     0.078 A
HETATM    7  S3  UNL     1      21.544   8.382  19.719  1.00  0.00    -0.044 SA
ENDROOT
BRANCH   6   8
HETATM    8  S1  UNL     1      22.235   8.814  16.649  1.00  0.00    -0.041 SA
BRANCH   8   9
HETATM    9  S2  UNL     1      24.194   8.229  17.213  1.00  0.00    -0.024 SA
BRANCH   9  10
HETATM   10  C7  UNL     1      24.136   6.503  17.625  1.00  0.00     0.156 A
HETATM   11  O1  UNL     1      23.707   5.891  18.699  1.00  0.00    -0.305 OA
HETATM   12  C8  UNL     1      23.846   4.595  18.592  1.00  0.00     0.053 A
HETATM   13  C9  UNL     1      23.472   3.584  19.607  1.00  0.00     0.077 C
HETATM   14  C10 UNL     1      24.405   4.323  17.361  1.00  0.00     0.072 A
HETATM   15  C11 UNL     1      24.595   5.524  16.733  1.00  0.00     0.109 A
BRANCH  15  16
HETATM   16  O2  UNL     1      25.131   5.689  15.486  1.00  0.00    -0.357 OA
ATOM     17  H2  UNL     1      25.495   5.032  14.905  1.00  0.00     0.217 HD
ENDBRANCH  15  16
ENDBRANCH   9  10
ENDBRANCH   8   9
ENDBRANCH   6   8
BRANCH   1  18
HETATM   18  N1  UNL     1      19.910   8.983  21.793  1.00  0.00    -0.371 N
ATOM     19  H1  UNL     1      18.932   8.913  22.070  1.00  0.00     0.161 HD
BRANCH  18  20
HETATM   20  C2  UNL     1      20.979   8.928  22.791  1.00  0.00     0.117 C
HETATM   21  C1  UNL     1      20.728   9.853  23.944  1.00  0.00     0.026 C
ENDBRANCH  18  20
ENDBRANCH   1  18
TORSDOF 6
ENDMDL