MODEL 5
REMARK VINA RESULT: -8.091590177      4.092      5.827
REMARK  6 active torsions:
REMARK  status: ('A' for Active; 'I' for Inactive)
REMARK    1  A    between atoms: C2_2  and  C3_3
REMARK    2  A    between atoms: C3_3  and  C5_5
REMARK    3  A    between atoms: N1_7  and  N2_9
REMARK    4  A    between atoms: C11_18  and  C12_19
REMARK    5  A    between atoms: C12_19  and  O1_21
REMARK    6  A    between atoms: C14_23  and  O2_24
ROOT
HETATM    1  N2  UNL     1      23.477   6.504  18.660  1.00  0.00    -0.298 N
ATOM      2  H2  UNL     1      23.140   6.646  19.612  1.00  0.00     0.187 HD
HETATM    3  C7  UNL     1      24.039   5.377  18.429  1.00  0.00     0.086 A
HETATM    4  C8  UNL     1      24.595   5.026  17.122  1.00  0.00     0.035 A
HETATM    5  C9  UNL     1      24.849   5.863  15.928  1.00  0.00     0.070 C
HETATM    6  N3  UNL     1      24.878   3.767  17.161  1.00  0.00    -0.351 N
ATOM      7  H3  UNL     1      25.282   3.235  16.390  1.00  0.00     0.166 HD
HETATM    8  C10 UNL     1      24.545   3.227  18.438  1.00  0.00     0.090 A
HETATM    9  S1  UNL     1      24.470   1.784  19.406  1.00  0.00    -0.070 SA
HETATM   10  C11 UNL     1      23.784   2.483  20.841  1.00  0.00     0.047 A
HETATM   11  C14 UNL     1      23.649   3.776  20.494  1.00  0.00     0.096 A
HETATM   12  C15 UNL     1      24.019   4.190  19.287  1.00  0.00     0.062 A
ENDROOT
BRANCH   1  13
HETATM   13  N1  UNL     1      23.278   7.509  17.818  1.00  0.00    -0.308 N
HETATM   14  C5  UNL     1      22.415   8.411  17.592  1.00  0.00     0.003 C
HETATM   15  C6  UNL     1      22.666   9.175  16.304  1.00  0.00     0.065 C
ATOM     16  H1  UNL     1      24.049   7.577  17.153  1.00  0.00     0.186 HD
BRANCH  14  17
HETATM   17  C3  UNL     1      21.174   8.694  18.285  1.00  0.00     0.028 C
HETATM   18  C4  UNL     1      21.387   8.745  19.820  1.00  0.00     0.016 C
BRANCH  17  19
HETATM   19  C2  UNL     1      20.600  10.082  17.955  1.00  0.00     0.005 C
HETATM   20  C1  UNL     1      19.259   9.992  17.262  1.00  0.00     0.006 C
ENDBRANCH  17  19
ENDBRANCH  14  17
ENDBRANCH   1  13
BRANCH  11  21
HETATM   21  O2  UNL     1      23.090   4.593  21.527  1.00  0.00    -0.358 OA
ATOM     22  H2  UNL     1      22.633   5.359  21.202  1.00  0.00     0.217 HD
ENDBRANCH  11  21
BRANCH  10  23
HETATM   23  C12 UNL     1      23.626   1.724  22.101  1.00  0.00     0.157 C
HETATM   24  C13 UNL     1      22.979   0.341  21.821  1.00  0.00     0.045 C
BRANCH  23  25
HETATM   25  O1  UNL     1      24.968   1.263  22.498  1.00  0.00    -0.391 OA
ATOM     26  H1  UNL     1      25.064   1.450  23.424  1.00  0.00     0.210 HD
ENDBRANCH  23  25
ENDBRANCH  10  23
TORSDOF 6
ENDMDL