MODEL 5
REMARK VINA RESULT: -7.515159228      5.001      7.291
REMARK  5 active torsions:
REMARK  status: ('A' for Active; 'I' for Inactive)
REMARK    1  A    between atoms: C2_2  and  O1_3
REMARK    2  A    between atoms: O1_3  and  C3_4
REMARK    3  A    between atoms: C8_9  and  O2_10
REMARK    4  A    between atoms: C9_12  and  N1_13
REMARK       I    between atoms: N2_15  and  C10_17
REMARK    5  A    between atoms: C10_17  and  C11_19
ROOT
HETATM    1  C3  UNL     1      22.871   7.650  18.475  1.00  0.00     0.100 A
HETATM    2  C4  UNL     1      23.595   7.283  17.365  1.00  0.00    -0.026 A
HETATM    3  C5  UNL     1      23.719   8.274  16.231  1.00  0.00     0.051 C
HETATM    4  C6  UNL     1      24.216   6.062  17.257  1.00  0.00     0.025 A
HETATM    5  C7  UNL     1      24.142   5.113  18.290  1.00  0.00     0.020 A
HETATM    6  C8  UNL     1      24.708   3.884  18.301  1.00  0.00     0.112 A
HETATM    7  C9  UNL     1      24.511   3.114  19.418  1.00  0.00     0.124 A
HETATM    8  S1  UNL     1      23.558   4.109  20.408  1.00  0.00    -0.066 SA
HETATM    9  C13 UNL     1      23.425   5.476  19.396  1.00  0.00     0.047 A
HETATM   10  C14 UNL     1      22.796   6.728  19.491  1.00  0.00     0.098 A
HETATM   11  N3  UNL     1      22.082   7.007  20.680  1.00  0.00    -0.098 NA
ENDROOT
BRANCH   7  12
HETATM   12  N1  UNL     1      25.026   1.776  19.661  1.00  0.00    -0.289 N
HETATM   13  N2  UNL     1      24.691   0.927  18.790  1.00  0.00    -0.269 N
HETATM   14  C10 UNL     1      25.127  -0.409  18.914  1.00  0.00     0.235 C
ATOM     15  H2  UNL     1      24.108   1.206  18.001  1.00  0.00     0.190 HD
HETATM   16  O3  UNL     1      26.037  -0.885  18.142  1.00  0.00    -0.272 OA
ATOM     17  H1  UNL     1      25.607   1.545  20.467  1.00  0.00     0.188 HD
BRANCH  14  18
HETATM   18  C11 UNL     1      24.552  -1.317  19.935  1.00  0.00     0.100 C
HETATM   19  C12 UNL     1      24.548  -2.752  19.427  1.00  0.00     0.014 C
ENDBRANCH  14  18
ENDBRANCH   7  12
BRANCH   6  20
HETATM   20  O2  UNL     1      25.490   3.320  17.247  1.00  0.00    -0.357 OA
ATOM     21  H2  UNL     1      26.437   3.361  17.180  1.00  0.00     0.217 HD
ENDBRANCH   6  20
BRANCH   1  22
HETATM   22  O1  UNL     1      22.267   8.890  18.520  1.00  0.00    -0.349 OA
BRANCH  22  23
HETATM   23  C2  UNL     1      20.903   9.093  18.235  1.00  0.00     0.171 C
HETATM   24  C1  UNL     1      20.808  10.267  17.278  1.00  0.00     0.034 C
ENDBRANCH  22  23
ENDBRANCH   1  22
TORSDOF 5
ENDMDL