MODEL 1
REMARK VINA RESULT: -8.470502372      0.000      0.000
REMARK  5 active torsions:
REMARK  status: ('A' for Active; 'I' for Inactive)
REMARK    1  A    between atoms: S1_2  and  C2_3
REMARK    2  A    between atoms: C4_5  and  N1_6
REMARK    3  A    between atoms: N1_6  and  N2_8
REMARK    4  A    between atoms: N2_8  and  C5_10
REMARK    5  A    between atoms: C12_22  and  N5_23
ROOT
HETATM    1  N1  UNL     1      21.639   8.597  19.652  1.00  0.00    -0.300 N
ATOM      2  H1  UNL     1      20.698   8.941  19.840  1.00  0.00     0.187 HD
ENDROOT
BRANCH   1   3
HETATM    3  C4  UNL     1      22.123   8.431  18.306  1.00  0.00     0.055 A
HETATM    4  C3  UNL     1      23.081   7.491  17.998  1.00  0.00     0.052 A
HETATM    5  C2  UNL     1      23.538   7.337  16.721  1.00  0.00     0.035 A
HETATM    6  C12 UNL     1      23.055   8.121  15.694  1.00  0.00     0.120 A
HETATM    7  C11 UNL     1      22.096   9.062  16.002  1.00  0.00     0.046 A
HETATM    8  C9  UNL     1      21.629   9.224  17.290  1.00  0.00    -0.031 A
HETATM    9  C10 UNL     1      20.592  10.253  17.581  1.00  0.00     0.050 C
BRANCH   5  10
HETATM   10  S1  UNL     1      24.786   6.082  16.438  1.00  0.00    -0.132 SA
HETATM   11  C1  UNL     1      24.392   4.623  17.430  1.00  0.00     0.095 C
ENDBRANCH   5  10
BRANCH   6  12
HETATM   12  N5  UNL     1      23.550   7.939  14.371  1.00  0.00    -0.114 N
HETATM   13  O2  UNL     1      24.681   7.468  14.180  1.00  0.00    -0.532 OA
HETATM   14  O3  UNL     1      22.701   8.316  13.346  1.00  0.00    -0.532 OA
ENDBRANCH   6  12
ENDBRANCH   1   3
BRANCH   1  15
HETATM   15  N2  UNL     1      22.433   8.297  20.594  1.00  0.00    -0.293 N
ATOM     16  H2  UNL     1      23.387   8.655  20.612  1.00  0.00     0.187 HD
BRANCH  15  17
HETATM   17  C5  UNL     1      21.950   7.448  21.622  1.00  0.00     0.141 A
HETATM   18  C6  UNL     1      22.435   6.181  21.862  1.00  0.00     0.055 A
HETATM   19  C7  UNL     1      23.517   5.455  21.133  1.00  0.00     0.072 C
HETATM   20  N3  UNL     1      21.748   5.676  22.905  1.00  0.00    -0.300 N
HETATM   21  N4  UNL     1      20.858   6.559  23.332  1.00  0.00    -0.264 N
ATOM     22  H3  UNL     1      21.892   4.750  23.307  1.00  0.00     0.186 HD
HETATM   23  C8  UNL     1      20.962   7.664  22.557  1.00  0.00     0.289 A
ATOM     24  H4  UNL     1      20.209   6.428  24.107  1.00  0.00     0.190 HD
HETATM   25  O1  UNL     1      20.274   8.708  22.671  1.00  0.00    -0.264 OA
ENDBRANCH  15  17
ENDBRANCH   1  15
TORSDOF 5
ENDMDL