MODEL 4
REMARK VINA RESULT: -7.373634605      2.886      4.828
REMARK  8 active torsions:
REMARK  status: ('A' for Active; 'I' for Inactive)
REMARK    1  A    between atoms: C2_2  and  C3_3
REMARK    2  A    between atoms: C7_7  and  N1_8
REMARK    3  A    between atoms: C8_10  and  C9_11
REMARK    4  A    between atoms: C10_12  and  O1_13
REMARK    5  A    between atoms: C11_15  and  O2_16
REMARK    6  A    between atoms: C13_20  and  C14_21
REMARK    7  A    between atoms: C14_21  and  O4_23
REMARK    8  A    between atoms: O4_23  and  C15_24
ROOT
HETATM    1  C9  UNL     1      23.035   3.451  22.187  1.00  0.00     0.050 A
HETATM    2  C10 UNL     1      24.320   2.998  21.951  1.00  0.00     0.131 A
HETATM    3  C11 UNL     1      24.553   1.915  22.772  1.00  0.00     0.177 A
HETATM    4  N2  UNL     1      23.453   1.716  23.485  1.00  0.00    -0.324 N
HETATM    5  C12 UNL     1      23.313   0.658  24.468  1.00  0.00     0.159 C
HETATM    6  C13 UNL     1      22.496   2.632  23.160  1.00  0.00     0.126 A
ENDROOT
BRANCH   1   7
HETATM    7  C8  UNL     1      22.356   4.568  21.554  1.00  0.00     0.105 C
HETATM    8  N1  UNL     1      22.809   5.761  21.609  1.00  0.00    -0.359 N
ATOM      9  H1  UNL     1      23.677   5.943  22.112  1.00  0.00     0.166 HD
BRANCH   8  10
HETATM   10  C7  UNL     1      22.114   6.859  20.970  1.00  0.00     0.080 A
HETATM   11  C5  UNL     1      21.235   7.733  21.555  1.00  0.00    -0.027 A
HETATM   12  C4  UNL     1      20.704   8.686  20.765  1.00  0.00     0.024 A
HETATM   13  C6  UNL     1      20.889   7.616  23.034  1.00  0.00     0.051 C
HETATM   14  C3  UNL     1      21.088   8.696  19.452  1.00  0.00    -0.015 A
HETATM   15  S1  UNL     1      22.172   7.387  19.352  1.00  0.00    -0.076 SA
BRANCH  14  16
HETATM   16  C2  UNL     1      20.643   9.650  18.367  1.00  0.00     0.041 C
HETATM   17  C1  UNL     1      21.625   9.457  17.231  1.00  0.00     0.010 C
ENDBRANCH  14  16
ENDBRANCH   8  10
ENDBRANCH   1   7
BRANCH   2  18
HETATM   18  O1  UNL     1      25.247   3.500  21.062  1.00  0.00    -0.356 OA
ATOM     19  H1  UNL     1      25.835   3.016  20.495  1.00  0.00     0.218 HD
ENDBRANCH   2  18
BRANCH   6  20
HETATM   20  C14 UNL     1      21.169   2.661  23.784  1.00  0.00     0.311 C
HETATM   21  O3  UNL     1      21.036   3.249  24.890  1.00  0.00    -0.258 OA
BRANCH  20  22
HETATM   22  O4  UNL     1      20.069   2.086  23.232  1.00  0.00    -0.312 OA
BRANCH  22  23
HETATM   23  C15 UNL     1      19.914   0.747  22.875  1.00  0.00     0.124 C
HETATM   24  C16 UNL     1      18.839   0.534  21.828  1.00  0.00     0.040 C
HETATM   25  C17 UNL     1      19.641  -0.159  24.056  1.00  0.00     0.040 C
ENDBRANCH  22  23
ENDBRANCH  20  22
ENDBRANCH   6  20
BRANCH   3  26
HETATM   26  O2  UNL     1      25.743   1.165  22.840  1.00  0.00    -0.344 OA
ATOM     27  H2  UNL     1      26.261   1.004  23.620  1.00  0.00     0.219 HD
ENDBRANCH   3  26
TORSDOF 8
ENDMDL