MODEL 3
REMARK VINA RESULT: -7.538289897      1.219      3.082
REMARK  6 active torsions:
REMARK  status: ('A' for Active; 'I' for Inactive)
REMARK    1  A    between atoms: O1_2  and  C2_3
REMARK    2  A    between atoms: C4_5  and  C5_6
REMARK    3  A    between atoms: C6_7  and  C7_8
REMARK    4  A    between atoms: N3_15  and  N4_16
REMARK    5  A    between atoms: C14_23  and  O2_24
REMARK    6  A    between atoms: C16_26  and  O3_27
ROOT
HETATM    1  C5  UNL     1      28.341   1.859  17.160  1.00  0.00     0.016 C
HETATM    2  C6  UNL     1      27.831   2.160  18.297  1.00  0.00     0.052 C
ENDROOT
BRANCH   1   3
HETATM    3  C4  UNL     1      27.819   1.545  15.860  1.00  0.00    -0.025 A
HETATM    4  C3  UNL     1      27.164   0.301  15.756  1.00  0.00     0.051 A
HETATM    5  C2  UNL     1      26.535  -0.116  14.624  1.00  0.00     0.104 A
HETATM    6  C16 UNL     1      26.557   0.751  13.533  1.00  0.00     0.133 A
HETATM    7  C14 UNL     1      27.182   1.968  13.600  1.00  0.00     0.110 A
HETATM    8  C12 UNL     1      27.815   2.374  14.763  1.00  0.00    -0.015 A
HETATM    9  C13 UNL     1      28.366   3.774  14.823  1.00  0.00     0.052 C
BRANCH   5  10
HETATM   10  O1  UNL     1      25.895  -1.345  14.535  1.00  0.00    -0.353 OA
HETATM   11  C1  UNL     1      26.670  -2.467  14.158  1.00  0.00     0.210 C
ENDBRANCH   5  10
BRANCH   6  12
HETATM   12  O3  UNL     1      25.910   0.304  12.384  1.00  0.00    -0.356 OA
ATOM     13  H3  UNL     1      26.469  -0.046  11.701  1.00  0.00     0.218 HD
ENDBRANCH   6  12
BRANCH   7  14
HETATM   14  O2  UNL     1      27.186   2.800  12.505  1.00  0.00    -0.352 OA
HETATM   15  C15 UNL     1      28.247   2.838  11.573  1.00  0.00     0.210 C
ENDBRANCH   7  14
ENDBRANCH   1   3
BRANCH   2  16
HETATM   16  C7  UNL     1      26.477   2.336  18.766  1.00  0.00     0.144 A
HETATM   17  N1  UNL     1      25.641   3.366  18.558  1.00  0.00    -0.282 N
HETATM   18  N2  UNL     1      24.481   3.146  19.148  1.00  0.00    -0.273 N
ATOM     19  H1  UNL     1      25.870   4.201  18.019  1.00  0.00     0.188 HD
HETATM   20  C8  UNL     1      24.553   1.949  19.757  1.00  0.00     0.214 A
ATOM     21  H2  UNL     1      23.676   3.771  19.144  1.00  0.00     0.189 HD
HETATM   22  S1  UNL     1      23.312   1.284  20.618  1.00  0.00    -0.037 SA
HETATM   23  N3  UNL     1      25.760   1.446  19.533  1.00  0.00    -0.211 N
BRANCH  23  24
HETATM   24  N4  UNL     1      26.239   0.235  19.980  1.00  0.00    -0.299 N
HETATM   25  C9  UNL     1      26.028  -0.907  19.476  1.00  0.00    -0.004 C
HETATM   26  C10 UNL     1      25.199  -1.171  18.274  1.00  0.00     0.064 C
HETATM   27  C11 UNL     1      26.657  -2.088  20.138  1.00  0.00     0.064 C
ATOM     28  H4  UNL     1      26.831   0.262  20.810  1.00  0.00     0.187 HD
ENDBRANCH  23  24
ENDBRANCH   2  16
TORSDOF 6
ENDMDL