MODEL 4
REMARK VINA RESULT: -7.653839972      2.494      4.654
REMARK  8 active torsions:
REMARK  status: ('A' for Active; 'I' for Inactive)
REMARK    1  A    between atoms: O1_2  and  C2_3
REMARK    2  A    between atoms: C4_5  and  C5_6
REMARK    3  A    between atoms: C8_10  and  O3_11
REMARK    4  A    between atoms: O3_11  and  C9_12
REMARK    5  A    between atoms: C10_13  and  O4_14
REMARK    6  A    between atoms: C11_17  and  C12_18
REMARK    7  A    between atoms: C12_18  and  C13_20
REMARK    8  A    between atoms: C18_25  and  O7_26
ROOT
HETATM    1  O3  UNL     1      25.566   1.782  19.444  1.00  0.00    -0.302 OA
ENDROOT
BRANCH   1   2
HETATM    2  C8  UNL     1      26.408   1.560  18.404  1.00  0.00     0.113 A
HETATM    3  C7  UNL     1      26.710   0.208  18.150  1.00  0.00     0.055 A
HETATM    4  C4  UNL     1      27.542  -0.205  17.140  1.00  0.00     0.015 A
HETATM    5  C3  UNL     1      28.089   0.792  16.357  1.00  0.00     0.055 A
HETATM    6  C2  UNL     1      27.818   2.119  16.572  1.00  0.00     0.105 A
HETATM    7  C18 UNL     1      26.974   2.512  17.601  1.00  0.00     0.133 A
BRANCH   4   8
HETATM    8  C5  UNL     1      27.829  -1.617  16.912  1.00  0.00     0.155 C
HETATM    9  C6  UNL     1      28.075  -2.520  18.037  1.00  0.00     0.096 C
HETATM   10  O2  UNL     1      27.855  -2.024  15.730  1.00  0.00    -0.293 OA
ENDBRANCH   4   8
BRANCH   6  11
HETATM   11  O1  UNL     1      28.380   3.104  15.772  1.00  0.00    -0.353 OA
HETATM   12  C1  UNL     1      27.972   3.201  14.422  1.00  0.00     0.210 C
ENDBRANCH   6  11
BRANCH   7  13
HETATM   13  O7  UNL     1      26.721   3.865  17.791  1.00  0.00    -0.356 OA
ATOM     14  H7  UNL     1      26.323   4.152  18.605  1.00  0.00     0.218 HD
ENDBRANCH   7  13
ENDBRANCH   1   2
BRANCH   1  15
HETATM   15  C9  UNL     1      24.534   2.628  19.634  1.00  0.00     0.143 A
HETATM   16  C10 UNL     1      23.418   2.794  18.782  1.00  0.00     0.219 A
HETATM   17  O5  UNL     1      22.617   3.692  19.281  1.00  0.00    -0.281 OA
HETATM   18  C11 UNL     1      23.085   4.160  20.408  1.00  0.00     0.133 A
HETATM   19  C16 UNL     1      24.291   3.507  20.653  1.00  0.00     0.015 A
HETATM   20  C17 UNL     1      25.132   3.727  21.859  1.00  0.00     0.054 C
BRANCH  16  21
HETATM   21  O4  UNL     1      23.284   2.064  17.609  1.00  0.00    -0.339 OA
ATOM     22  H4  UNL     1      22.650   2.305  16.944  1.00  0.00     0.220 HD
ENDBRANCH  16  21
BRANCH  18  23
HETATM   23  C12 UNL     1      22.481   5.170  21.256  1.00  0.00     0.187 C
HETATM   24  O6  UNL     1      21.646   4.807  22.121  1.00  0.00    -0.290 OA
BRANCH  23  25
HETATM   25  C13 UNL     1      22.821   6.589  21.123  1.00  0.00     0.054 C
HETATM   26  C14 UNL     1      22.506   7.090  19.735  1.00  0.00     0.018 C
HETATM   27  C15 UNL     1      22.055   7.453  22.104  1.00  0.00     0.018 C
ENDBRANCH  23  25
ENDBRANCH  18  23
ENDBRANCH   1  15
TORSDOF 8
ENDMDL