MODEL 2
REMARK VINA RESULT: -8.001177379      0.809      1.499
REMARK  7 active torsions:
REMARK  status: ('A' for Active; 'I' for Inactive)
REMARK    1  A    between atoms: C2_2  and  C3_3
REMARK    2  A    between atoms: C3_3  and  C4_4
REMARK    3  A    between atoms: C5_5  and  C6_6
REMARK    4  A    between atoms: C7_8  and  O2_9
REMARK    5  A    between atoms: C9_13  and  C10_14
REMARK    6  A    between atoms: C15_22  and  C16_23
REMARK    7  A    between atoms: C18_26  and  O6_27
ROOT
HETATM    1  C4  UNL     1      27.541   2.353  13.309  1.00  0.00    -0.008 A
HETATM    2  C5  UNL     1      27.005   1.194  12.801  1.00  0.00     0.047 A
HETATM    3  C7  UNL     1      26.647   0.180  13.647  1.00  0.00     0.114 A
HETATM    4  C8  UNL     1      26.804   0.269  15.026  1.00  0.00     0.124 A
HETATM    5  O3  UNL     1      26.549  -0.524  16.007  1.00  0.00    -0.303 OA
HETATM    6  C9  UNL     1      26.880   0.014  17.197  1.00  0.00     0.126 A
HETATM    7  C15 UNL     1      27.379   1.236  16.916  1.00  0.00     0.054 A
HETATM    8  C17 UNL     1      27.337   1.423  15.538  1.00  0.00     0.051 A
HETATM    9  C18 UNL     1      27.701   2.451  14.697  1.00  0.00     0.087 A
ENDROOT
BRANCH   6  10
HETATM   10  C10 UNL     1      26.690  -0.699  18.441  1.00  0.00     0.134 A
HETATM   11  O4  UNL     1      25.898  -0.156  19.387  1.00  0.00    -0.293 OA
HETATM   12  C11 UNL     1      25.842  -0.946  20.417  1.00  0.00     0.120 A
HETATM   13  C12 UNL     1      25.062  -0.698  21.679  1.00  0.00     0.098 C
HETATM   14  N1  UNL     1      26.592  -2.023  20.177  1.00  0.00    -0.342 N
HETATM   15  C13 UNL     1      27.124  -1.857  18.925  1.00  0.00     0.044 A
ATOM     16  H1  UNL     1      26.739  -2.815  20.802  1.00  0.00     0.167 HD
HETATM   17  C14 UNL     1      28.073  -2.870  18.373  1.00  0.00     0.071 C
ENDBRANCH   6  10
BRANCH   7  18
HETATM   18  C16 UNL     1      27.940   2.262  17.774  1.00  0.00     0.273 C
HETATM   19  O5  UNL     1      29.180   2.424  17.781  1.00  0.00    -0.301 OA
ENDBRANCH   7  18
BRANCH   3  20
HETATM   20  O2  UNL     1      26.107  -0.991  13.166  1.00  0.00    -0.357 OA
ATOM     21  H2  UNL     1      26.616  -1.793  13.145  1.00  0.00     0.217 HD
ENDBRANCH   3  20
BRANCH   9  22
HETATM   22  O6  UNL     1      28.226   3.605  15.139  1.00  0.00    -0.359 OA
ATOM     23  H6  UNL     1      27.601   4.304  15.298  1.00  0.00     0.217 HD
ENDBRANCH   9  22
BRANCH   2  24
HETATM   24  C6  UNL     1      26.817   1.047  11.339  1.00  0.00     0.273 C
HETATM   25  O1  UNL     1      25.680   0.834  10.898  1.00  0.00    -0.301 OA
ENDBRANCH   2  24
BRANCH   1  26
HETATM   26  C3  UNL     1      27.902   3.394  12.365  1.00  0.00     0.042 C
BRANCH  26  27
HETATM   27  C2  UNL     1      29.291   3.471  11.871  1.00  0.00     0.000 C
HETATM   28  C1  UNL     1      29.927   4.677  12.603  1.00  0.00     0.005 C
ENDBRANCH  26  27
ENDBRANCH   1  26
TORSDOF 7
ENDMDL