MODEL 2
REMARK VINA RESULT: -6.567788596      0.931      1.125
REMARK  8 active torsions:
REMARK  status: ('A' for Active; 'I' for Inactive)
REMARK    1  A    between atoms: C2_2  and  C3_3
REMARK    2  A    between atoms: C3_3  and  C4_4
REMARK    3  A    between atoms: C4_4  and  C5_5
REMARK    4  A    between atoms: C5_5  and  C6_6
REMARK    5  A    between atoms: C11_12  and  O2_13
REMARK    6  A    between atoms: C12_15  and  O3_16
REMARK    7  A    between atoms: C13_18  and  O4_19
REMARK    8  A    between atoms: O4_19  and  C14_20
ROOT
HETATM    1  C6  UNL     1      21.867   3.872  23.317  1.00  0.00     0.119 C
HETATM    2  C7  UNL     1      21.017   3.199  22.261  1.00  0.00     0.059 C
HETATM    3  O1  UNL     1      21.574   5.226  23.412  1.00  0.00    -0.328 OA
HETATM    4  C8  UNL     1      20.990   5.944  24.400  1.00  0.00     0.097 A
HETATM    5  C9  UNL     1      20.490   7.196  24.107  1.00  0.00     0.009 A
HETATM    6  C10 UNL     1      20.587   7.759  22.729  1.00  0.00     0.054 C
HETATM    7  C11 UNL     1      19.872   8.003  25.065  1.00  0.00     0.110 A
HETATM    8  C12 UNL     1      19.751   7.543  26.359  1.00  0.00     0.135 A
HETATM    9  C13 UNL     1      20.241   6.295  26.688  1.00  0.00     0.132 A
HETATM   10  C16 UNL     1      20.847   5.517  25.721  1.00  0.00     0.092 A
HETATM   11  C17 UNL     1      21.348   4.205  26.118  1.00  0.00     0.227 C
HETATM   12  O6  UNL     1      21.570   3.960  27.302  1.00  0.00    -0.280 OA
HETATM   13  S1  UNL     1      21.629   2.979  24.873  1.00  0.00    -0.049 SA
ENDROOT
BRANCH   1  14
HETATM   14  C5  UNL     1      23.312   3.733  22.885  1.00  0.00     0.050 C
BRANCH  14  15
HETATM   15  C4  UNL     1      23.851   5.044  22.351  1.00  0.00     0.004 C
BRANCH  15  16
HETATM   16  C3  UNL     1      24.009   5.012  20.859  1.00  0.00    -0.000 C
BRANCH  16  17
HETATM   17  C2  UNL     1      22.818   5.612  20.143  1.00  0.00    -0.005 C
HETATM   18  C1  UNL     1      22.883   7.117  20.104  1.00  0.00     0.005 C
ENDBRANCH  16  17
ENDBRANCH  15  16
ENDBRANCH  14  15
ENDBRANCH   1  14
BRANCH   7  19
HETATM   19  O2  UNL     1      19.390   9.267  24.684  1.00  0.00    -0.357 OA
ATOM     20  H2  UNL     1      19.985  10.008  24.691  1.00  0.00     0.217 HD
ENDBRANCH   7  19
BRANCH   9  21
HETATM   21  O4  UNL     1      20.104   5.846  28.018  1.00  0.00    -0.275 OA
BRANCH  21  22
HETATM   22  C14 UNL     1      20.783   6.493  29.051  1.00  0.00     0.260 C
HETATM   23  C15 UNL     1      22.246   6.424  29.243  1.00  0.00     0.126 C
HETATM   24  O5  UNL     1      20.098   7.170  29.856  1.00  0.00    -0.265 OA
ENDBRANCH  21  22
ENDBRANCH   9  21
BRANCH   8  25
HETATM   25  O3  UNL     1      19.135   8.339  27.333  1.00  0.00    -0.356 OA
ATOM     26  H3  UNL     1      18.189   8.419  27.355  1.00  0.00     0.218 HD
ENDBRANCH   8  25
TORSDOF 8
ENDMDL