MODEL 4
REMARK VINA RESULT: -7.537650338      4.992      8.033
REMARK  9 active torsions:
REMARK  status: ('A' for Active; 'I' for Inactive)
REMARK    1  A    between atoms: O1_2  and  C2_3
REMARK    2  A    between atoms: C4_5  and  O2_6
REMARK    3  A    between atoms: C5_8  and  C6_9
REMARK    4  A    between atoms: C8_12  and  O4_13
REMARK    5  A    between atoms: C9_15  and  C10_16
REMARK    6  A    between atoms: C10_16  and  O5_17
REMARK    7  A    between atoms: C10_16  and  C11_19
REMARK    8  A    between atoms: C11_19  and  C12_20
REMARK    9  A    between atoms: C12_20  and  C13_21
ROOT
HETATM    1  C2  UNL     1      21.472   2.826  22.064  1.00  0.00     0.086 A
HETATM    2  C3  UNL     1      21.851   1.775  21.219  1.00  0.00     0.075 A
HETATM    3  C4  UNL     1      22.983   1.832  20.476  1.00  0.00     0.085 A
HETATM    4  C5  UNL     1      23.819   2.925  20.512  1.00  0.00     0.077 A
HETATM    5  C8  UNL     1      23.465   3.990  21.348  1.00  0.00     0.098 A
HETATM    6  C9  UNL     1      22.267   3.931  22.135  1.00  0.00     0.065 A
ENDROOT
BRANCH   6   7
HETATM    7  C10 UNL     1      21.980   5.070  22.967  1.00  0.00     0.081 C
BRANCH   7   8
HETATM    8  O5  UNL     1      22.521   4.898  24.198  1.00  0.00    -0.360 OA
ATOM      9  H5  UNL     1      23.140   5.595  24.383  1.00  0.00     0.217 HD
ENDBRANCH   7   8
BRANCH   7  10
HETATM   10  C11 UNL     1      21.307   6.311  22.892  1.00  0.00     0.039 C
BRANCH  10  11
HETATM   11  C12 UNL     1      21.486   7.534  22.591  1.00  0.00     0.021 C
BRANCH  11  12
HETATM   12  C13 UNL     1      21.389   7.984  21.165  1.00  0.00     0.005 A
HETATM   13  C14 UNL     1      20.461   8.752  20.539  1.00  0.00     0.026 A
HETATM   14  C15 UNL     1      20.636   8.997  19.222  1.00  0.00    -0.048 A
HETATM   15  C16 UNL     1      19.676   9.840  18.401  1.00  0.00     0.049 C
HETATM   16  C17 UNL     1      21.731   8.452  18.622  1.00  0.00    -0.015 A
HETATM   17  C18 UNL     1      22.172   8.556  17.189  1.00  0.00     0.057 C
HETATM   18  S1  UNL     1      22.491   7.616  19.894  1.00  0.00    -0.095 SA
ENDBRANCH  11  12
ENDBRANCH  10  11
ENDBRANCH   7  10
ENDBRANCH   6   7
BRANCH   1  19
HETATM   19  O1  UNL     1      20.303   2.673  22.778  1.00  0.00    -0.355 OA
HETATM   20  C1  UNL     1      20.157   1.681  23.745  1.00  0.00     0.210 C
ENDBRANCH   1  19
BRANCH   5  21
HETATM   21  O4  UNL     1      24.273   5.032  21.375  1.00  0.00    -0.359 OA
ATOM     22  H4  UNL     1      24.685   5.242  22.205  1.00  0.00     0.217 HD
ENDBRANCH   5  21
BRANCH   4  23
HETATM   23  C6  UNL     1      25.026   2.948  19.699  1.00  0.00     0.161 C
HETATM   24  C7  UNL     1      26.301   2.372  20.125  1.00  0.00     0.097 C
HETATM   25  O3  UNL     1      24.967   3.494  18.571  1.00  0.00    -0.293 OA
ENDBRANCH   4  23
BRANCH   3  26
HETATM   26  O2  UNL     1      23.352   0.769  19.631  1.00  0.00    -0.360 OA
ATOM     27  H2  UNL     1      24.121   0.241  19.813  1.00  0.00     0.217 HD
ENDBRANCH   3  26
TORSDOF 9
ENDMDL