MODEL 2
REMARK VINA RESULT: -6.799233508      4.081      7.157
REMARK  7 active torsions:
REMARK  status: ('A' for Active; 'I' for Inactive)
REMARK    1  A    between atoms: O1_2  and  C2_3
REMARK    2  A    between atoms: C4_5  and  O2_6
REMARK    3  A    between atoms: C7_9  and  O3_10
REMARK    4  A    between atoms: C9_12  and  O4_13
REMARK    5  A    between atoms: C11_15  and  C12_16
REMARK    6  A    between atoms: N1_17  and  C13_19
REMARK    7  A    between atoms: C17_23  and  O5_24
ROOT
HETATM    1  C2  UNL     1      25.443   2.175  20.773  1.00  0.00     0.071 A
HETATM    2  C3  UNL     1      25.121   0.836  20.738  1.00  0.00     0.074 A
HETATM    3  C4  UNL     1      25.416   0.073  19.636  1.00  0.00     0.085 A
HETATM    4  C6  UNL     1      26.041   0.636  18.543  1.00  0.00     0.047 A
HETATM    5  C7  UNL     1      26.376  -0.062  17.409  1.00  0.00     0.116 A
HETATM    6  C9  UNL     1      27.019   0.529  16.321  1.00  0.00     0.116 A
HETATM    7  C11 UNL     1      27.356   1.859  16.321  1.00  0.00     0.049 A
HETATM    8  C17 UNL     1      27.021   2.577  17.464  1.00  0.00     0.091 A
HETATM    9  C18 UNL     1      26.380   1.986  18.550  1.00  0.00     0.017 A
HETATM   10  C19 UNL     1      26.070   2.726  19.675  1.00  0.00     0.052 A
ENDROOT
BRANCH   7  11
HETATM   11  C12 UNL     1      28.001   2.504  15.194  1.00  0.00     0.101 C
HETATM   12  N1  UNL     1      27.671   3.679  14.807  1.00  0.00    -0.390 N
ATOM     13  H1  UNL     1      26.931   4.156  15.323  1.00  0.00     0.159 HD
BRANCH  12  14
HETATM   14  C13 UNL     1      28.262   4.375  13.707  1.00  0.00     0.018 C
HETATM   15  C14 UNL     1      29.761   4.394  13.733  1.00  0.00     0.037 C
HETATM   16  C15 UNL     1      27.830   3.796  12.363  1.00  0.00     0.037 C
HETATM   17  C16 UNL     1      27.772   5.824  13.719  1.00  0.00     0.037 C
ENDBRANCH  12  14
ENDBRANCH   7  11
BRANCH   6  18
HETATM   18  O4  UNL     1      27.290  -0.309  15.256  1.00  0.00    -0.352 OA
HETATM   19  C10 UNL     1      26.366  -0.484  14.181  1.00  0.00     0.210 C
ENDBRANCH   6  18
BRANCH   8  20
HETATM   20  O5  UNL     1      27.304   3.907  17.585  1.00  0.00    -0.359 OA
ATOM     21  H5  UNL     1      27.628   4.276  18.397  1.00  0.00     0.217 HD
ENDBRANCH   8  20
BRANCH   5  22
HETATM   22  O3  UNL     1      26.048  -1.423  17.352  1.00  0.00    -0.352 OA
HETATM   23  C8  UNL     1      27.151  -2.331  17.423  1.00  0.00     0.210 C
ENDBRANCH   5  22
BRANCH   3  24
HETATM   24  O2  UNL     1      25.080  -1.256  19.641  1.00  0.00    -0.355 OA
HETATM   25  C5  UNL     1      25.365  -2.162  20.661  1.00  0.00     0.210 C
ENDBRANCH   3  24
BRANCH   1  26
HETATM   26  O1  UNL     1      25.161   2.965  21.863  1.00  0.00    -0.356 OA
HETATM   27  C1  UNL     1      24.522   4.204  21.817  1.00  0.00     0.210 C
ENDBRANCH   1  26
TORSDOF 7
ENDMDL