MODEL 1
REMARK VINA RESULT: -8.250321188      0.000      0.000
REMARK  7 active torsions:
REMARK  status: ('A' for Active; 'I' for Inactive)
REMARK    1  A    between atoms: C2_2  and  C3_3
REMARK    2  A    between atoms: C5_6  and  O2_7
REMARK    3  A    between atoms: O2_7  and  C6_8
REMARK    4  A    between atoms: C10_13  and  O4_14
REMARK    5  A    between atoms: C13_17  and  O5_18
REMARK    6  A    between atoms: C16_21  and  O6_22
REMARK    7  A    between atoms: C18_25  and  O7_26
ROOT
HETATM    1  C3  UNL     1      21.780   8.712  18.102  1.00  0.00     0.087 A
HETATM    2  O1  UNL     1      22.488   7.656  18.404  1.00  0.00    -0.308 OA
HETATM    3  C4  UNL     1      22.243   7.300  19.654  1.00  0.00     0.126 A
HETATM    4  C5  UNL     1      22.756   6.260  20.387  1.00  0.00     0.125 A
HETATM    5  C8  UNL     1      22.378   6.037  21.709  1.00  0.00     0.019 A
HETATM    6  C9  UNL     1      22.932   4.965  22.407  1.00  0.00     0.052 A
HETATM    7  C10 UNL     1      22.570   4.738  23.702  1.00  0.00     0.071 A
HETATM    8  C12 UNL     1      21.660   5.587  24.278  1.00  0.00     0.074 A
HETATM    9  C13 UNL     1      21.089   6.663  23.611  1.00  0.00     0.084 A
HETATM   10  C15 UNL     1      21.459   6.888  22.300  1.00  0.00     0.045 A
HETATM   11  C16 UNL     1      20.932   7.952  21.555  1.00  0.00     0.095 A
HETATM   12  C17 UNL     1      21.335   8.154  20.214  1.00  0.00     0.070 A
HETATM   13  C18 UNL     1      21.029   9.061  19.237  1.00  0.00     0.111 A
ENDROOT
BRANCH   4  14
HETATM   14  O2  UNL     1      23.677   5.389  19.830  1.00  0.00    -0.275 OA
BRANCH  14  15
HETATM   15  C6  UNL     1      23.393   4.071  19.548  1.00  0.00     0.260 C
HETATM   16  C7  UNL     1      24.524   3.119  19.463  1.00  0.00     0.126 C
HETATM   17  O3  UNL     1      22.196   3.738  19.378  1.00  0.00    -0.265 OA
ENDBRANCH  14  15
ENDBRANCH   4  14
BRANCH   1  18
HETATM   18  C2  UNL     1      21.769   9.411  16.814  1.00  0.00     0.064 C
HETATM   19  C1  UNL     1      22.526   8.723  15.724  1.00  0.00     0.012 C
ENDBRANCH   1  18
BRANCH  11  20
HETATM   20  O6  UNL     1      20.049   8.815  22.039  1.00  0.00    -0.359 OA
ATOM     21  H6  UNL     1      19.160   8.576  22.273  1.00  0.00     0.217 HD
ENDBRANCH  11  20
BRANCH  13  22
HETATM   22  O7  UNL     1      20.154  10.112  19.346  1.00  0.00    -0.357 OA
ATOM     23  H7  UNL     1      19.457  10.203  19.985  1.00  0.00     0.217 HD
ENDBRANCH  13  22
BRANCH   7  24
HETATM   24  O4  UNL     1      23.141   3.661  24.368  1.00  0.00    -0.356 OA
HETATM   25  C11 UNL     1      23.266   2.410  23.752  1.00  0.00     0.210 C
ENDBRANCH   7  24
BRANCH   9  26
HETATM   26  O5  UNL     1      20.182   7.486  24.229  1.00  0.00    -0.355 OA
HETATM   27  C14 UNL     1      20.366   8.087  25.477  1.00  0.00     0.210 C
ENDBRANCH   9  26
TORSDOF 7
ENDMDL