MODEL 1
REMARK VINA RESULT: -7.106208669      0.000      0.000
REMARK  8 active torsions:
REMARK  status: ('A' for Active; 'I' for Inactive)
REMARK    1  A    between atoms: C2_2  and  C3_3
REMARK    2  A    between atoms: C3_3  and  C4_4
REMARK    3  A    between atoms: C4_4  and  O1_5
REMARK    4  A    between atoms: O1_5  and  C5_6
REMARK    5  A    between atoms: C5_6  and  C6_8
REMARK    6  A    between atoms: C9_12  and  N1_13
REMARK    7  A    between atoms: C10_14  and  O3_15
REMARK    8  A    between atoms: C13_19  and  O4_20
ROOT
HETATM    1  C6  UNL     1      26.814  -0.629  17.641  1.00  0.00     0.060 A
HETATM    2  C7  UNL     1      26.271  -1.655  18.367  1.00  0.00    -0.002 A
HETATM    3  C8  UNL     1      26.536  -3.126  18.256  1.00  0.00     0.057 C
HETATM    4  S1  UNL     1      25.213  -0.873  19.440  1.00  0.00    -0.075 SA
HETATM    5  C9  UNL     1      25.472   0.740  18.955  1.00  0.00     0.092 A
HETATM    6  C15 UNL     1      26.393   0.620  17.951  1.00  0.00    -0.010 A
HETATM    7  C16 UNL     1      26.883   1.884  17.255  1.00  0.00     0.052 C
ENDROOT
BRANCH   5   8
HETATM    8  N1  UNL     1      24.874   1.956  19.467  1.00  0.00    -0.264 N
HETATM    9  C10 UNL     1      25.230   2.600  20.584  1.00  0.00     0.158 A
HETATM   10  C11 UNL     1      24.441   3.729  20.766  1.00  0.00     0.024 A
HETATM   11  C12 UNL     1      23.570   3.753  19.700  1.00  0.00     0.063 A
HETATM   12  C14 UNL     1      24.053   4.943  21.539  1.00  0.00     0.124 A
HETATM   13  C13 UNL     1      23.863   2.653  18.924  1.00  0.00     0.167 A
HETATM   14  S2  UNL     1      22.807   5.250  20.298  1.00  0.00    -0.120 SA
BRANCH   9  15
HETATM   15  O3  UNL     1      26.272   2.129  21.400  1.00  0.00    -0.345 OA
ATOM     16  H3  UNL     1      26.108   1.518  22.109  1.00  0.00     0.219 HD
ENDBRANCH   9  15
BRANCH  13  17
HETATM   17  O4  UNL     1      23.216   2.283  17.729  1.00  0.00    -0.345 OA
ATOM     18  H4  UNL     1      23.662   1.875  16.996  1.00  0.00     0.219 HD
ENDBRANCH  13  17
ENDBRANCH   5   8
BRANCH   1  19
HETATM   19  C5  UNL     1      27.819  -0.878  16.559  1.00  0.00     0.295 C
HETATM   20  O2  UNL     1      29.039  -0.688  16.791  1.00  0.00    -0.259 OA
BRANCH  19  21
HETATM   21  O1  UNL     1      27.470  -1.309  15.306  1.00  0.00    -0.317 OA
BRANCH  21  22
HETATM   22  C4  UNL     1      26.361  -0.911  14.572  1.00  0.00     0.179 C
BRANCH  22  23
HETATM   23  C3  UNL     1      26.508   0.404  13.870  1.00  0.00     0.026 C
BRANCH  23  24
HETATM   24  C2  UNL     1      26.549   0.133  12.369  1.00  0.00    -0.002 C
HETATM   25  C1  UNL     1      27.191   1.247  11.606  1.00  0.00     0.005 C
ENDBRANCH  23  24
ENDBRANCH  22  23
ENDBRANCH  21  22
ENDBRANCH  19  21
ENDBRANCH   1  19
TORSDOF 8
ENDMDL