MODEL 2
REMARK VINA RESULT: -6.808942326      1.051      1.269
REMARK  8 active torsions:
REMARK  status: ('A' for Active; 'I' for Inactive)
REMARK    1  A    between atoms: C2_2  and  C3_3
REMARK    2  A    between atoms: C3_3  and  C4_4
REMARK    3  A    between atoms: C4_4  and  C5_5
REMARK    4  A    between atoms: C5_5  and  S1_6
REMARK    5  A    between atoms: S1_6  and  C6_7
REMARK    6  A    between atoms: C9_12  and  O1_13
REMARK    7  A    between atoms: C11_16  and  O2_17
REMARK    8  A    between atoms: O2_17  and  C12_18
ROOT
HETATM    1  C6  UNL     1      22.833   4.704  21.402  1.00  0.00     0.115 C
HETATM    2  N1  UNL     1      23.719   4.775  20.529  1.00  0.00    -0.369 N
ATOM      3  H1  UNL     1      24.007   5.730  20.319  1.00  0.00     0.161 HD
HETATM    4  C7  UNL     1      24.395   3.817  19.785  1.00  0.00     0.127 C
HETATM    5  C8  UNL     1      23.580   3.089  18.765  1.00  0.00     0.037 C
HETATM    6  C9  UNL     1      24.080   1.887  18.548  1.00  0.00     0.073 C
HETATM    7  C10 UNL     1      25.253   1.719  19.395  1.00  0.00     0.014 C
HETATM    8  C11 UNL     1      26.200   0.844  19.188  1.00  0.00     0.157 C
HETATM    9  C14 UNL     1      25.133   2.730  20.505  1.00  0.00     0.123 C
HETATM   10  S2  UNL     1      24.159   1.917  21.795  1.00  0.00    -0.078 SA
HETATM   11  S3  UNL     1      22.306   3.018  21.801  1.00  0.00    -0.032 SA
ENDROOT
BRANCH   1  12
HETATM   12  S1  UNL     1      22.092   6.112  22.243  1.00  0.00    -0.105 SA
BRANCH  12  13
HETATM   13  C5  UNL     1      22.587   7.578  21.294  1.00  0.00     0.081 C
BRANCH  13  14
HETATM   14  C4  UNL     1      21.516   8.011  20.324  1.00  0.00     0.010 C
BRANCH  14  15
HETATM   15  C3  UNL     1      22.075   7.929  18.915  1.00  0.00     0.000 C
BRANCH  15  16
HETATM   16  C2  UNL     1      21.296   8.876  18.047  1.00  0.00    -0.005 C
HETATM   17  C1  UNL     1      22.061   9.095  16.768  1.00  0.00     0.005 C
ENDBRANCH  15  16
ENDBRANCH  14  15
ENDBRANCH  13  14
ENDBRANCH  12  13
ENDBRANCH   1  12
BRANCH   6  18
HETATM   18  O1  UNL     1      23.520   0.994  17.645  1.00  0.00    -0.360 OA
ATOM     19  H1  UNL     1      22.978   0.263  17.918  1.00  0.00     0.217 HD
ENDBRANCH   6  18
BRANCH   8  20
HETATM   20  O2  UNL     1      26.187  -0.033  18.120  1.00  0.00    -0.291 OA
BRANCH  20  21
HETATM   21  C12 UNL     1      26.840   0.317  16.955  1.00  0.00     0.259 C
HETATM   22  C13 UNL     1      28.298   0.582  16.871  1.00  0.00     0.126 C
HETATM   23  O3  UNL     1      26.152   0.414  15.908  1.00  0.00    -0.265 OA
ENDBRANCH  20  21
ENDBRANCH   8  20
TORSDOF 8
ENDMDL