MODEL 1
REMARK VINA RESULT: -7.717514524      0.000      0.000
REMARK  7 active torsions:
REMARK  status: ('A' for Active; 'I' for Inactive)
REMARK    1  A    between atoms: C2_2  and  O1_3
REMARK    2  A    between atoms: O1_3  and  C3_4
REMARK       I    between atoms: C3_4  and  N1_6
REMARK    3  A    between atoms: N1_6  and  C4_8
REMARK    4  A    between atoms: C6_10  and  C7_11
REMARK    5  A    between atoms: C8_16  and  S1_17
REMARK    6  A    between atoms: S1_17  and  C9_18
REMARK    7  A    between atoms: N5_20  and  C10_22
ROOT
HETATM    1  C7  UNL     1      25.501   2.571  19.852  1.00  0.00     0.175 A
HETATM    2  N2  UNL     1      26.127   1.494  20.352  1.00  0.00    -0.277 N
ATOM      3  H2  UNL     1      26.114   1.219  21.334  1.00  0.00     0.189 HD
HETATM    4  N3  UNL     1      26.758   0.842  19.401  1.00  0.00    -0.272 N
ATOM      5  H3  UNL     1      27.312  -0.008  19.501  1.00  0.00     0.189 HD
HETATM    6  C8  UNL     1      26.523   1.529  18.271  1.00  0.00     0.211 A
HETATM    7  O3  UNL     1      25.767   2.555  18.578  1.00  0.00    -0.267 OA
ENDROOT
BRANCH   1   8
HETATM    8  C6  UNL     1      24.677   3.564  20.603  1.00  0.00     0.026 A
HETATM    9  C5  UNL     1      23.716   4.319  20.025  1.00  0.00     0.053 A
HETATM   10  C4  UNL     1      23.040   5.185  20.829  1.00  0.00     0.079 A
HETATM   11  S2  UNL     1      23.746   4.936  22.359  1.00  0.00    -0.083 SA
HETATM   12  C12 UNL     1      24.882   3.740  21.944  1.00  0.00     0.067 A
BRANCH  10  13
HETATM   13  N1  UNL     1      21.977   6.092  20.447  1.00  0.00    -0.297 N
HETATM   14  C3  UNL     1      22.264   7.282  19.786  1.00  0.00     0.365 C
HETATM   15  O2  UNL     1      23.446   7.580  19.514  1.00  0.00    -0.238 OA
ATOM     16  H1  UNL     1      21.008   5.856  20.665  1.00  0.00     0.171 HD
BRANCH  14  17
HETATM   17  O1  UNL     1      21.247   8.137  19.427  1.00  0.00    -0.304 OA
BRANCH  17  18
HETATM   18  C2  UNL     1      21.239   8.855  18.209  1.00  0.00     0.176 C
HETATM   19  C1  UNL     1      19.977   9.640  18.006  1.00  0.00     0.034 C
ENDBRANCH  17  18
ENDBRANCH  14  17
ENDBRANCH  10  13
ENDBRANCH   1   8
BRANCH   6  20
HETATM   20  S1  UNL     1      27.164   1.057  16.675  1.00  0.00    -0.012 SA
BRANCH  20  21
HETATM   21  C9  UNL     1      28.701   1.896  16.374  1.00  0.00     0.159 C
HETATM   22  N4  UNL     1      29.769   1.723  17.284  1.00  0.00    -0.075 NA
HETATM   23  N5  UNL     1      28.848   2.649  15.349  1.00  0.00    -0.356 N
ATOM     24  H5  UNL     1      29.753   3.105  15.227  1.00  0.00     0.162 HD
BRANCH  23  25
HETATM   25  C10 UNL     1      27.849   2.904  14.360  1.00  0.00     0.176 C
HETATM   26  C11 UNL     1      27.833   4.410  14.102  1.00  0.00     0.049 C
HETATM   27 CL1  UNL     1      28.214   2.009  12.875  1.00  0.00    -0.103 Cl
ENDBRANCH  23  25
ENDBRANCH  20  21
ENDBRANCH   6  20
TORSDOF 7
ENDMDL