MODEL 3
REMARK VINA RESULT: -6.932457833      3.322      5.661
REMARK  10 active torsions:
REMARK  status: ('A' for Active; 'I' for Inactive)
REMARK    1  A    between atoms: C2_2  and  S1_3
REMARK    2  A    between atoms: S1_3  and  C3_4
REMARK    3  A    between atoms: C3_4  and  C4_6
REMARK    4  A    between atoms: C5_7  and  O2_8
REMARK    5  A    between atoms: C6_10  and  C7_11
REMARK    6  A    between atoms: C9_14  and  O4_15
REMARK    7  A    between atoms: C10_17  and  C11_18
REMARK    8  A    between atoms: C11_18  and  C13_20
REMARK    9  A    between atoms: C14_22  and  O5_23
REMARK   10  A    between atoms: O5_23  and  C15_24
ROOT
HETATM    1  C4  UNL     1      20.501   4.691  24.694  1.00  0.00     0.090 A
HETATM    2  C5  UNL     1      20.309   6.072  24.584  1.00  0.00     0.100 A
HETATM    3  C6  UNL     1      21.024   6.776  23.587  1.00  0.00     0.077 A
HETATM    4  C9  UNL     1      21.881   6.086  22.765  1.00  0.00     0.095 A
HETATM    5  C10 UNL     1      22.069   4.681  22.875  1.00  0.00     0.036 A
HETATM    6  C14 UNL     1      21.373   3.999  23.844  1.00  0.00     0.110 A
ENDROOT
BRANCH   1   7
HETATM    7  C3  UNL     1      19.748   3.928  25.663  1.00  0.00     0.224 C
HETATM    8  O1  UNL     1      18.519   3.637  25.541  1.00  0.00    -0.280 OA
BRANCH   7   9
HETATM    9  S1  UNL     1      20.453   3.292  27.203  1.00  0.00    -0.087 SA
BRANCH   9  10
HETATM   10  C2  UNL     1      20.623   4.722  28.360  1.00  0.00     0.078 C
HETATM   11  C1  UNL     1      21.893   5.470  27.974  1.00  0.00     0.016 C
ENDBRANCH   9  10
ENDBRANCH   7   9
ENDBRANCH   1   7
BRANCH   2  12
HETATM   12  O2  UNL     1      19.504   6.805  25.345  1.00  0.00    -0.358 OA
ATOM     13  H2  UNL     1      18.611   7.051  25.130  1.00  0.00     0.217 HD
ENDBRANCH   2  12
BRANCH   6  14
HETATM   14  O5  UNL     1      21.545   2.619  23.945  1.00  0.00    -0.277 OA
BRANCH  14  15
HETATM   15  C15 UNL     1      20.610   1.694  23.455  1.00  0.00     0.260 C
HETATM   16  C16 UNL     1      20.577   0.344  24.113  1.00  0.00     0.126 C
HETATM   17  O6  UNL     1      19.869   2.027  22.523  1.00  0.00    -0.265 OA
ENDBRANCH  14  15
ENDBRANCH   6  14
BRANCH   3  18
HETATM   18  C7  UNL     1      20.839   8.203  23.457  1.00  0.00     0.161 C
HETATM   19  C8  UNL     1      21.104   9.233  24.483  1.00  0.00     0.097 C
HETATM   20  O3  UNL     1      20.403   8.647  22.338  1.00  0.00    -0.293 OA
ENDBRANCH   3  18
BRANCH   5  21
HETATM   21  C11 UNL     1      22.871   3.965  21.864  1.00  0.00    -0.054 C
HETATM   22  C12 UNL     1      24.344   4.161  21.923  1.00  0.00     0.046 C
BRANCH  21  23
HETATM   23  C13 UNL     1      22.243   3.760  20.563  1.00  0.00     0.149 C
HETATM   24 CL1  UNL     1      23.485   3.464  19.269  1.00  0.00    -0.126 Cl
ENDBRANCH  21  23
ENDBRANCH   5  21
BRANCH   4  25
HETATM   25  O4  UNL     1      22.561   6.781  21.859  1.00  0.00    -0.359 OA
ATOM     26  H4  UNL     1      22.593   6.438  20.974  1.00  0.00     0.217 HD
ENDBRANCH   4  25
TORSDOF 10
ENDMDL