MODEL 2
REMARK VINA RESULT: -8.468785940      1.739      2.349
REMARK  6 active torsions:
REMARK  status: ('A' for Active; 'I' for Inactive)
REMARK    1  A    between atoms: O1_2  and  C2_3
REMARK    2  A    between atoms: C4_5  and  N1_6
REMARK    3  A    between atoms: C5_8  and  C6_9
REMARK    4  A    between atoms: C7_10  and  O2_11
REMARK    5  A    between atoms: C12_18  and  O3_19
REMARK    6  A    between atoms: C18_28  and  O6_29
ROOT
HETATM    1  C6  UNL     1      21.992   4.016  21.472  1.00  0.00     0.089 A
HETATM    2  C7  UNL     1      22.212   5.384  21.642  1.00  0.00     0.096 A
HETATM    3  C8  UNL     1      21.535   6.005  22.659  1.00  0.00     0.038 A
HETATM    4  C9  UNL     1      21.681   7.370  22.918  1.00  0.00     0.059 A
HETATM    5  C10 UNL     1      20.992   7.977  23.948  1.00  0.00     0.120 A
HETATM    6  F1  UNL     1      21.143   9.298  24.187  1.00  0.00    -0.206 F
HETATM    7  C11 UNL     1      20.127   7.252  24.766  1.00  0.00     0.081 A
HETATM    8  C12 UNL     1      19.990   5.906  24.503  1.00  0.00     0.103 A
HETATM    9  C13 UNL     1      20.673   5.287  23.478  1.00  0.00     0.125 A
HETATM   10  O4  UNL     1      20.520   4.005  23.253  1.00  0.00    -0.271 OA
HETATM   11  C14 UNL     1      21.121   3.354  22.316  1.00  0.00     0.302 A
HETATM   12  O5  UNL     1      20.916   2.100  22.166  1.00  0.00    -0.259 OA
ENDROOT
BRANCH   1  13
HETATM   13  C5  UNL     1      22.676   3.290  20.410  1.00  0.00     0.108 C
HETATM   14  N1  UNL     1      23.643   2.528  20.710  1.00  0.00    -0.365 N
ATOM     15  H1  UNL     1      23.902   2.458  21.694  1.00  0.00     0.165 HD
BRANCH  14  16
HETATM   16  C4  UNL     1      24.392   1.766  19.779  1.00  0.00     0.035 A
HETATM   17  C3  UNL     1      24.078   0.475  19.428  1.00  0.00     0.069 A
HETATM   18  C2  UNL     1      24.848  -0.216  18.513  1.00  0.00     0.104 A
HETATM   19  C18 UNL     1      25.957   0.342  17.910  1.00  0.00     0.107 A
HETATM   20  C16 UNL     1      26.273   1.638  18.262  1.00  0.00    -0.024 A
HETATM   21  C15 UNL     1      25.498   2.334  19.183  1.00  0.00     0.039 A
HETATM   22  C17 UNL     1      27.472   2.267  17.623  1.00  0.00     0.051 C
BRANCH  18  23
HETATM   23  O1  UNL     1      24.537  -1.529  18.149  1.00  0.00    -0.353 OA
HETATM   24  C1  UNL     1      24.874  -2.571  19.047  1.00  0.00     0.210 C
ENDBRANCH  18  23
BRANCH  19  25
HETATM   25  O6  UNL     1      26.710  -0.383  16.992  1.00  0.00    -0.353 OA
HETATM   26  C19 UNL     1      26.264  -0.374  15.642  1.00  0.00     0.210 C
ENDBRANCH  19  25
ENDBRANCH  14  16
ENDBRANCH   1  13
BRANCH   2  27
HETATM   27  O2  UNL     1      23.064   6.099  20.834  1.00  0.00    -0.359 OA
ATOM     28  H2  UNL     1      24.010   6.035  20.908  1.00  0.00     0.217 HD
ENDBRANCH   2  27
BRANCH   8  29
HETATM   29  O3  UNL     1      19.130   5.178  25.313  1.00  0.00    -0.358 OA
ATOM     30  H3  UNL     1      19.378   4.286  25.527  1.00  0.00     0.217 HD
ENDBRANCH   8  29
TORSDOF 6
ENDMDL