MODEL 4
REMARK VINA RESULT: -6.361410848      2.546      4.054
REMARK  7 active torsions:
REMARK  status: ('A' for Active; 'I' for Inactive)
REMARK    1  A    between atoms: O1_2  and  C2_3
REMARK    2  A    between atoms: C3_4  and  O2_5
REMARK    3  A    between atoms: C4_7  and  O3_8
REMARK    4  A    between atoms: C5_10  and  N1_11
REMARK    5  A    between atoms: N2_13  and  C6_15
REMARK    6  A    between atoms: C6_15  and  C7_16
REMARK    7  A    between atoms: C12_23  and  O4_24
ROOT
HETATM    1  C2  UNL     1      27.307   1.458  13.085  1.00  0.00     0.139 A
HETATM    2  C3  UNL     1      26.169   0.693  13.096  1.00  0.00     0.138 A
HETATM    3  C4  UNL     1      25.697   0.241  14.311  1.00  0.00     0.131 A
HETATM    4  C5  UNL     1      26.360   0.554  15.503  1.00  0.00     0.104 A
HETATM    5  C11 UNL     1      27.503   1.323  15.475  1.00  0.00     0.078 A
HETATM    6 BR1  UNL     1      28.469   1.799  17.034  1.00  0.00    -0.045 Br
HETATM    7  C12 UNL     1      27.980   1.781  14.245  1.00  0.00     0.124 A
ENDROOT
BRANCH   4   8
HETATM    8  N1  UNL     1      25.872   0.085  16.764  1.00  0.00    -0.301 N
HETATM    9  N2  UNL     1      24.692   0.333  17.112  1.00  0.00    -0.332 N
ATOM     10  H2  UNL     1      24.071   0.867  16.504  1.00  0.00     0.180 HD
ATOM     11  H1  UNL     1      26.483  -0.450  17.381  1.00  0.00     0.186 HD
BRANCH   9  12
HETATM   12  C6  UNL     1      24.227  -0.155  18.400  1.00  0.00     0.167 C
BRANCH  12  13
HETATM   13  C7  UNL     1      25.058   0.458  19.454  1.00  0.00     0.008 C
HETATM   14  C8  UNL     1      24.810   1.684  19.863  1.00  0.00    -0.023 C
HETATM   15  C9  UNL     1      23.800   2.702  19.491  1.00  0.00     0.056 C
HETATM   16  S1  UNL     1      25.567   2.747  21.084  1.00  0.00    -0.134 SA
HETATM   17  C10 UNL     1      24.025   3.566  20.686  1.00  0.00     0.084 C
ENDBRANCH  12  13
ENDBRANCH   9  12
ENDBRANCH   4   8
BRANCH   3  18
HETATM   18  O3  UNL     1      24.564  -0.528  14.391  1.00  0.00    -0.356 OA
ATOM     19  H3  UNL     1      23.727  -0.147  14.625  1.00  0.00     0.218 HD
ENDBRANCH   3  18
BRANCH   2  20
HETATM   20  O2  UNL     1      25.511   0.382  11.915  1.00  0.00    -0.356 OA
ATOM     21  H2  UNL     1      25.193   1.068  11.341  1.00  0.00     0.218 HD
ENDBRANCH   2  20
BRANCH   7  22
HETATM   22  O4  UNL     1      29.125   2.560  14.148  1.00  0.00    -0.352 OA
HETATM   23  C13 UNL     1      28.940   3.971  14.123  1.00  0.00     0.210 C
ENDBRANCH   7  22
BRANCH   1  24
HETATM   24  O1  UNL     1      27.774   1.908  11.856  1.00  0.00    -0.351 OA
HETATM   25  C1  UNL     1      28.702   1.135  11.089  1.00  0.00     0.210 C
ENDBRANCH   1  24
TORSDOF 7
ENDMDL