MODEL 5
REMARK VINA RESULT: -7.202959808      2.942      3.848
REMARK  6 active torsions:
REMARK  status: ('A' for Active; 'I' for Inactive)
REMARK    1  A    between atoms: S1_2  and  C2_3
REMARK    2  A    between atoms: C3_5  and  N1_6
REMARK    3  A    between atoms: C4_11  and  C6_13
REMARK    4  A    between atoms: C8_18  and  O4_19
REMARK    5  A    between atoms: C9_21  and  C10_22
REMARK    6  A    between atoms: C10_22  and  C12_24
ROOT
HETATM    1  C2  UNL     1      25.450  -1.067  20.343  1.00  0.00     0.052 A
HETATM    2  S2  UNL     1      25.902  -1.624  18.809  1.00  0.00    -0.060 SA
HETATM    3  C3  UNL     1      25.507  -0.269  17.886  1.00  0.00     0.137 A
HETATM    4  C8  UNL     1      25.014   0.622  18.810  1.00  0.00     0.110 A
HETATM    5  C9  UNL     1      24.972   0.235  20.083  1.00  0.00     0.009 A
ENDROOT
BRANCH   3   6
HETATM    6  N1  UNL     1      25.682  -0.112  16.468  1.00  0.00    -0.197 N
HETATM    7  N2  UNL     1      24.713   0.041  15.484  1.00  0.00    -0.235 N
HETATM    8  N3  UNL     1      25.206   0.140  14.317  1.00  0.00    -0.292 N
ATOM      9  H2  UNL     1      23.712   0.070  15.678  1.00  0.00     0.208 HD
HETATM   10  C4  UNL     1      26.650   0.069  14.344  1.00  0.00     0.213 A
ATOM     11  H3  UNL     1      24.653   0.255  13.468  1.00  0.00     0.183 HD
HETATM   12  C5  UNL     1      27.266   1.340  13.786  1.00  0.00     0.063 C
HETATM   13  C7  UNL     1      26.918  -0.100  15.803  1.00  0.00     0.285 A
HETATM   14  O3  UNL     1      28.114  -0.205  16.222  1.00  0.00    -0.268 OA
BRANCH  10  15
HETATM   15  C6  UNL     1      27.109  -1.129  13.580  1.00  0.00     0.213 C
HETATM   16  O1  UNL     1      27.305  -1.015  12.353  1.00  0.00    -0.646 OA
HETATM   17  O2  UNL     1      27.322  -2.350  14.187  1.00  0.00    -0.646 OA
ENDBRANCH  10  15
ENDBRANCH   3   6
BRANCH   4  18
HETATM   18  O4  UNL     1      24.563   1.887  18.305  1.00  0.00    -0.357 OA
ATOM     19  H4  UNL     1      25.196   2.597  18.309  1.00  0.00     0.217 HD
ENDBRANCH   4  18
BRANCH   1  20
HETATM   20  S1  UNL     1      25.560  -1.820  21.983  1.00  0.00    -0.126 SA
HETATM   21  C1  UNL     1      25.484  -3.599  21.764  1.00  0.00     0.096 C
ENDBRANCH   1  20
BRANCH   5  22
HETATM   22  C10 UNL     1      24.423   1.015  21.286  1.00  0.00     0.044 C
HETATM   23  C11 UNL     1      25.323   2.281  21.467  1.00  0.00     0.019 C
BRANCH  22  24
HETATM   24  C12 UNL     1      23.103   1.656  20.986  1.00  0.00     0.019 C
HETATM   25  C13 UNL     1      22.108   1.876  21.805  1.00  0.00     0.087 C
HETATM   26  C14 UNL     1      22.002   1.567  23.232  1.00  0.00     0.082 C
HETATM   27  F1  UNL     1      21.008   2.527  21.230  1.00  0.00    -0.212 F
ENDBRANCH  22  24
ENDBRANCH   5  22
TORSDOF 6
ENDMDL