MODEL 4
REMARK VINA RESULT: -8.262007357      5.416      8.866
REMARK  7 active torsions:
REMARK  status: ('A' for Active; 'I' for Inactive)
REMARK    1  A    between atoms: C2_2  and  S1_3
REMARK    2  A    between atoms: S1_3  and  C3_6
REMARK    3  A    between atoms: C3_6  and  C4_7
REMARK    4  A    between atoms: C5_9  and  C6_10
REMARK    5  A    between atoms: C11_18  and  N2_19
REMARK    6  A    between atoms: N2_19  and  N3_21
REMARK    7  A    between atoms: C15_29  and  O5_30
ROOT
HETATM    1  C6  UNL     1      26.910   0.353  16.017  1.00  0.00     0.059 A
HETATM    2  C7  UNL     1      26.642  -1.039  15.999  1.00  0.00     0.171 A
HETATM    3  N1  UNL     1      26.344  -1.767  17.189  1.00  0.00    -0.073 NA
HETATM    4  O4  UNL     1      26.706  -1.467  14.785  1.00  0.00    -0.291 OA
HETATM    5  C8  UNL     1      26.991  -0.485  13.955  1.00  0.00     0.127 A
HETATM    6  C9  UNL     1      27.156  -0.460  12.604  1.00  0.00     0.153 A
HETATM    7  F1  UNL     1      27.040  -1.551  11.823  1.00  0.00    -0.203 F
HETATM    8  C10 UNL     1      27.466   0.773  12.030  1.00  0.00     0.076 A
HETATM    9  C11 UNL     1      27.614   1.922  12.735  1.00  0.00     0.053 A
HETATM   10  C12 UNL     1      27.441   1.868  14.097  1.00  0.00     0.046 A
HETATM   11  C13 UNL     1      27.122   0.672  14.729  1.00  0.00     0.020 A
ENDROOT
BRANCH   1  12
HETATM   12  C5  UNL     1      26.977   1.106  17.267  1.00  0.00     0.093 A
HETATM   13  O3  UNL     1      26.053   1.299  18.209  1.00  0.00    -0.310 OA
HETATM   14  C4  UNL     1      26.510   2.001  19.190  1.00  0.00     0.100 A
HETATM   15  C15 UNL     1      27.829   2.344  18.918  1.00  0.00     0.099 A
HETATM   16  C14 UNL     1      28.110   1.780  17.709  1.00  0.00     0.077 A
BRANCH  14  17
HETATM   17  C3  UNL     1      25.906   2.409  20.486  1.00  0.00     0.208 C
BRANCH  17  18
HETATM   18  S1  UNL     1      24.329   3.130  20.502  1.00  0.00     0.150 S
HETATM   19  O1  UNL     1      23.258   2.331  19.877  1.00  0.00    -0.228 OA
HETATM   20  O2  UNL     1      24.350   4.530  19.852  1.00  0.00    -0.228 OA
BRANCH  18  21
HETATM   21  C2  UNL     1      23.946   3.506  22.239  1.00  0.00     0.136 C
HETATM   22  C1  UNL     1      23.991   4.991  22.368  1.00  0.00     0.021 C
ENDBRANCH  18  21
ENDBRANCH  17  18
ENDBRANCH  14  17
BRANCH  15  23
HETATM   23  O5  UNL     1      28.719   3.109  19.679  1.00  0.00    -0.358 OA
ATOM     24  H5  UNL     1      28.922   4.035  19.616  1.00  0.00     0.217 HD
ENDBRANCH  15  23
ENDBRANCH   1  12
BRANCH   9  25
HETATM   25  N2  UNL     1      27.947   3.172  12.108  1.00  0.00    -0.287 N
ATOM     26  H2  UNL     1      28.781   3.254  11.528  1.00  0.00     0.188 HD
BRANCH  25  27
HETATM   27  N3  UNL     1      27.197   4.154  12.285  1.00  0.00    -0.249 N
HETATM   28  N4  UNL     1      26.981   5.201  12.957  1.00  0.00    -0.331 N
ATOM     29  H42 UNL     1      27.746   5.247  13.629  1.00  0.00     0.178 HD
ATOM     30  H41 UNL     1      26.368   6.003  13.102  1.00  0.00     0.178 HD
ATOM     31  H3  UNL     1      26.444   4.081  11.601  1.00  0.00     0.207 HD
ENDBRANCH  25  27
ENDBRANCH   9  25
TORSDOF 7
ENDMDL