MODEL 2
REMARK VINA RESULT: -7.858828503      8.387     11.486
REMARK  6 active torsions:
REMARK  status: ('A' for Active; 'I' for Inactive)
REMARK    1  A    between atoms: C2_2  and  O1_3
REMARK    2  A    between atoms: C2_2  and  C16_24
REMARK    3  A    between atoms: O1_3  and  C3_4
REMARK    4  A    between atoms: C5_7  and  O2_8
REMARK    5  A    between atoms: C8_13  and  C9_14
REMARK    6  A    between atoms: C9_14  and  C10_16
ROOT
HETATM    1  C3  UNL     1      27.186  -1.587  16.022  1.00  0.00     0.123 A
HETATM    2  C4  UNL     1      27.167  -2.973  15.997  1.00  0.00     0.183 A
HETATM    3  F1  UNL     1      27.209  -3.717  17.131  1.00  0.00    -0.200 F
HETATM    4  C5  UNL     1      27.100  -3.576  14.761  1.00  0.00     0.109 A
HETATM    5  C6  UNL     1      27.057  -2.843  13.602  1.00  0.00     0.078 A
HETATM    6  C7  UNL     1      27.078  -1.464  13.639  1.00  0.00     0.092 A
HETATM    7  O3  UNL     1      27.047  -0.546  12.704  1.00  0.00    -0.306 OA
HETATM    8  C8  UNL     1      27.087   0.662  13.189  1.00  0.00     0.128 A
HETATM    9  C14 UNL     1      27.150   0.518  14.569  1.00  0.00     0.058 A
HETATM   10  C15 UNL     1      27.144  -0.825  14.876  1.00  0.00     0.037 A
ENDROOT
BRANCH   8  11
HETATM   11  C9  UNL     1      27.067   1.900  12.405  1.00  0.00     0.218 C
HETATM   12  O4  UNL     1      26.262   2.057  11.458  1.00  0.00    -0.284 OA
BRANCH  11  13
HETATM   13  C10 UNL     1      28.041   2.971  12.771  1.00  0.00     0.049 A
HETATM   14  C11 UNL     1      27.805   3.908  13.700  1.00  0.00     0.025 A
HETATM   15  C12 UNL     1      28.793   4.818  13.951  1.00  0.00     0.052 A
HETATM   16  S1  UNL     1      30.029   4.349  12.887  1.00  0.00    -0.086 SA
HETATM   17  C13 UNL     1      29.268   3.012  12.149  1.00  0.00     0.101 A
HETATM   18  N1  UNL     1      29.776   2.137  11.117  1.00  0.00    -0.093 NA
ENDBRANCH  11  13
ENDBRANCH   8  11
BRANCH   1  19
HETATM   19  O1  UNL     1      27.250  -0.954  17.240  1.00  0.00    -0.341 OA
BRANCH  19  20
HETATM   20  C2  UNL     1      26.247  -0.099  17.740  1.00  0.00     0.139 C
HETATM   21  C1  UNL     1      24.986  -0.830  18.107  1.00  0.00     0.041 C
BRANCH  20  22
HETATM   22  C16 UNL     1      26.801   0.658  18.915  1.00  0.00     0.085 A
HETATM   23  C17 UNL     1      26.091   1.886  19.432  1.00  0.00     0.092 A
HETATM   24  S2  UNL     1      27.607   2.244  18.562  1.00  0.00    -0.160 SA
ENDBRANCH  20  22
ENDBRANCH  19  20
ENDBRANCH   1  19
BRANCH   4  25
HETATM   25  O2  UNL     1      27.078  -4.948  14.684  1.00  0.00    -0.357 OA
ATOM     26  H2  UNL     1      26.478  -5.369  14.080  1.00  0.00     0.217 HD
ENDBRANCH   4  25
TORSDOF 6
ENDMDL