MODEL 5
REMARK VINA RESULT: -7.553150360      2.746      4.210
REMARK  6 active torsions:
REMARK  status: ('A' for Active; 'I' for Inactive)
REMARK    1  A    between atoms: C2_2  and  N1_4
REMARK    2  A    between atoms: N1_4  and  C4_6
REMARK    3  A    between atoms: C5_7  and  N2_8
REMARK    4  A    between atoms: C6_11  and  O3_12
REMARK    5  A    between atoms: C8_16  and  C9_17
REMARK    6  A    between atoms: C15_24  and  N3_25
ROOT
HETATM    1  C4  UNL     1      26.887   0.003  17.217  1.00  0.00     0.099 A
HETATM    2  C5  UNL     1      27.864   0.954  17.510  1.00  0.00     0.166 A
HETATM    3  C6  UNL     1      27.771   1.805  18.577  1.00  0.00     0.124 A
HETATM    4  C7  UNL     1      26.681   1.754  19.425  1.00  0.00     0.082 A
HETATM    5 CL1  UNL     1      26.678   2.837  20.815  1.00  0.00    -0.080 Cl
HETATM    6  C8  UNL     1      25.702   0.840  19.175  1.00  0.00     0.026 A
HETATM    7  C15 UNL     1      25.818  -0.031  18.069  1.00  0.00     0.143 A
ENDROOT
BRANCH   6   8
HETATM    8  C9  UNL     1      24.506   0.799  19.994  1.00  0.00     0.048 C
HETATM    9  C10 UNL     1      23.563   1.693  20.060  1.00  0.00     0.047 C
HETATM   10  C11 UNL     1      23.461   2.963  19.327  1.00  0.00     0.065 C
HETATM   11  O4  UNL     1      22.492   1.423  20.943  1.00  0.00    -0.355 OA
HETATM   12  C12 UNL     1      23.068   4.119  20.237  1.00  0.00     0.009 C
HETATM   13  C13 UNL     1      22.148   3.694  21.355  1.00  0.00     0.027 C
HETATM   14  C14 UNL     1      21.449   2.398  20.937  1.00  0.00     0.175 C
ENDBRANCH   6   8
BRANCH   7  15
HETATM   15  N3  UNL     1      24.777  -0.990  17.886  1.00  0.00    -0.112 N
HETATM   16  O5  UNL     1      23.871  -0.737  17.071  1.00  0.00    -0.532 OA
HETATM   17  O6  UNL     1      24.764  -2.185  18.599  1.00  0.00    -0.532 OA
ENDBRANCH   7  15
BRANCH   3  18
HETATM   18  O3  UNL     1      28.779   2.738  18.821  1.00  0.00    -0.357 OA
ATOM     19  H3  UNL     1      29.467   2.547  19.448  1.00  0.00     0.218 HD
ENDBRANCH   3  18
BRANCH   1  20
HETATM   20  N1  UNL     1      27.107  -0.821  16.110  1.00  0.00    -0.382 N
ATOM     21  H1  UNL     1      27.832  -1.526  16.241  1.00  0.00     0.160 HD
BRANCH  20  22
HETATM   22  C2  UNL     1      26.489  -0.838  14.836  1.00  0.00     0.073 C
HETATM   23  C1  UNL     1      27.166  -1.709  13.800  1.00  0.00     0.031 C
HETATM   24  C3  UNL     1      26.458   0.587  14.275  1.00  0.00     0.031 C
ENDBRANCH  20  22
ENDBRANCH   1  20
BRANCH   2  25
HETATM   25  N2  UNL     1      29.013   1.036  16.709  1.00  0.00    -0.110 N
HETATM   26  O1  UNL     1      29.693   0.047  16.481  1.00  0.00    -0.532 OA
HETATM   27  O2  UNL     1      29.361   2.234  16.163  1.00  0.00    -0.532 OA
ENDBRANCH   2  25
TORSDOF 6
ENDMDL