MODEL 4
REMARK VINA RESULT: -7.171545818      5.075      6.853
REMARK  7 active torsions:
REMARK  status: ('A' for Active; 'I' for Inactive)
REMARK    1  A    between atoms: C2_2  and  C3_4
REMARK    2  A    between atoms: C6_9  and  C7_10
REMARK    3  A    between atoms: C9_14  and  C10_15
REMARK    4  A    between atoms: C10_15  and  C11_17
REMARK    5  A    between atoms: C11_17  and  C12_18
REMARK    6  A    between atoms: C15_21  and  O5_22
REMARK    7  A    between atoms: C16_24  and  O6_25
ROOT
HETATM    1  C7  UNL     1      27.821   1.123  14.578  1.00  0.00     0.133 A
HETATM    2  O2  UNL     1      28.647   0.536  15.410  1.00  0.00    -0.270 OA
HETATM    3  C8  UNL     1      28.411  -0.586  15.995  1.00  0.00     0.305 A
HETATM    4  O3  UNL     1      29.235  -1.134  16.800  1.00  0.00    -0.259 OA
HETATM    5  C9  UNL     1      27.219  -1.263  15.769  1.00  0.00     0.121 A
HETATM    6  C15 UNL     1      26.291  -0.701  14.899  1.00  0.00     0.121 A
HETATM    7  C16 UNL     1      26.626   0.519  14.307  1.00  0.00     0.136 A
ENDROOT
BRANCH   1   8
HETATM    8  C6  UNL     1      28.174   2.417  13.964  1.00  0.00     0.057 A
HETATM    9  C3  UNL     1      28.468   2.815  12.702  1.00  0.00     0.031 A
HETATM   10  C4  UNL     1      28.518   4.164  12.478  1.00  0.00     0.048 A
HETATM   11  C5  UNL     1      28.284   4.993  13.522  1.00  0.00     0.076 A
HETATM   12 CL1  UNL     1      28.283   6.767  13.536  1.00  0.00    -0.076 Cl
HETATM   13  S1  UNL     1      27.993   3.943  14.804  1.00  0.00    -0.074 SA
BRANCH   9  14
HETATM   14  C2  UNL     1      28.958   1.890  11.640  1.00  0.00     0.157 C
HETATM   15  C1  UNL     1      28.190   0.755  11.133  1.00  0.00     0.097 C
HETATM   16  O1  UNL     1      30.097   2.067  11.146  1.00  0.00    -0.293 OA
ENDBRANCH   9  14
ENDBRANCH   1   8
BRANCH   7  17
HETATM   17  O6  UNL     1      25.748   1.130  13.452  1.00  0.00    -0.356 OA
ATOM     18  H6  UNL     1      25.045   0.620  13.067  1.00  0.00     0.218 HD
ENDBRANCH   7  17
BRANCH   6  19
HETATM   19  O5  UNL     1      25.103  -1.350  14.657  1.00  0.00    -0.357 OA
ATOM     20  H5  UNL     1      24.738  -1.354  13.780  1.00  0.00     0.218 HD
ENDBRANCH   6  19
BRANCH   5  21
HETATM   21  C10 UNL     1      26.979  -2.522  16.434  1.00  0.00     0.168 C
HETATM   22  O4  UNL     1      26.881  -3.584  15.731  1.00  0.00    -0.292 OA
BRANCH  21  23
HETATM   23  C11 UNL     1      26.838  -2.686  17.876  1.00  0.00     0.088 C
BRANCH  23  24
HETATM   24  C12 UNL     1      25.693  -1.852  18.438  1.00  0.00    -0.015 C
HETATM   25  C13 UNL     1      24.856  -2.712  19.344  1.00  0.00     0.010 C
HETATM   26  C14 UNL     1      26.304  -0.748  19.298  1.00  0.00     0.010 C
ENDBRANCH  23  24
ENDBRANCH  21  23
ENDBRANCH   5  21
TORSDOF 7
ENDMDL