MODEL 5
REMARK VINA RESULT: -7.805031352      3.200      4.146
REMARK  7 active torsions:
REMARK  status: ('A' for Active; 'I' for Inactive)
REMARK    1  A    between atoms: C2_2  and  C3_4
REMARK    2  A    between atoms: C3_4  and  O5_15
REMARK    3  A    between atoms: C4_5  and  C5_6
REMARK    4  A    between atoms: C7_9  and  O3_10
REMARK    5  A    between atoms: C8_12  and  O4_13
REMARK    6  A    between atoms: O5_15  and  C9_16
REMARK    7  A    between atoms: C9_16  and  C11_18
ROOT
HETATM    1  C3  UNL     1      22.436   3.168  22.281  1.00  0.00     0.116 C
HETATM    2  C4  UNL     1      23.319   3.002  23.237  1.00  0.00     0.057 C
ENDROOT
BRANCH   1   3
HETATM    3  C2  UNL     1      21.955   2.102  21.471  1.00  0.00     0.178 C
HETATM    4  C1  UNL     1      20.582   1.515  21.639  1.00  0.00     0.099 C
HETATM    5  O1  UNL     1      22.603   1.526  20.529  1.00  0.00    -0.291 OA
ENDBRANCH   1   3
BRANCH   1   6
HETATM    6  O5  UNL     1      21.943   4.478  22.049  1.00  0.00    -0.338 OA
BRANCH   6   7
HETATM    7  C9  UNL     1      22.807   5.515  21.784  1.00  0.00     0.159 C
HETATM    8  C10 UNL     1      23.714   5.062  20.625  1.00  0.00     0.045 C
BRANCH   7   9
HETATM    9  C11 UNL     1      22.041   6.703  21.262  1.00  0.00    -0.007 A
HETATM   10  C12 UNL     1      22.182   7.072  19.946  1.00  0.00     0.023 A
HETATM   11  C13 UNL     1      21.508   8.167  19.395  1.00  0.00    -0.000 A
HETATM   12  C14 UNL     1      20.670   8.914  20.179  1.00  0.00     0.081 A
HETATM   13  C18 UNL     1      21.699   8.541  17.985  1.00  0.00     0.212 C
HETATM   14  C15 UNL     1      20.528   8.551  21.484  1.00  0.00     0.061 A
HETATM   15  O6  UNL     1      20.031   9.990  19.558  1.00  0.00    -0.326 OA
HETATM   16  C16 UNL     1      21.196   7.461  22.041  1.00  0.00     0.045 A
HETATM   17 CL1  UNL     1      20.943   7.061  23.706  1.00  0.00    -0.084 Cl
HETATM   18  C17 UNL     1      19.727   9.776  18.167  1.00  0.00     0.345 C
HETATM   19  O7  UNL     1      20.919   9.562  17.537  1.00  0.00    -0.362 OA
ENDBRANCH   7   9
ENDBRANCH   6   7
ENDBRANCH   1   6
BRANCH   2  20
HETATM   20  C5  UNL     1      24.000   1.834  23.700  1.00  0.00     0.027 A
HETATM   21  C6  UNL     1      23.815   1.090  24.858  1.00  0.00     0.159 A
HETATM   22  O2  UNL     1      24.656   0.097  24.920  1.00  0.00    -0.297 OA
HETATM   23  C7  UNL     1      25.417   0.117  23.857  1.00  0.00     0.218 A
HETATM   24  C8  UNL     1      25.064   1.164  23.064  1.00  0.00     0.136 A
BRANCH  23  25
HETATM   25  O3  UNL     1      26.436  -0.809  23.592  1.00  0.00    -0.339 OA
ATOM     26  H3  UNL     1      27.352  -0.677  23.807  1.00  0.00     0.220 HD
ENDBRANCH  23  25
BRANCH  24  27
HETATM   27  O4  UNL     1      25.597   1.551  21.862  1.00  0.00    -0.356 OA
ATOM     28  H4  UNL     1      26.341   2.137  21.778  1.00  0.00     0.218 HD
ENDBRANCH  24  27
ENDBRANCH   2  20
TORSDOF 7
ENDMDL