MODEL 2
REMARK VINA RESULT: -7.545415489      1.173      1.855
REMARK  6 active torsions:
REMARK  status: ('A' for Active; 'I' for Inactive)
REMARK    1  A    between atoms: C3_3  and  C4_4
REMARK    2  A    between atoms: C4_4  and  N1_5
REMARK       I    between atoms: N1_5  and  C5_7
REMARK    3  A    between atoms: C5_7  and  C6_9
REMARK       I    between atoms: C6_9  and  N2_11
REMARK       I    between atoms: N2_11  and  C7_13
REMARK    4  A    between atoms: C7_13  and  O4_15
REMARK    5  A    between atoms: O4_15  and  C8_16
REMARK    6  A    between atoms: N3_23  and  N4_24
ROOT
HETATM    1  N1  UNL     1      21.137   8.088  22.283  1.00  0.00    -0.350 N
ATOM      2  H1  UNL     1      20.704   8.832  21.737  1.00  0.00     0.163 HD
HETATM    3  C5  UNL     1      21.889   7.063  21.639  1.00  0.00     0.309 C
HETATM    4  O1  UNL     1      22.438   6.122  22.233  1.00  0.00    -0.262 OA
ENDROOT
BRANCH   1   5
HETATM    5  C4  UNL     1      20.998   8.057  23.714  1.00  0.00     0.157 C
BRANCH   5   6
HETATM    6  C3  UNL     1      19.666   7.518  24.111  1.00  0.00     0.176 C
HETATM    7  C2  UNL     1      19.668   6.498  25.194  1.00  0.00     0.147 C
HETATM    8  C1  UNL     1      20.893   5.632  25.277  1.00  0.00     0.037 C
HETATM    9  N3  UNL     1      19.498   7.197  26.441  1.00  0.00    -0.169 N
HETATM   10  C12 UNL     1      19.010   8.474  26.102  1.00  0.00     0.387 C
HETATM   11  O5  UNL     1      18.978   8.623  24.727  1.00  0.00    -0.293 OA
HETATM   12  O6  UNL     1      18.636   9.402  26.886  1.00  0.00    -0.236 OA
BRANCH   9  13
HETATM   13  N4  UNL     1      19.762   6.705  27.706  1.00  0.00    -0.032 N
HETATM   14  O7  UNL     1      18.991   5.870  28.216  1.00  0.00    -0.516 OA
HETATM   15  O8  UNL     1      20.861   7.128  28.396  1.00  0.00    -0.516 OA
ENDBRANCH   9  13
ENDBRANCH   5   6
ENDBRANCH   1   5
BRANCH   3  16
HETATM   16  C6  UNL     1      21.995   7.171  20.166  1.00  0.00     0.317 C
HETATM   17  O2  UNL     1      22.659   6.348  19.489  1.00  0.00    -0.262 OA
HETATM   18  N2  UNL     1      21.319   8.239  19.543  1.00  0.00    -0.265 N
HETATM   19  C7  UNL     1      21.389   8.380  18.145  1.00  0.00     0.368 C
ATOM     20  H2  UNL     1      20.784   8.904  20.101  1.00  0.00     0.174 HD
HETATM   21  O3  UNL     1      20.783   9.332  17.595  1.00  0.00    -0.238 OA
BRANCH  19  22
HETATM   22  O4  UNL     1      22.101   7.515  17.337  1.00  0.00    -0.294 OA
BRANCH  22  23
HETATM   23  C8  UNL     1      23.079   7.989  16.421  1.00  0.00     0.061 C
HETATM   24  C9  UNL     1      23.963   9.043  17.068  1.00  0.00     0.046 C
HETATM   25  C10 UNL     1      22.449   8.519  15.150  1.00  0.00     0.046 C
HETATM   26  C11 UNL     1      23.981   6.838  16.044  1.00  0.00     0.046 C
ENDBRANCH  22  23
ENDBRANCH  19  22
ENDBRANCH   3  16
TORSDOF 6
ENDMDL