MODEL 2
REMARK VINA RESULT: -8.034018627      0.865      1.028
REMARK  6 active torsions:
REMARK  status: ('A' for Active; 'I' for Inactive)
REMARK    1  A    between atoms: C5_6  and  C6_7
REMARK    2  A    between atoms: C7_8  and  C8_9
REMARK    3  A    between atoms: C10_12  and  O3_13
REMARK    4  A    between atoms: C12_17  and  O5_18
REMARK    5  A    between atoms: O5_18  and  C13_19
REMARK    6  A    between atoms: C16_23  and  O7_24
ROOT
HETATM    1  C8  UNL     1      22.022   5.152  20.997  1.00  0.00     0.096 C
HETATM    2  C9  UNL     1      21.783   5.723  22.360  1.00  0.00     0.166 C
HETATM    3  O2  UNL     1      21.670   6.866  22.715  1.00  0.00    -0.294 OA
HETATM    4  C10 UNL     1      21.705   4.543  23.265  1.00  0.00     0.218 C
HETATM    5  C11 UNL     1      22.753   3.604  22.705  1.00  0.00     0.177 C
HETATM    6  O4  UNL     1      22.317   2.304  22.950  1.00  0.00    -0.330 OA
HETATM    7  C12 UNL     1      23.024   1.399  22.164  1.00  0.00     0.416 C
HETATM    8  O6  UNL     1      22.776   1.542  20.815  1.00  0.00    -0.308 OA
HETATM    9  C16 UNL     1      22.259   2.762  20.457  1.00  0.00     0.274 C
HETATM   10  C17 UNL     1      22.840   3.917  21.238  1.00  0.00     0.049 C
HETATM   11  C18 UNL     1      24.262   4.107  20.771  1.00  0.00     0.024 C
ENDROOT
BRANCH   1  12
HETATM   12  C7  UNL     1      22.777   6.136  20.196  1.00  0.00    -0.017 C
HETATM   13  C6  UNL     1      22.206   6.881  19.260  1.00  0.00    -0.019 C
BRANCH  13  14
HETATM   14  C5  UNL     1      22.956   7.858  18.463  1.00  0.00     0.062 C
HETATM   15  C2  UNL     1      22.172   8.473  17.371  1.00  0.00    -0.056 C
HETATM   16  C1  UNL     1      21.032   9.114  17.501  1.00  0.00     0.017 C
HETATM   17  C3  UNL     1      22.908   8.234  16.114  1.00  0.00     0.202 C
HETATM   18  O1  UNL     1      23.659   7.100  16.383  1.00  0.00    -0.386 OA
HETATM   19  C4  UNL     1      24.115   7.253  17.700  1.00  0.00     0.180 C
ENDBRANCH  13  14
ENDBRANCH   1  12
BRANCH   4  20
HETATM   20  O3  UNL     1      20.463   3.911  23.183  1.00  0.00    -0.385 OA
ATOM     21  H3  UNL     1      20.079   3.777  24.042  1.00  0.00     0.210 HD
ENDBRANCH   4  20
BRANCH   9  22
HETATM   22  O7  UNL     1      22.593   2.983  19.112  1.00  0.00    -0.370 OA
ATOM     23  H7  UNL     1      21.977   3.618  18.766  1.00  0.00     0.212 HD
ENDBRANCH   9  22
BRANCH   7  24
HETATM   24  O5  UNL     1      22.728   0.110  22.544  1.00  0.00    -0.334 OA
BRANCH  24  25
HETATM   25  C13 UNL     1      21.574   0.021  23.314  1.00  0.00     0.118 C
HETATM   26  C14 UNL     1      21.782  -0.814  24.556  1.00  0.00     0.039 C
HETATM   27  C15 UNL     1      20.520  -0.648  22.454  1.00  0.00     0.039 C
ENDBRANCH  24  25
ENDBRANCH   7  24
TORSDOF 6
ENDMDL