MODEL 2
REMARK VINA RESULT: -6.651908215      0.797      1.160
REMARK  9 active torsions:
REMARK  status: ('A' for Active; 'I' for Inactive)
REMARK    1  A    between atoms: C2_2  and  O2_4
REMARK    2  A    between atoms: O2_4  and  C3_5
REMARK    3  A    between atoms: C4_6  and  O3_7
REMARK    4  A    between atoms: C6_10  and  O4_11
REMARK    5  A    between atoms: C7_13  and  O5_14
REMARK    6  A    between atoms: O5_14  and  C8_15
REMARK    7  A    between atoms: C12_19  and  C13_20
REMARK    8  A    between atoms: C13_20  and  O6_21
REMARK    9  A    between atoms: O6_21  and  C14_22
REMARK       I    between atoms: C14_22  and  N1_24
ROOT
HETATM    1  C3  UNL     1      21.306   4.785  23.033  1.00  0.00     0.169 C
HETATM    2  C4  UNL     1      21.937   3.628  23.742  1.00  0.00     0.150 C
HETATM    3  C5  UNL     1      21.478   2.362  22.999  1.00  0.00     0.068 C
HETATM    4  C6  UNL     1      21.336   2.595  21.542  1.00  0.00     0.150 C
HETATM    5  C7  UNL     1      22.430   3.641  21.114  1.00  0.00     0.160 C
HETATM    6  C12 UNL     1      21.798   4.915  21.581  1.00  0.00     0.074 C
ENDROOT
BRANCH   6   7
HETATM    7  C13 UNL     1      22.586   6.159  21.390  1.00  0.00     0.190 C
BRANCH   7   8
HETATM    8  O6  UNL     1      21.844   7.281  21.031  1.00  0.00    -0.303 OA
BRANCH   8   9
HETATM    9  C14 UNL     1      21.935   7.777  19.741  1.00  0.00     0.362 C
HETATM   10  O7  UNL     1      22.948   7.375  19.067  1.00  0.00    -0.238 OA
HETATM   11  N1  UNL     1      20.997   8.668  19.173  1.00  0.00    -0.337 N
HETATM   12  C15 UNL     1      21.190   9.118  17.825  1.00  0.00     0.154 C
HETATM   13  C16 UNL     1      19.866   9.116  19.931  1.00  0.00     0.154 C
ENDBRANCH   8   9
ENDBRANCH   7   8
ENDBRANCH   6   7
BRANCH   1  14
HETATM   14  O2  UNL     1      21.380   6.004  23.674  1.00  0.00    -0.313 OA
BRANCH  14  15
HETATM   15  C2  UNL     1      20.356   6.696  24.273  1.00  0.00     0.255 C
HETATM   16  C1  UNL     1      20.402   8.176  24.259  1.00  0.00     0.126 C
HETATM   17  O1  UNL     1      19.463   6.008  24.783  1.00  0.00    -0.266 OA
ENDBRANCH  14  15
ENDBRANCH   1  14
BRANCH   5  18
HETATM   18  O5  UNL     1      22.576   3.618  19.785  1.00  0.00    -0.373 OA
BRANCH  18  19
HETATM   19  C8  UNL     1      23.702   3.376  19.136  1.00  0.00     0.051 C
HETATM   20  C9  UNL     1      23.578   2.266  18.129  1.00  0.00     0.045 C
HETATM   21  C10 UNL     1      24.401   4.509  18.453  1.00  0.00     0.045 C
HETATM   22  C11 UNL     1      24.717   2.858  20.178  1.00  0.00     0.045 C
ENDBRANCH  18  19
ENDBRANCH   5  18
BRANCH   2  23
HETATM   23  O3  UNL     1      21.343   3.531  24.995  1.00  0.00    -0.393 OA
ATOM     24  H3  UNL     1      20.487   3.137  24.876  1.00  0.00     0.210 HD
ENDBRANCH   2  23
BRANCH   4  25
HETATM   25  O4  UNL     1      21.463   1.448  20.812  1.00  0.00    -0.393 OA
ATOM     26  H4  UNL     1      22.369   1.222  20.640  1.00  0.00     0.210 HD
ENDBRANCH   4  25
TORSDOF 9
ENDMDL