MODEL 5
REMARK VINA RESULT: -6.386090526      3.148      5.667
REMARK  6 active torsions:
REMARK  status: ('A' for Active; 'I' for Inactive)
REMARK    1  A    between atoms: C2_2  and  C3_3
REMARK    2  A    between atoms: C8_10  and  O3_11
REMARK    3  A    between atoms: C10_14  and  O5_15
REMARK    4  A    between atoms: C16_21  and  O6_22
REMARK    5  A    between atoms: C17_24  and  C18_25
REMARK    6  A    between atoms: C18_25  and  O7_26
ROOT
HETATM    1  C3  UNL     1      23.306   2.666  20.687  1.00  0.00     0.083 C
HETATM    2  C4  UNL     1      22.416   3.436  19.710  1.00  0.00     0.051 C
HETATM    3  O1  UNL     1      22.578   2.348  21.833  1.00  0.00    -0.369 OA
HETATM    4  C5  UNL     1      21.619   1.384  21.580  1.00  0.00     0.150 C
HETATM    5  C6  UNL     1      20.771   1.149  22.780  1.00  0.00     0.129 C
HETATM    6  C7  UNL     1      20.253   2.344  23.440  1.00  0.00     0.193 C
HETATM    7  O2  UNL     1      20.135   3.386  22.831  1.00  0.00    -0.292 OA
HETATM    8  C8  UNL     1      19.881   2.225  24.873  1.00  0.00     0.339 C
HETATM    9  O4  UNL     1      20.978   1.761  25.589  1.00  0.00    -0.291 OA
HETATM   10  C10 UNL     1      21.828   0.831  24.988  1.00  0.00     0.190 C
HETATM   11  C12 UNL     1      21.776   0.515  23.710  1.00  0.00     0.020 C
HETATM   12  C13 UNL     1      22.510  -0.392  22.820  1.00  0.00    -0.046 C
HETATM   13  C14 UNL     1      23.230  -1.438  23.219  1.00  0.00     0.020 C
HETATM   14  C15 UNL     1      22.317   0.051  21.413  1.00  0.00     0.078 C
HETATM   15  C16 UNL     1      23.670   0.188  20.769  1.00  0.00     0.138 C
HETATM   16  C17 UNL     1      23.800   1.459  19.960  1.00  0.00     0.077 C
ENDROOT
BRANCH   1  17
HETATM   17  C2  UNL     1      24.383   3.599  21.112  1.00  0.00     0.001 C
HETATM   18  C1  UNL     1      24.207   4.534  22.039  1.00  0.00     0.010 C
ENDBRANCH   1  17
BRANCH  16  19
HETATM   19  C18 UNL     1      25.271   1.583  19.578  1.00  0.00     0.174 C
BRANCH  19  20
HETATM   20  O7  UNL     1      26.033   0.630  20.248  1.00  0.00    -0.400 OA
ATOM     21  H7  UNL     1      26.957   0.745  20.055  1.00  0.00     0.209 HD
ENDBRANCH  19  20
ENDBRANCH  16  19
BRANCH  15  22
HETATM   22  O6  UNL     1      23.824  -0.882  19.869  1.00  0.00    -0.394 OA
ATOM     23  H6  UNL     1      24.746  -1.110  19.847  1.00  0.00     0.210 HD
ENDBRANCH  15  22
BRANCH   8  24
HETATM   24  O3  UNL     1      19.309   3.373  25.379  1.00  0.00    -0.359 OA
HETATM   25  C9  UNL     1      19.434   3.481  26.761  1.00  0.00     0.205 C
ENDBRANCH   8  24
BRANCH  10  26
HETATM   26  O5  UNL     1      22.807   0.174  25.751  1.00  0.00    -0.335 OA
HETATM   27  C11 UNL     1      23.978   0.843  26.180  1.00  0.00     0.212 C
ENDBRANCH  10  26
TORSDOF 6
ENDMDL