MODEL 1
REMARK VINA RESULT: -6.898656768      0.000      0.000
REMARK  8 active torsions:
REMARK  status: ('A' for Active; 'I' for Inactive)
REMARK    1  A    between atoms: C2_2  and  O2_4
REMARK    2  A    between atoms: O2_4  and  C3_5
REMARK    3  A    between atoms: C6_8  and  O3_9
REMARK    4  A    between atoms: O3_9  and  C7_10
REMARK    5  A    between atoms: C7_10  and  C8_12
REMARK    6  A    between atoms: C10_15  and  N1_16
REMARK    7  A    between atoms: C14_23  and  C15_24
REMARK    8  A    between atoms: C15_24  and  O6_25
ROOT
HETATM    1  C3  UNL     1      21.993   2.463  21.455  1.00  0.00     0.144 C
HETATM    2  C4  UNL     1      22.049   3.206  20.165  1.00  0.00     0.041 C
HETATM    3  C5  UNL     1      23.526   3.255  19.824  1.00  0.00     0.026 C
HETATM    4  C6  UNL     1      23.826   2.054  18.985  1.00  0.00     0.137 C
HETATM    5  C11 UNL     1      23.944   0.775  19.724  1.00  0.00     0.038 C
HETATM    6  C12 UNL     1      23.945   0.856  21.209  1.00  0.00    -0.002 C
HETATM    7  C13 UNL     1      23.435  -0.440  21.814  1.00  0.00     0.011 C
HETATM    8  C14 UNL     1      23.375   2.087  21.815  1.00  0.00     0.018 C
HETATM    9  C16 UNL     1      24.160   3.235  21.194  1.00  0.00    -0.029 C
HETATM   10  C17 UNL     1      25.640   2.973  21.160  1.00  0.00     0.016 C
HETATM   11  C18 UNL     1      23.922   4.549  21.850  1.00  0.00     0.016 C
ENDROOT
BRANCH   4  12
HETATM   12  O3  UNL     1      24.927   2.282  18.103  1.00  0.00    -0.314 OA
BRANCH  12  13
HETATM   13  C7  UNL     1      25.938   1.394  17.877  1.00  0.00     0.290 C
HETATM   14  O4  UNL     1      26.871   1.358  18.751  1.00  0.00    -0.262 OA
BRANCH  13  15
HETATM   15  C8  UNL     1      26.034   0.485  16.716  1.00  0.00     0.253 C
HETATM   16  O5  UNL     1      26.788  -0.641  16.955  1.00  0.00    -0.371 OA
HETATM   17  C9  UNL     1      25.626  -1.427  17.122  1.00  0.00     0.204 C
HETATM   18  C10 UNL     1      24.829  -0.347  16.425  1.00  0.00     0.245 C
BRANCH  18  19
HETATM   19  N1  UNL     1      24.773  -0.649  14.990  1.00  0.00    -0.070 N
ATOM     20  H13 UNL     1      25.650  -0.431  14.516  1.00  0.00     0.274 HD
ATOM     21  H12 UNL     1      24.755  -1.653  14.809  1.00  0.00     0.274 HD
ATOM     22  H11 UNL     1      23.978  -0.168  14.568  1.00  0.00     0.274 HD
ENDBRANCH  18  19
ENDBRANCH  13  15
ENDBRANCH  12  13
ENDBRANCH   4  12
BRANCH   1  23
HETATM   23  O2  UNL     1      20.988   1.528  21.605  1.00  0.00    -0.315 OA
BRANCH  23  24
HETATM   24  C2  UNL     1      19.779   1.662  22.238  1.00  0.00     0.255 C
HETATM   25  C1  UNL     1      18.665   0.721  22.059  1.00  0.00     0.126 C
HETATM   26  O1  UNL     1      19.746   2.673  22.977  1.00  0.00    -0.266 OA
ENDBRANCH  23  24
ENDBRANCH   1  23
BRANCH   8  27
HETATM   27  C15 UNL     1      23.567   2.008  23.293  1.00  0.00     0.177 C
BRANCH  27  28
HETATM   28  O6  UNL     1      22.504   2.570  23.992  1.00  0.00    -0.400 OA
ATOM     29  H6  UNL     1      22.582   2.440  24.930  1.00  0.00     0.209 HD
ENDBRANCH  27  28
ENDBRANCH   8  27
TORSDOF 8
ENDMDL