MODEL 1
REMARK VINA RESULT: -7.411721551      0.000      0.000
REMARK  8 active torsions:
REMARK  status: ('A' for Active; 'I' for Inactive)
REMARK    1  A    between atoms: O1_2  and  C2_3
REMARK    2  A    between atoms: C2_3  and  C3_5
REMARK    3  A    between atoms: C5_7  and  O3_8
REMARK    4  A    between atoms: C6_10  and  C7_11
REMARK    5  A    between atoms: C8_12  and  C9_13
REMARK    6  A    between atoms: C11_15  and  O4_16
REMARK    7  A    between atoms: C15_22  and  O6_23
REMARK    8  A    between atoms: O6_23  and  C16_24
ROOT
HETATM    1  C9  UNL     1      24.500   2.924  19.788  1.00  0.00     0.033 C
HETATM    2  C10 UNL     1      24.539   3.408  18.345  1.00  0.00     0.025 C
HETATM    3  C11 UNL     1      25.885   2.507  20.153  1.00  0.00     0.133 C
HETATM    4  C12 UNL     1      26.342   1.459  19.159  1.00  0.00     0.040 C
HETATM    5  C13 UNL     1      25.423   0.279  19.106  1.00  0.00     0.083 C
HETATM    6  C14 UNL     1      23.999   0.658  19.128  1.00  0.00     0.157 C
HETATM    7  O5  UNL     1      23.216  -0.048  18.504  1.00  0.00    -0.295 OA
HETATM    8  C15 UNL     1      23.485   1.823  19.850  1.00  0.00     0.215 C
ENDROOT
BRANCH   1   9
HETATM    9  C8  UNL     1      24.066   4.129  20.597  1.00  0.00    -0.015 C
HETATM   10  C7  UNL     1      23.460   5.146  20.015  1.00  0.00    -0.022 C
BRANCH  10  11
HETATM   11  C6  UNL     1      23.019   6.336  20.752  1.00  0.00     0.045 C
HETATM   12  C5  UNL     1      21.971   7.120  19.981  1.00  0.00     0.149 C
HETATM   13  C4  UNL     1      21.299   7.909  21.009  1.00  0.00     0.018 C
HETATM   14  C3  UNL     1      21.443   7.315  22.179  1.00  0.00     0.017 C
HETATM   15  C18 UNL     1      22.251   6.043  22.023  1.00  0.00     0.056 C
BRANCH  12  16
HETATM   16  O3  UNL     1      22.588   7.900  19.005  1.00  0.00    -0.391 OA
ATOM     17  H3  UNL     1      23.067   7.388  18.363  1.00  0.00     0.210 HD
ENDBRANCH  12  16
BRANCH  14  18
HETATM   18  C2  UNL     1      20.915   7.796  23.449  1.00  0.00     0.288 C
HETATM   19  O2  UNL     1      20.708   9.012  23.674  1.00  0.00    -0.260 OA
BRANCH  18  20
HETATM   20  O1  UNL     1      20.632   6.882  24.440  1.00  0.00    -0.323 OA
HETATM   21  C1  UNL     1      19.536   7.011  25.328  1.00  0.00     0.213 C
ENDBRANCH  18  20
ENDBRANCH  14  18
ENDBRANCH  10  11
ENDBRANCH   1   9
BRANCH   3  22
HETATM   22  O4  UNL     1      26.034   2.096  21.462  1.00  0.00    -0.394 OA
ATOM     23  H4  UNL     1      26.674   2.590  21.961  1.00  0.00     0.210 HD
ENDBRANCH   3  22
BRANCH   8  24
HETATM   24  O6  UNL     1      23.098   1.476  21.144  1.00  0.00    -0.307 OA
BRANCH  24  25
HETATM   25  C16 UNL     1      21.758   1.400  21.501  1.00  0.00     0.255 C
HETATM   26  C17 UNL     1      20.942   2.592  21.843  1.00  0.00     0.126 C
HETATM   27  O7  UNL     1      21.251   0.244  21.521  1.00  0.00    -0.266 OA
ENDBRANCH  24  25
ENDBRANCH   8  24
TORSDOF 8
ENDMDL