MODEL 5
REMARK VINA RESULT: -5.390511471      4.530      7.361
REMARK  10 active torsions:
REMARK  status: ('A' for Active; 'I' for Inactive)
REMARK    1  A    between atoms: C2_2  and  S1_3
REMARK    2  A    between atoms: S1_3  and  C3_4
REMARK    3  A    between atoms: C3_4  and  C4_6
REMARK    4  A    between atoms: C5_7  and  S2_8
REMARK    5  A    between atoms: C7_10  and  C8_11
REMARK    6  A    between atoms: C8_11  and  O3_13
REMARK    7  A    between atoms: C10_15  and  N1_16
REMARK    8  A    between atoms: N1_16  and  N2_17
REMARK    9  A    between atoms: C11_20  and  N3_21
REMARK   10  A    between atoms: C11_20  and  N4_25
ROOT
HETATM    1  C4  UNL     1      22.785   3.079  20.412  1.00  0.00     0.025 C
HETATM    2  C5  UNL     1      22.088   2.190  21.220  1.00  0.00     0.031 C
HETATM    3  C7  UNL     1      21.073   2.811  22.075  1.00  0.00     0.100 C
HETATM    4  C10 UNL     1      21.617   3.989  22.808  1.00  0.00     0.190 C
HETATM    5  C11 UNL     1      22.501   4.882  22.025  1.00  0.00     0.346 C
HETATM    6  C12 UNL     1      22.437   4.477  20.533  1.00  0.00     0.093 C
HETATM    7  C13 UNL     1      23.237   5.483  19.787  1.00  0.00     0.020 C
ENDROOT
BRANCH   5   8
HETATM    8  N3  UNL     1      21.990   6.218  22.117  1.00  0.00    -0.037 N
ATOM      9  H33 UNL     1      21.053   6.307  21.725  1.00  0.00     0.277 HD
ATOM     10  H32 UNL     1      21.766   6.487  23.075  1.00  0.00     0.277 HD
ATOM     11  H31 UNL     1      22.661   6.849  21.679  1.00  0.00     0.277 HD
ENDBRANCH   5   8
BRANCH   5  12
HETATM   12  N4  UNL     1      23.836   4.742  22.542  1.00  0.00    -0.037 N
ATOM     13  H43 UNL     1      23.922   5.062  23.507  1.00  0.00     0.277 HD
ATOM     14  H42 UNL     1      24.100   3.769  22.699  1.00  0.00     0.277 HD
ATOM     15  H41 UNL     1      24.469   5.226  21.906  1.00  0.00     0.277 HD
ENDBRANCH   5  12
BRANCH   4  16
HETATM   16  N1  UNL     1      21.363   4.241  23.996  1.00  0.00    -0.332 NA
BRANCH  16  17
HETATM   17  N2  UNL     1      21.356   4.261  25.252  1.00  0.00    -0.280 N
ATOM     18  H22 UNL     1      22.273   4.703  25.319  1.00  0.00     0.191 HD
ATOM     19  H21 UNL     1      21.099   4.156  26.234  1.00  0.00     0.191 HD
ENDBRANCH  16  17
ENDBRANCH   4  16
BRANCH   3  20
HETATM   20  C8  UNL     1      20.201   1.997  22.878  1.00  0.00     0.297 C
HETATM   21  O2  UNL     1      20.678   1.351  23.869  1.00  0.00    -0.259 OA
BRANCH  20  22
HETATM   22  O3  UNL     1      18.827   1.815  22.715  1.00  0.00    -0.322 OA
HETATM   23  C9  UNL     1      18.292   0.750  21.912  1.00  0.00     0.213 C
ENDBRANCH  20  22
ENDBRANCH   3  20
BRANCH   1  24
HETATM   24  C3  UNL     1      23.804   2.549  19.546  1.00  0.00     0.217 C
HETATM   25  O1  UNL     1      23.520   2.192  18.337  1.00  0.00    -0.280 OA
BRANCH  24  26
HETATM   26  S1  UNL     1      25.495   2.328  19.997  1.00  0.00    -0.088 SA
BRANCH  26  27
HETATM   27  C2  UNL     1      26.367   1.160  18.958  1.00  0.00     0.078 C
HETATM   28  C1  UNL     1      25.938  -0.248  19.266  1.00  0.00     0.016 C
ENDBRANCH  26  27
ENDBRANCH  24  26
ENDBRANCH   1  24
BRANCH   2  29
HETATM   29  S2  UNL     1      22.586   0.530  21.044  1.00  0.00    -0.133 SA
HETATM   30  C6  UNL     1      23.595  -0.109  22.348  1.00  0.00     0.095 C
ENDBRANCH   2  29
TORSDOF 10
ENDMDL