MODEL 4
REMARK VINA RESULT: -7.255186871      1.928      5.042
REMARK  7 active torsions:
REMARK  status: ('A' for Active; 'I' for Inactive)
REMARK    1  A    between atoms: C2_2  and  C3_3
REMARK    2  A    between atoms: C3_3  and  C4_4
REMARK    3  A    between atoms: C4_4  and  C5_5
REMARK    4  A    between atoms: C5_5  and  O1_6
REMARK    5  A    between atoms: C6_8  and  O2_9
REMARK    6  A    between atoms: C7_11  and  O3_12
REMARK    7  A    between atoms: O3_12  and  C8_13
ROOT
HETATM    1  C5  UNL     1      22.775   4.823  21.176  1.00  0.00     0.095 C
HETATM    2  C6  UNL     1      21.856   4.341  22.261  1.00  0.00     0.188 C
HETATM    3  C7  UNL     1      21.488   2.980  21.851  1.00  0.00     0.226 C
HETATM    4  C10 UNL     1      22.628   2.499  20.972  1.00  0.00     0.203 C
HETATM    5  O5  UNL     1      22.146   1.382  20.308  1.00  0.00    -0.342 OA
HETATM    6  C11 UNL     1      23.330   0.772  19.854  1.00  0.00     0.181 C
HETATM    7  C12 UNL     1      23.704   1.486  18.586  1.00  0.00     0.051 C
HETATM    8  C13 UNL     1      24.674   2.611  18.800  1.00  0.00     0.089 C
HETATM    9  C14 UNL     1      24.090   3.836  19.391  1.00  0.00     0.028 C
HETATM   10  C15 UNL     1      22.827   3.695  20.132  1.00  0.00     0.089 C
HETATM   11  C16 UNL     1      25.850   2.164  19.623  1.00  0.00     0.265 C
HETATM   12  O6  UNL     1      27.002   2.598  19.459  1.00  0.00    -0.265 OA
HETATM   13  O7  UNL     1      25.601   1.228  20.598  1.00  0.00    -0.287 OA
HETATM   14  C17 UNL     1      24.261   1.019  20.992  1.00  0.00     0.302 C
HETATM   15  O8  UNL     1      23.762   2.171  21.638  1.00  0.00    -0.319 OA
ENDROOT
BRANCH   1  16
HETATM   16  C4  UNL     1      22.245   6.030  20.443  1.00  0.00     0.041 C
BRANCH  16  17
HETATM   17  C3  UNL     1      22.506   7.316  21.192  1.00  0.00     0.003 C
BRANCH  17  18
HETATM   18  C2  UNL     1      21.158   7.862  21.615  1.00  0.00    -0.004 C
HETATM   19  C1  UNL     1      21.034   7.957  23.117  1.00  0.00     0.005 C
ENDBRANCH  17  18
ENDBRANCH  16  17
ENDBRANCH   1  16
BRANCH   1  20
HETATM   20  O1  UNL     1      24.035   5.001  21.695  1.00  0.00    -0.387 OA
ATOM     21  H1  UNL     1      24.724   4.966  21.042  1.00  0.00     0.210 HD
ENDBRANCH   1  20
BRANCH   2  22
HETATM   22  O2  UNL     1      22.425   4.483  23.504  1.00  0.00    -0.390 OA
ATOM     23  H2  UNL     1      21.813   4.259  24.194  1.00  0.00     0.210 HD
ENDBRANCH   2  22
BRANCH   3  24
HETATM   24  O3  UNL     1      21.043   2.092  22.794  1.00  0.00    -0.308 OA
BRANCH  24  25
HETATM   25  C8  UNL     1      19.751   1.702  23.026  1.00  0.00     0.255 C
HETATM   26  C9  UNL     1      19.046   0.741  22.154  1.00  0.00     0.126 C
HETATM   27  O4  UNL     1      19.240   2.231  24.030  1.00  0.00    -0.266 OA
ENDBRANCH  24  25
ENDBRANCH   3  24
TORSDOF 7
ENDMDL