MODEL 4
REMARK VINA RESULT: -7.091061493      1.714      5.351
REMARK  7 active torsions:
REMARK  status: ('A' for Active; 'I' for Inactive)
REMARK    1  A    between atoms: C2_2  and  O2_4
REMARK    2  A    between atoms: O2_4  and  C3_5
REMARK    3  A    between atoms: C3_5  and  C4_6
REMARK    4  A    between atoms: C11_15  and  O5_16
REMARK    5  A    between atoms: C15_21  and  C16_22
REMARK    6  A    between atoms: C16_22  and  C17_23
REMARK    7  A    between atoms: C17_23  and  O6_24
ROOT
HETATM    1  C4  UNL     1      25.212   2.859  19.648  1.00  0.00     0.071 C
HETATM    2  C5  UNL     1      26.528   2.371  19.217  1.00  0.00     0.159 C
HETATM    3  O3  UNL     1      26.747   1.048  19.683  1.00  0.00    -0.374 OA
HETATM    4  C6  UNL     1      25.902   0.091  19.149  1.00  0.00     0.165 C
HETATM    5  C7  UNL     1      26.347  -0.470  17.843  1.00  0.00     0.186 A
HETATM    6  O4  UNL     1      26.175   0.139  16.633  1.00  0.00    -0.367 OA
HETATM    7  C8  UNL     1      27.452   0.127  17.164  1.00  0.00     0.089 A
HETATM    8  C9  UNL     1      28.446  -0.815  16.467  1.00  0.00     0.049 C
HETATM    9  C10 UNL     1      28.086   1.371  17.661  1.00  0.00     0.074 C
HETATM   10  C11 UNL     1      27.068   2.514  17.875  1.00  0.00     0.150 C
HETATM   11  C12 UNL     1      24.483   0.448  19.307  1.00  0.00     0.014 C
HETATM   12  C13 UNL     1      23.585   0.410  18.144  1.00  0.00     0.020 C
HETATM   13  C14 UNL     1      23.743  -0.430  20.352  1.00  0.00     0.046 C
HETATM   14  C15 UNL     1      22.682   0.595  20.778  1.00  0.00     0.125 C
HETATM   15  O7  UNL     1      23.091   1.840  20.340  1.00  0.00    -0.379 OA
HETATM   16  C18 UNL     1      24.416   1.704  20.152  1.00  0.00     0.141 C
ENDROOT
BRANCH   1  17
HETATM   17  C3  UNL     1      24.442   3.753  18.755  1.00  0.00     0.188 C
BRANCH  17  18
HETATM   18  O2  UNL     1      24.051   4.991  19.273  1.00  0.00    -0.321 OA
BRANCH  18  19
HETATM   19  C2  UNL     1      23.942   6.160  18.566  1.00  0.00     0.254 C
HETATM   20  C1  UNL     1      24.794   6.495  17.390  1.00  0.00     0.126 C
HETATM   21  O1  UNL     1      23.080   7.004  18.919  1.00  0.00    -0.266 OA
ENDBRANCH  18  19
ENDBRANCH  17  18
ENDBRANCH   1  17
BRANCH  10  22
HETATM   22  O5  UNL     1      26.295   2.496  16.773  1.00  0.00    -0.393 OA
ATOM     23  H5  UNL     1      26.117   1.703  16.282  1.00  0.00     0.210 HD
ENDBRANCH  10  22
BRANCH  14  24
HETATM   24  C16 UNL     1      22.437   0.520  22.251  1.00  0.00     0.058 C
BRANCH  24  25
HETATM   25  C17 UNL     1      20.962   0.857  22.476  1.00  0.00     0.166 C
BRANCH  25  26
HETATM   26  O6  UNL     1      20.370   1.313  21.303  1.00  0.00    -0.401 OA
ATOM     27  H6  UNL     1      20.996   1.784  20.767  1.00  0.00     0.209 HD
ENDBRANCH  25  26
ENDBRANCH  24  25
ENDBRANCH  14  24
TORSDOF 7
ENDMDL