MODEL 5
REMARK VINA RESULT: -6.275682613      4.989      8.627
REMARK  6 active torsions:
REMARK  status: ('A' for Active; 'I' for Inactive)
REMARK    1  A    between atoms: C2_2  and  O2_4
REMARK    2  A    between atoms: O2_4  and  C3_5
REMARK    3  A    between atoms: C8_12  and  O5_13
REMARK    4  A    between atoms: C9_15  and  O6_16
REMARK    5  A    between atoms: C11_20  and  C12_21
REMARK    6  A    between atoms: C12_21  and  C13_22
ROOT
HETATM    1  C3  UNL     1      20.022   5.340  25.922  1.00  0.00     0.152 C
HETATM    2  C4  UNL     1      20.799   6.195  24.990  1.00  0.00     0.057 C
HETATM    3  C5  UNL     1      21.387   5.327  23.868  1.00  0.00     0.186 C
HETATM    4  O3  UNL     1      21.717   6.341  22.921  1.00  0.00    -0.321 OA
HETATM    5  C6  UNL     1      20.769   7.375  22.991  1.00  0.00     0.266 C
HETATM    6  O4  UNL     1      20.761   8.314  22.153  1.00  0.00    -0.265 OA
HETATM    7  C7  UNL     1      19.905   7.110  24.143  1.00  0.00     0.125 C
HETATM    8  C8  UNL     1      19.590   8.331  24.967  1.00  0.00     0.163 C
HETATM    9  C9  UNL     1      18.684   7.922  26.079  1.00  0.00     0.177 C
HETATM   10  C10 UNL     1      19.328   7.351  27.271  1.00  0.00     0.166 C
HETATM   11  O7  UNL     1      20.673   7.626  27.503  1.00  0.00    -0.376 OA
HETATM   12  C11 UNL     1      20.721   6.377  28.152  1.00  0.00     0.138 C
HETATM   13  C17 UNL     1      19.677   5.907  27.227  1.00  0.00     0.038 C
HETATM   14  C18 UNL     1      18.685   4.995  27.962  1.00  0.00     0.023 C
ENDROOT
BRANCH  12  15
HETATM   15  C12 UNL     1      22.044   5.719  28.183  1.00  0.00     0.060 C
BRANCH  15  16
HETATM   16  C13 UNL     1      22.461   5.406  29.578  1.00  0.00    -0.022 C
HETATM   17  C14 UNL     1      22.505   4.168  30.048  1.00  0.00    -0.091 C
HETATM   18  C15 UNL     1      22.121   3.068  29.126  1.00  0.00     0.042 C
HETATM   19  C16 UNL     1      22.922   3.873  31.441  1.00  0.00     0.042 C
ENDBRANCH  15  16
ENDBRANCH  12  15
BRANCH   1  20
HETATM   20  O2  UNL     1      20.713   4.118  26.092  1.00  0.00    -0.315 OA
BRANCH  20  21
HETATM   21  C2  UNL     1      20.259   2.898  25.659  1.00  0.00     0.255 C
HETATM   22  C1  UNL     1      21.097   1.686  25.772  1.00  0.00     0.126 C
HETATM   23  O1  UNL     1      19.106   2.846  25.163  1.00  0.00    -0.266 OA
ENDBRANCH  20  21
ENDBRANCH   1  20
BRANCH   9  24
HETATM   24  O6  UNL     1      17.988   9.089  26.476  1.00  0.00    -0.390 OA
ATOM     25  H6  UNL     1      17.264   9.187  25.869  1.00  0.00     0.210 HD
ENDBRANCH   9  24
BRANCH   8  26
HETATM   26  O5  UNL     1      20.777   8.895  25.393  1.00  0.00    -0.392 OA
ATOM     27  H5  UNL     1      20.927   9.695  24.902  1.00  0.00     0.210 HD
ENDBRANCH   8  26
TORSDOF 6
ENDMDL