MODEL 1
REMARK VINA RESULT: -7.243390794      0.000      0.000
REMARK  11 active torsions:
REMARK  status: ('A' for Active; 'I' for Inactive)
REMARK    1  A    between atoms: C3_3  and  C4_4
REMARK    2  A    between atoms: C4_4  and  C5_5
REMARK    3  A    between atoms: C4_4  and  C8_14
REMARK    4  A    between atoms: C6_6  and  C7_7
REMARK    5  A    between atoms: C7_7  and  O1_8
REMARK    6  A    between atoms: N1_10  and  O2_12
REMARK    7  A    between atoms: C9_17  and  C10_18
REMARK    8  A    between atoms: C10_18  and  O4_20
REMARK    9  A    between atoms: C13_23  and  O5_24
REMARK   10  A    between atoms: C14_26  and  O6_27
REMARK   11  A    between atoms: O6_27  and  C15_28
ROOT
HETATM    1  C8  UNL     1      22.522   6.839  20.576  1.00  0.00     0.058 A
HETATM    2  N2  UNL     1      22.438   7.518  19.420  1.00  0.00    -0.351 N
ATOM      3  H2  UNL     1      23.022   7.217  18.640  1.00  0.00     0.166 HD
HETATM    4  C9  UNL     1      21.629   8.567  19.239  1.00  0.00     0.111 A
HETATM    5  C12 UNL     1      20.823   9.004  20.273  1.00  0.00     0.075 A
HETATM    6  C13 UNL     1      20.869   8.353  21.462  1.00  0.00     0.104 A
HETATM    7  C14 UNL     1      21.731   7.254  21.621  1.00  0.00     0.135 A
ENDROOT
BRANCH   1   8
HETATM    8  C4  UNL     1      23.469   5.658  20.713  1.00  0.00     0.083 C
BRANCH   8   9
HETATM    9  C3  UNL     1      24.243   5.777  21.966  1.00  0.00    -0.016 C
HETATM   10  C2  UNL     1      24.632   4.711  22.629  1.00  0.00    -0.034 C
HETATM   11  C1  UNL     1      24.349   3.314  22.210  1.00  0.00     0.036 C
ENDBRANCH   8   9
BRANCH   8  12
HETATM   12  C5  UNL     1      24.268   5.491  19.499  1.00  0.00    -0.008 C
HETATM   13  C6  UNL     1      24.246   4.505  18.665  1.00  0.00     0.054 C
BRANCH  13  14
HETATM   14  C7  UNL     1      23.452   3.312  18.683  1.00  0.00     0.159 C
HETATM   15  N1  UNL     1      23.751   2.281  18.014  1.00  0.00    -0.248 N
ATOM     16  H1  UNL     1      24.598   2.329  17.449  1.00  0.00     0.196 HD
BRANCH  14  17
HETATM   17  O1  UNL     1      22.274   3.238  19.466  1.00  0.00    -0.345 OA
ATOM     18  H1  UNL     1      21.741   2.452  19.468  1.00  0.00     0.219 HD
ENDBRANCH  14  17
BRANCH  15  19
HETATM   19  O2  UNL     1      23.057   1.119  17.976  1.00  0.00    -0.288 OA
ATOM     20  H2  UNL     1      23.350   0.298  17.596  1.00  0.00     0.244 HD
ENDBRANCH  15  19
ENDBRANCH  13  14
ENDBRANCH   8  12
ENDBRANCH   1   8
BRANCH   7  21
HETATM   21  O6  UNL     1      21.785   6.585  22.827  1.00  0.00    -0.274 OA
BRANCH  21  22
HETATM   22  C15 UNL     1      20.876   5.669  23.294  1.00  0.00     0.260 C
HETATM   23  C16 UNL     1      20.909   4.221  22.960  1.00  0.00     0.126 C
HETATM   24  O7  UNL     1      19.958   6.076  24.051  1.00  0.00    -0.265 OA
ENDBRANCH  21  22
ENDBRANCH   7  21
BRANCH   4  25
HETATM   25  C10 UNL     1      21.549   9.294  17.976  1.00  0.00     0.309 C
HETATM   26  O3  UNL     1      20.443   9.771  17.613  1.00  0.00    -0.258 OA
BRANCH  25  27
HETATM   27  O4  UNL     1      22.646   9.476  17.164  1.00  0.00    -0.321 OA
HETATM   28  C11 UNL     1      22.820   8.721  15.977  1.00  0.00     0.213 C
ENDBRANCH  25  27
ENDBRANCH   4  25
BRANCH   6  29
HETATM   29  O5  UNL     1      20.100   8.708  22.575  1.00  0.00    -0.358 OA
ATOM     30  H5  UNL     1      20.468   8.994  23.404  1.00  0.00     0.217 HD
ENDBRANCH   6  29
TORSDOF 11
ENDMDL