MODEL 5
REMARK VINA RESULT: -6.061115588      4.168      6.510
REMARK  9 active torsions:
REMARK  status: ('A' for Active; 'I' for Inactive)
REMARK    1  A    between atoms: C2_2  and  S1_3
REMARK    2  A    between atoms: S1_3  and  C3_4
REMARK    3  A    between atoms: C4_6  and  N1_7
REMARK    4  A    between atoms: N2_10  and  C5_11
REMARK    5  A    between atoms: C5_11  and  O1_12
REMARK    6  A    between atoms: C5_11  and  C6_14
REMARK    7  A    between atoms: C6_14  and  N3_15
REMARK    8  A    between atoms: C11_21  and  C12_22
REMARK    9  A    between atoms: C14_24  and  O3_25
ROOT
HETATM    1  C3  UNL     1      28.082   1.845  12.654  1.00  0.00     0.096 A
HETATM    2  S2  UNL     1      27.928   0.490  11.631  1.00  0.00    -0.043 SA
HETATM    3  C4  UNL     1      27.100  -0.545  12.722  1.00  0.00     0.149 A
HETATM    4  N2  UNL     1      26.985   0.210  13.818  1.00  0.00    -0.278 N
HETATM    5  C14 UNL     1      27.473   1.413  13.802  1.00  0.00     0.171 A
ENDROOT
BRANCH   4   6
HETATM    6  C5  UNL     1      26.305  -0.369  15.000  1.00  0.00     0.247 C
BRANCH   6   7
HETATM    7  O1  UNL     1      25.086   0.229  15.246  1.00  0.00    -0.374 OA
ATOM      8  H1  UNL     1      25.178   1.136  15.512  1.00  0.00     0.212 HD
ENDBRANCH   6   7
BRANCH   6   9
HETATM    9  C6  UNL     1      27.250  -0.354  16.157  1.00  0.00     0.180 C
BRANCH   9  10
HETATM   10  N3  UNL     1      26.574  -0.282  17.419  1.00  0.00    -0.343 N
HETATM   11  C7  UNL     1      26.418   0.991  18.067  1.00  0.00     0.220 C
HETATM   12  O2  UNL     1      27.288   1.889  17.976  1.00  0.00    -0.273 OA
HETATM   13  C8  UNL     1      25.204   1.290  18.880  1.00  0.00     0.103 C
HETATM   14  C9  UNL     1      24.912   0.024  19.694  1.00  0.00     0.011 C
HETATM   15  C10 UNL     1      24.736  -1.097  18.697  1.00  0.00     0.026 C
HETATM   16  C11 UNL     1      26.045  -1.484  18.042  1.00  0.00     0.087 C
BRANCH  16  17
HETATM   17  C12 UNL     1      27.036  -2.052  19.014  1.00  0.00     0.021 C
HETATM   18  C13 UNL     1      28.086  -2.896  18.366  1.00  0.00     0.007 C
ENDBRANCH  16  17
ENDBRANCH   9  10
ENDBRANCH   6   9
ENDBRANCH   4   6
BRANCH   3  19
HETATM   19  N1  UNL     1      26.685  -1.779  12.515  1.00  0.00    -0.379 N
ATOM     20  H12 UNL     1      26.449  -2.239  11.636  1.00  0.00     0.158 HD
ATOM     21  H11 UNL     1      26.521  -2.511  13.206  1.00  0.00     0.158 HD
ENDBRANCH   3  19
BRANCH   5  22
HETATM   22  O3  UNL     1      27.418   2.317  14.898  1.00  0.00    -0.344 OA
ATOM     23  H3  UNL     1      26.577   2.706  15.104  1.00  0.00     0.219 HD
ENDBRANCH   5  22
BRANCH   1  24
HETATM   24  S1  UNL     1      28.855   3.426  12.284  1.00  0.00    -0.119 SA
BRANCH  24  25
HETATM   25  C2  UNL     1      30.464   3.113  11.459  1.00  0.00     0.075 C
HETATM   26  C1  UNL     1      31.377   4.258  11.838  1.00  0.00     0.016 C
ENDBRANCH  24  25
ENDBRANCH   1  24
TORSDOF 9
ENDMDL