MODEL 3
REMARK VINA RESULT: -6.529982698      8.715     11.009
REMARK  9 active torsions:
REMARK  status: ('A' for Active; 'I' for Inactive)
REMARK    1  A    between atoms: C2_2  and  C3_3
REMARK    2  A    between atoms: C2_2  and  C4_7
REMARK    3  A    between atoms: C5_8  and  O1_9
REMARK    4  A    between atoms: C7_11  and  O2_12
REMARK    5  A    between atoms: C9_16  and  C10_17
REMARK    6  A    between atoms: C10_17  and  O4_18
REMARK    7  A    between atoms: C10_17  and  O5_20
REMARK    8  A    between atoms: O5_20  and  C11_21
REMARK    9  A    between atoms: C16_27  and  O7_28
ROOT
HETATM    1  C4  UNL     1      26.637  -0.247  17.025  1.00  0.00     0.045 A
HETATM    2  C5  UNL     1      27.159   0.906  17.526  1.00  0.00     0.118 A
HETATM    3  C7  UNL     1      27.723   1.814  16.654  1.00  0.00     0.135 A
HETATM    4  C8  UNL     1      27.755   1.551  15.308  1.00  0.00     0.128 A
HETATM    5  O3  UNL     1      28.285   2.402  14.503  1.00  0.00    -0.306 OA
HETATM    6  C9  UNL     1      28.370   2.249  13.211  1.00  0.00     0.112 A
HETATM    7  C13 UNL     1      27.861   1.102  12.652  1.00  0.00     0.093 A
HETATM    8  C14 UNL     1      27.261   0.111  13.437  1.00  0.00     0.190 A
HETATM    9  O6  UNL     1      26.805  -0.926  12.928  1.00  0.00    -0.287 OA
HETATM   10  C15 UNL     1      27.219   0.367  14.802  1.00  0.00     0.085 A
HETATM   11  C16 UNL     1      26.649  -0.552  15.661  1.00  0.00     0.099 A
ENDROOT
BRANCH   1  12
HETATM   12  C2  UNL     1      26.027  -1.231  17.908  1.00  0.00    -0.015 C
HETATM   13  C1  UNL     1      26.698  -2.237  18.407  1.00  0.00     0.026 C
BRANCH  12  14
HETATM   14  C3  UNL     1      24.623  -1.080  18.215  1.00  0.00     0.092 C
HETATM   15  N1  UNL     1      24.238  -0.545  19.299  1.00  0.00    -0.407 N
ATOM     16  H12 UNL     1      24.947  -0.220  19.956  1.00  0.00     0.155 HD
ATOM     17  H11 UNL     1      23.247  -0.437  19.515  1.00  0.00     0.155 HD
ENDBRANCH  12  14
ENDBRANCH   1  12
BRANCH   2  18
HETATM   18  O1  UNL     1      27.132   1.174  18.870  1.00  0.00    -0.352 OA
HETATM   19  C6  UNL     1      26.302   2.176  19.392  1.00  0.00     0.210 C
ENDBRANCH   2  18
BRANCH  11  20
HETATM   20  O7  UNL     1      26.098  -1.745  15.227  1.00  0.00    -0.354 OA
HETATM   21  C17 UNL     1      26.963  -2.873  15.118  1.00  0.00     0.210 C
ENDBRANCH  11  20
BRANCH   3  22
HETATM   22  O2  UNL     1      28.246   2.982  17.195  1.00  0.00    -0.356 OA
ATOM     23  H2  UNL     1      29.175   2.995  17.393  1.00  0.00     0.218 HD
ENDBRANCH   3  22
BRANCH   6  24
HETATM   24  C10 UNL     1      28.996   3.276  12.345  1.00  0.00     0.315 C
BRANCH  24  25
HETATM   25  O4  UNL     1      28.086   4.264  11.970  1.00  0.00    -0.365 OA
ATOM     26  H4  UNL     1      28.111   4.432  11.035  1.00  0.00     0.213 HD
ENDBRANCH  24  25
BRANCH  24  27
HETATM   27  O5  UNL     1      30.055   3.898  12.991  1.00  0.00    -0.355 OA
BRANCH  27  28
HETATM   28  C11 UNL     1      30.899   4.517  12.070  1.00  0.00     0.167 C
HETATM   29  C12 UNL     1      31.706   3.495  11.301  1.00  0.00     0.033 C
ENDBRANCH  27  28
ENDBRANCH  24  27
ENDBRANCH   6  24
TORSDOF 9
ENDMDL