MODEL 3
REMARK VINA RESULT: -6.954958784      2.820      5.890
REMARK  11 active torsions:
REMARK  status: ('A' for Active; 'I' for Inactive)
REMARK    1  A    between atoms: C2_2  and  O1_3
REMARK    2  A    between atoms: O1_3  and  C3_4
REMARK    3  A    between atoms: C3_4  and  C4_6
REMARK    4  A    between atoms: C5_7  and  C6_8
REMARK    5  A    between atoms: C9_11  and  O3_12
REMARK    6  A    between atoms: C10_14  and  O4_15
REMARK    7  A    between atoms: C11_17  and  N1_18
REMARK    8  A    between atoms: C12_20  and  C13_21
REMARK    9  A    between atoms: C13_21  and  C14_22
REMARK   10  A    between atoms: C14_22  and  O6_24
REMARK   11  A    between atoms: C16_26  and  O7_27
ROOT
HETATM    1  C6  UNL     1      21.277   5.884  23.833  1.00  0.00     0.008 A
HETATM    2  C7  UNL     1      20.279   6.687  24.395  1.00  0.00    -0.013 A
HETATM    3  C8  UNL     1      19.548   6.184  25.565  1.00  0.00     0.052 C
HETATM    4  C9  UNL     1      20.027   7.910  23.823  1.00  0.00     0.108 A
HETATM    5  C10 UNL     1      20.751   8.327  22.717  1.00  0.00     0.129 A
HETATM    6  C11 UNL     1      21.734   7.562  22.147  1.00  0.00     0.102 A
HETATM    7  C16 UNL     1      21.987   6.323  22.732  1.00  0.00     0.106 A
ENDROOT
BRANCH   6   8
HETATM    8  N1  UNL     1      22.477   7.993  21.004  1.00  0.00    -0.365 N
HETATM    9  C12 UNL     1      22.156   7.593  19.821  1.00  0.00     0.071 C
ATOM     10  H1  UNL     1      23.270   8.624  21.126  1.00  0.00     0.165 HD
BRANCH   9  11
HETATM   11  C13 UNL     1      22.882   8.001  18.603  1.00  0.00     0.155 C
BRANCH  11  12
HETATM   12  C14 UNL     1      22.028   8.949  17.842  1.00  0.00     0.263 C
HETATM   13  O5  UNL     1      21.031   9.502  18.420  1.00  0.00    -0.265 OA
BRANCH  12  14
HETATM   14  O6  UNL     1      22.271   9.262  16.513  1.00  0.00    -0.326 OA
HETATM   15  C15 UNL     1      23.163   8.425  15.769  1.00  0.00     0.213 C
ENDBRANCH  12  14
ENDBRANCH  11  12
ENDBRANCH   9  11
ENDBRANCH   6   8
BRANCH   5  16
HETATM   16  O4  UNL     1      20.491   9.566  22.138  1.00  0.00    -0.356 OA
ATOM     17  H4  UNL     1      19.605   9.907  22.117  1.00  0.00     0.218 HD
ENDBRANCH   5  16
BRANCH   7  18
HETATM   18  O7  UNL     1      23.002   5.572  22.149  1.00  0.00    -0.357 OA
ATOM     19  H7  UNL     1      23.824   5.395  22.590  1.00  0.00     0.217 HD
ENDBRANCH   7  18
BRANCH   4  20
HETATM   20  O3  UNL     1      19.036   8.725  24.370  1.00  0.00    -0.357 OA
ATOM     21  H3  UNL     1      19.098   9.667  24.260  1.00  0.00     0.217 HD
ENDBRANCH   4  20
BRANCH   1  22
HETATM   22  C5  UNL     1      21.588   4.662  24.545  1.00  0.00     0.021 C
HETATM   23  C4  UNL     1      21.394   3.468  24.118  1.00  0.00     0.083 C
BRANCH  23  24
HETATM   24  C3  UNL     1      20.841   2.971  22.917  1.00  0.00     0.282 C
HETATM   25  O2  UNL     1      21.367   2.983  21.788  1.00  0.00    -0.260 OA
BRANCH  24  26
HETATM   26  O1  UNL     1      19.540   2.386  22.965  1.00  0.00    -0.319 OA
BRANCH  26  27
HETATM   27  C2  UNL     1      19.258   1.232  22.158  1.00  0.00     0.174 C
HETATM   28  C1  UNL     1      17.792   1.295  21.792  1.00  0.00     0.034 C
ENDBRANCH  26  27
ENDBRANCH  24  26
ENDBRANCH  23  24
ENDBRANCH   1  22
TORSDOF 11
ENDMDL