MODEL 2
REMARK VINA RESULT: -6.851569364      3.121      4.531
REMARK  8 active torsions:
REMARK  status: ('A' for Active; 'I' for Inactive)
REMARK    1  A    between atoms: C2_2  and  C3_3
REMARK    2  A    between atoms: C4_5  and  S1_6
REMARK    3  A    between atoms: C6_8  and  N1_9
REMARK    4  A    between atoms: C7_12  and  C8_13
REMARK    5  A    between atoms: C8_13  and  S2_14
REMARK    6  A    between atoms: S2_14  and  C9_15
REMARK    7  A    between atoms: C9_15  and  C10_16
REMARK       I    between atoms: C10_16  and  N2_18
REMARK       I    between atoms: N2_18  and  C11_20
REMARK    8  A    between atoms: N4_22  and  O5_24
ROOT
HETATM    1  C8  UNL     1      23.805   5.809  22.442  1.00  0.00     0.118 C
ENDROOT
BRANCH   1   2
HETATM    2  C7  UNL     1      22.978   6.760  21.683  1.00  0.00     0.017 A
HETATM    3  C3  UNL     1      22.016   7.610  22.255  1.00  0.00     0.063 A
HETATM    4  O1  UNL     1      21.508   8.279  21.268  1.00  0.00    -0.305 OA
HETATM    5  C4  UNL     1      22.026   7.968  20.114  1.00  0.00     0.145 A
HETATM    6  C6  UNL     1      22.991   6.984  20.328  1.00  0.00     0.152 A
BRANCH   3   7
HETATM    7  C2  UNL     1      21.719   7.650  23.715  1.00  0.00     0.061 C
HETATM    8  C1  UNL     1      21.353   9.012  24.211  1.00  0.00     0.012 C
ENDBRANCH   3   7
BRANCH   5   9
HETATM    9  S1  UNL     1      21.599   8.665  18.505  1.00  0.00    -0.107 SA
HETATM   10  C5  UNL     1      20.203   9.824  18.746  1.00  0.00     0.097 C
ENDBRANCH   5   9
BRANCH   6  11
HETATM   11  N1  UNL     1      23.768   6.428  19.282  1.00  0.00    -0.112 N
HETATM   12  O2  UNL     1      23.712   5.201  19.060  1.00  0.00    -0.532 OA
HETATM   13  O3  UNL     1      24.582   7.190  18.503  1.00  0.00    -0.532 OA
ENDBRANCH   6  11
ENDBRANCH   1   2
BRANCH   1  14
HETATM   14  S2  UNL     1      22.897   4.404  23.035  1.00  0.00    -0.155 SA
BRANCH  14  15
HETATM   15  C9  UNL     1      21.890   3.618  21.768  1.00  0.00     0.177 C
BRANCH  15  16
HETATM   16  C10 UNL     1      22.653   2.528  21.080  1.00  0.00     0.233 C
HETATM   17  O4  UNL     1      23.251   1.685  21.795  1.00  0.00    -0.272 OA
HETATM   18  N2  UNL     1      22.710   2.432  19.679  1.00  0.00    -0.299 N
HETATM   19  C11 UNL     1      23.423   1.412  19.009  1.00  0.00     0.214 C
ATOM     20  H2  UNL     1      22.215   3.129  19.122  1.00  0.00     0.171 HD
HETATM   21  N3  UNL     1      24.124   0.423  19.747  1.00  0.00    -0.061 NA
HETATM   22  N4  UNL     1      23.450   1.360  17.720  1.00  0.00    -0.241 N
ATOM     23  H4  UNL     1      22.947   2.071  17.189  1.00  0.00     0.197 HD
BRANCH  22  24
HETATM   24  O5  UNL     1      24.130   0.390  17.038  1.00  0.00    -0.287 OA
ATOM     25  H5  UNL     1      24.671   0.581  16.280  1.00  0.00     0.244 HD
ENDBRANCH  22  24
ENDBRANCH  15  16
ENDBRANCH  14  15
ENDBRANCH   1  14
TORSDOF 8
ENDMDL