MODEL 3
REMARK VINA RESULT: -6.565302798      0.829      1.440
REMARK  13 active torsions:
REMARK  status: ('A' for Active; 'I' for Inactive)
REMARK    1  A    between atoms: C2_2  and  O1_3
REMARK    2  A    between atoms: O1_3  and  C3_4
REMARK    3  A    between atoms: C3_4  and  C4_6
REMARK    4  A    between atoms: C4_6  and  C5_7
REMARK    5  A    between atoms: C4_6  and  C8_11
REMARK    6  A    between atoms: C5_7  and  C6_8
REMARK    7  A    between atoms: C9_12  and  O4_13
REMARK    8  A    between atoms: C10_15  and  C11_16
REMARK    9  A    between atoms: C11_16  and  O5_18
REMARK   10  A    between atoms: C13_20  and  O6_21
REMARK   11  A    between atoms: C14_23  and  C15_24
REMARK   12  A    between atoms: C15_24  and  O7_26
REMARK   13  A    between atoms: C17_28  and  O8_29
ROOT
HETATM    1  C8  UNL     1      22.710   6.597  20.865  1.00  0.00     0.024 A
HETATM    2  C9  UNL     1      22.384   7.290  19.698  1.00  0.00     0.091 A
HETATM    3  C10 UNL     1      21.535   8.378  19.686  1.00  0.00     0.060 A
HETATM    4  C13 UNL     1      20.955   8.826  20.905  1.00  0.00     0.096 A
HETATM    5  C14 UNL     1      21.270   8.141  22.066  1.00  0.00     0.060 A
HETATM    6  C17 UNL     1      22.131   7.049  22.044  1.00  0.00     0.091 A
ENDROOT
BRANCH   1   7
HETATM    7  C4  UNL     1      23.528   5.367  20.840  1.00  0.00     0.131 C
BRANCH   7   8
HETATM    8  C3  UNL     1      22.625   4.192  20.562  1.00  0.00     0.268 C
HETATM    9  O2  UNL     1      22.662   3.500  19.540  1.00  0.00    -0.264 OA
BRANCH   8  10
HETATM   10  O1  UNL     1      21.677   3.869  21.516  1.00  0.00    -0.321 OA
BRANCH  10  11
HETATM   11  C2  UNL     1      21.276   2.504  21.686  1.00  0.00     0.174 C
HETATM   12  C1  UNL     1      20.651   2.360  23.042  1.00  0.00     0.034 C
ENDBRANCH  10  11
ENDBRANCH   8  10
ENDBRANCH   7   8
BRANCH   7  13
HETATM   13  C5  UNL     1      24.329   5.103  22.069  1.00  0.00     0.097 C
BRANCH  13  14
HETATM   14  C6  UNL     1      25.007   3.787  22.128  1.00  0.00     0.124 C
HETATM   15  C7  UNL     1      24.569   2.744  23.078  1.00  0.00     0.091 C
HETATM   16  O3  UNL     1      25.941   3.537  21.395  1.00  0.00    -0.298 OA
ENDBRANCH  13  14
ENDBRANCH   7  13
ENDBRANCH   1   7
BRANCH   2  17
HETATM   17  O4  UNL     1      22.945   6.856  18.526  1.00  0.00    -0.359 OA
ATOM     18  H4  UNL     1      22.375   6.429  17.898  1.00  0.00     0.217 HD
ENDBRANCH   2  17
BRANCH   6  19
HETATM   19  O8  UNL     1      22.368   6.446  23.201  1.00  0.00    -0.359 OA
ATOM     20  H8  UNL     1      23.063   6.742  23.777  1.00  0.00     0.217 HD
ENDBRANCH   6  19
BRANCH   3  21
HETATM   21  C11 UNL     1      21.207   9.155  18.522  1.00  0.00     0.055 C
HETATM   22  C12 UNL     1      22.136   9.712  17.548  1.00  0.00     0.077 C
BRANCH  21  23
HETATM   23  O5  UNL     1      19.941   9.408  18.289  1.00  0.00    -0.364 OA
ATOM     24  H5  UNL     1      19.722  10.230  17.867  1.00  0.00     0.217 HD
ENDBRANCH  21  23
ENDBRANCH   3  21
BRANCH   5  25
HETATM   25  C15 UNL     1      20.645   8.613  23.284  1.00  0.00     0.055 C
HETATM   26  C16 UNL     1      21.206   9.320  24.425  1.00  0.00     0.077 C
BRANCH  25  27
HETATM   27  O7  UNL     1      19.355   8.376  23.406  1.00  0.00    -0.364 OA
ATOM     28  H7  UNL     1      18.772   9.086  23.162  1.00  0.00     0.217 HD
ENDBRANCH  25  27
ENDBRANCH   5  25
BRANCH   4  29
HETATM   29  O6  UNL     1      20.141   9.871  20.906  1.00  0.00    -0.359 OA
ATOM     30  H6  UNL     1      19.713  10.138  21.711  1.00  0.00     0.217 HD
ENDBRANCH   4  29
TORSDOF 13
ENDMDL