MODEL 5
REMARK VINA RESULT: -7.326023325      2.262      3.031
REMARK  8 active torsions:
REMARK  status: ('A' for Active; 'I' for Inactive)
REMARK       I    between atoms: C1_2  and  N1_3
REMARK    1  A    between atoms: C1_2  and  C7_16
REMARK    2  A    between atoms: N1_3  and  N2_5
REMARK    3  A    between atoms: C2_7  and  C3_8
REMARK    4  A    between atoms: C6_11  and  N3_12
REMARK    5  A    between atoms: C7_16  and  C8_17
REMARK    6  A    between atoms: C7_16  and  C9_24
REMARK    7  A    between atoms: C8_17  and  O5_18
REMARK    8  A    between atoms: N4_20  and  O6_22
ROOT
HETATM    1  O1  UNL     1      23.449   7.622  21.760  1.00  0.00    -0.271 OA
HETATM    2  C1  UNL     1      22.687   6.614  21.597  1.00  0.00     0.248 C
HETATM    3  N1  UNL     1      22.922   5.776  20.461  1.00  0.00    -0.270 N
ATOM      4  H1  UNL     1      22.329   4.961  20.305  1.00  0.00     0.190 HD
ENDROOT
BRANCH   2   5
HETATM    5  C7  UNL     1      21.600   6.360  22.587  1.00  0.00     0.160 C
BRANCH   5   6
HETATM    6  C8  UNL     1      20.802   7.573  22.841  1.00  0.00     0.149 C
HETATM    7  N4  UNL     1      20.042   7.693  23.900  1.00  0.00    -0.250 N
ATOM      8  H4  UNL     1      20.017   6.912  24.555  1.00  0.00     0.196 HD
BRANCH   6   9
HETATM    9  O5  UNL     1      20.790   8.669  21.995  1.00  0.00    -0.347 OA
ATOM     10  H5  UNL     1      21.281   8.708  21.182  1.00  0.00     0.219 HD
ENDBRANCH   6   9
BRANCH   7  11
HETATM   11  O6  UNL     1      19.290   8.776  24.188  1.00  0.00    -0.288 OA
ATOM     12  H6  UNL     1      18.343   8.775  24.252  1.00  0.00     0.244 HD
ENDBRANCH   7  11
ENDBRANCH   5   6
BRANCH   5  13
HETATM   13  C9  UNL     1      22.238   5.754  23.793  1.00  0.00     0.006 C
HETATM   14  C10 UNL     1      21.380   4.842  24.599  1.00  0.00     0.006 C
HETATM   15  C11 UNL     1      20.931   3.624  23.830  1.00  0.00     0.000 C
HETATM   16  C12 UNL     1      22.142   2.959  23.214  1.00  0.00     0.000 C
HETATM   17  C13 UNL     1      23.432   3.541  23.704  1.00  0.00     0.000 C
HETATM   18  C14 UNL     1      23.471   5.002  23.317  1.00  0.00     0.006 C
ENDBRANCH   5  13
ENDBRANCH   2   5
BRANCH   3  19
HETATM   19  N2  UNL     1      23.921   6.051  19.591  1.00  0.00    -0.307 N
HETATM   20  C2  UNL     1      24.105   6.827  18.638  1.00  0.00     0.144 C
ATOM     21  H2  UNL     1      24.739   5.467  19.762  1.00  0.00     0.186 HD
BRANCH  20  22
HETATM   22  C3  UNL     1      23.215   7.815  18.065  1.00  0.00     0.095 A
HETATM   23  C4  UNL     1      23.303   8.488  16.871  1.00  0.00     0.043 A
HETATM   24  C5  UNL     1      22.207   9.317  16.796  1.00  0.00     0.065 A
HETATM   25  C6  UNL     1      21.484   9.123  17.947  1.00  0.00     0.215 A
HETATM   26  O4  UNL     1      22.106   8.238  18.664  1.00  0.00    -0.287 OA
BRANCH  25  27
HETATM   27  N3  UNL     1      20.249   9.805  18.273  1.00  0.00    -0.090 N
HETATM   28  O2  UNL     1      19.431  10.104  17.389  1.00  0.00    -0.530 OA
HETATM   29  O3  UNL     1      19.954  10.140  19.569  1.00  0.00    -0.530 OA
ENDBRANCH  25  27
ENDBRANCH  20  22
ENDBRANCH   3  19
TORSDOF 8
ENDMDL