MODEL 1
REMARK VINA RESULT: -6.425162245      0.000      0.000
REMARK  8 active torsions:
REMARK  status: ('A' for Active; 'I' for Inactive)
REMARK    1  A    between atoms: C2_2  and  C3_3
REMARK    2  A    between atoms: C3_3  and  C4_4
REMARK    3  A    between atoms: C4_4  and  C5_5
REMARK    4  A    between atoms: C5_5  and  O1_6
REMARK    5  A    between atoms: O1_6  and  N1_7
REMARK    6  A    between atoms: C8_12  and  C9_13
REMARK    7  A    between atoms: N2_15  and  N3_16
REMARK    8  A    between atoms: C12_22  and  N4_23
ROOT
HETATM    1  N1  UNL     1      24.065   3.617  20.648  1.00  0.00    -0.192 N
HETATM    2  C6  UNL     1      25.132   3.160  21.465  1.00  0.00     0.254 C
HETATM    3  O2  UNL     1      26.243   3.784  21.483  1.00  0.00    -0.270 OA
HETATM    4  C7  UNL     1      25.062   1.965  22.342  1.00  0.00     0.179 C
HETATM    5  S1  UNL     1      23.506   1.111  21.983  1.00  0.00    -0.146 SA
HETATM    6  C8  UNL     1      23.036   1.395  20.274  1.00  0.00     0.141 C
HETATM    7  C12 UNL     1      23.208   2.818  19.837  1.00  0.00     0.332 C
ENDROOT
BRANCH   6   8
HETATM    8  C9  UNL     1      23.887   0.534  19.377  1.00  0.00     0.021 A
HETATM    9  C10 UNL     1      23.965   0.603  18.013  1.00  0.00     0.133 A
HETATM   10  N2  UNL     1      24.770  -0.249  17.407  1.00  0.00    -0.256 N
HETATM   11  C11 UNL     1      25.448  -1.113  18.161  1.00  0.00     0.163 A
HETATM   12  S2  UNL     1      26.514  -2.274  17.635  1.00  0.00    -0.050 SA
HETATM   13  S3  UNL     1      24.959  -0.735  19.744  1.00  0.00    -0.061 SA
BRANCH  10  14
HETATM   14  N3  UNL     1      24.915  -0.248  15.974  1.00  0.00    -0.337 N
ATOM     15  H32 UNL     1      24.579  -1.032  15.414  1.00  0.00     0.177 HD
ATOM     16  H31 UNL     1      25.357   0.533  15.488  1.00  0.00     0.177 HD
ENDBRANCH  10  14
ENDBRANCH   6   8
BRANCH   7  17
HETATM   17  N4  UNL     1      21.876   3.450  19.852  1.00  0.00    -0.054 N
ATOM     18  H43 UNL     1      21.846   4.302  20.410  1.00  0.00     0.276 HD
ATOM     19  H42 UNL     1      21.623   3.869  18.958  1.00  0.00     0.276 HD
ATOM     20  H41 UNL     1      21.210   2.744  20.165  1.00  0.00     0.276 HD
ENDBRANCH   7  17
BRANCH   1  21
HETATM   21  O1  UNL     1      23.849   4.967  20.648  1.00  0.00    -0.273 OA
BRANCH  21  22
HETATM   22  C5  UNL     1      24.300   5.549  19.466  1.00  0.00     0.201 C
BRANCH  22  23
HETATM   23  C4  UNL     1      23.571   6.853  19.199  1.00  0.00     0.029 C
BRANCH  23  24
HETATM   24  C3  UNL     1      24.109   7.551  17.977  1.00  0.00     0.002 C
BRANCH  24  25
HETATM   25  C2  UNL     1      23.051   8.423  17.336  1.00  0.00    -0.004 C
HETATM   26  C1  UNL     1      23.253   8.334  15.826  1.00  0.00     0.005 C
ENDBRANCH  24  25
ENDBRANCH  23  24
ENDBRANCH  22  23
ENDBRANCH  21  22
ENDBRANCH   1  21
TORSDOF 8
ENDMDL