MODEL 5
REMARK VINA RESULT: -6.765546885      0.810      1.485
REMARK  10 active torsions:
REMARK  status: ('A' for Active; 'I' for Inactive)
REMARK    1  A    between atoms: O1_2  and  C2_3
REMARK    2  A    between atoms: C2_3  and  C3_5
REMARK    3  A    between atoms: C3_5  and  O3_6
REMARK    4  A    between atoms: C3_5  and  C4_8
REMARK    5  A    between atoms: C3_5  and  O6_26
REMARK    6  A    between atoms: C4_8  and  C5_9
REMARK    7  A    between atoms: C5_9  and  N1_11
REMARK    8  A    between atoms: C7_12  and  O4_13
REMARK    9  A    between atoms: C9_16  and  N2_17
REMARK   10  A    between atoms: C15_23  and  O5_24
ROOT
HETATM    1  N1  UNL     1      23.378   5.328  20.851  1.00  0.00    -0.302 N
HETATM    2  C7  UNL     1      22.845   6.288  21.634  1.00  0.00     0.146 A
HETATM    3  C8  UNL     1      22.688   7.434  20.865  1.00  0.00     0.089 A
HETATM    4  C9  UNL     1      23.143   7.155  19.579  1.00  0.00     0.086 A
HETATM    5  C15 UNL     1      23.553   5.839  19.639  1.00  0.00     0.172 A
ENDROOT
BRANCH   1   6
HETATM    6  C5  UNL     1      23.685   3.977  21.324  1.00  0.00     0.096 C
HETATM    7  C6  UNL     1      25.059   3.588  20.914  1.00  0.00     0.033 C
BRANCH   6   8
HETATM    8  C4  UNL     1      22.653   2.997  20.958  1.00  0.00     0.105 C
BRANCH   8   9
HETATM    9  C3  UNL     1      21.779   2.409  21.984  1.00  0.00     0.254 C
BRANCH   9  10
HETATM   10  C2  UNL     1      22.355   1.740  23.141  1.00  0.00     0.321 C
HETATM   11  O2  UNL     1      23.161   0.788  22.970  1.00  0.00    -0.259 OA
BRANCH  10  12
HETATM   12  O1  UNL     1      22.083   2.068  24.463  1.00  0.00    -0.322 OA
HETATM   13  C1  UNL     1      21.357   1.152  25.253  1.00  0.00     0.213 C
ENDBRANCH  10  12
ENDBRANCH   9  10
BRANCH   9  14
HETATM   14  O3  UNL     1      20.992   3.475  22.547  1.00  0.00    -0.358 OA
ATOM     15  H3  UNL     1      21.499   4.258  22.370  1.00  0.00     0.213 HD
ENDBRANCH   9  14
BRANCH   9  16
HETATM   16  O6  UNL     1      20.808   1.633  21.350  1.00  0.00    -0.352 OA
HETATM   17  C16 UNL     1      19.604   1.543  21.966  1.00  0.00     0.206 C
ENDBRANCH   9  16
ENDBRANCH   8   9
ENDBRANCH   6   8
ENDBRANCH   1   6
BRANCH   2  18
HETATM   18  O4  UNL     1      22.507   6.176  22.959  1.00  0.00    -0.346 OA
ATOM     19  H4  UNL     1      22.527   6.865  23.612  1.00  0.00     0.219 HD
ENDBRANCH   2  18
BRANCH   5  20
HETATM   20  O5  UNL     1      24.081   5.155  18.561  1.00  0.00    -0.344 OA
ATOM     21  H5  UNL     1      24.804   5.459  18.026  1.00  0.00     0.219 HD
ENDBRANCH   5  20
BRANCH   4  22
HETATM   22  N2  UNL     1      23.155   8.064  18.485  1.00  0.00    -0.377 N
HETATM   23  C10 UNL     1      24.245   8.243  17.584  1.00  0.00     0.123 C
HETATM   24  C11 UNL     1      23.791   7.923  16.197  1.00  0.00     0.020 C
HETATM   25  C12 UNL     1      22.602   8.725  15.809  1.00  0.00     0.003 C
HETATM   26  C13 UNL     1      22.016   9.557  16.904  1.00  0.00     0.020 C
HETATM   27  C14 UNL     1      21.981   8.889  18.241  1.00  0.00     0.123 C
ENDBRANCH   4  22
TORSDOF 10
ENDMDL