MODEL 2
REMARK VINA RESULT: -9.863081416      1.026      1.797
REMARK  12 active torsions:
REMARK  status: ('A' for Active; 'I' for Inactive)
REMARK    1  A    between atoms: C2_2  and  C4_4
REMARK    2  A    between atoms: C4_4  and  C5_5
REMARK    3  A    between atoms: C5_5  and  N1_6
REMARK    4  A    between atoms: C5_5  and  C24_34
REMARK       I    between atoms: N1_6  and  C6_7
REMARK       I    between atoms: C6_7  and  N2_9
REMARK    5  A    between atoms: C10_13  and  C11_14
REMARK    6  A    between atoms: C11_14  and  N3_15
REMARK    7  A    between atoms: C11_14  and  C12_19
REMARK    8  A    between atoms: C12_19  and  C13_20
REMARK       I    between atoms: C13_20  and  N4_22
REMARK    9  A    between atoms: C16_25  and  N5_26
REMARK   10  A    between atoms: C24_34  and  O3_35
REMARK   11  A    between atoms: C24_34  and  N6_37
REMARK   12  A    between atoms: C30_43  and  C31_44
ROOT
HETATM    1  N1  UNL     1     -15.680  19.972  -6.689  1.00  0.00    -0.348 NA
HETATM    2  C6  UNL     1     -16.889  19.621  -7.197  1.00  0.00     0.397 C
HETATM    3  O1  UNL     1     -17.872  19.192  -6.534  1.00  0.00    -0.230 OA
HETATM    4  N2  UNL     1     -17.081  19.692  -8.619  1.00  0.00    -0.315 N
HETATM    5  C7  UNL     1     -16.438  20.593  -9.583  1.00  0.00     0.129 C
HETATM    6  C8  UNL     1     -15.645  19.634 -10.427  1.00  0.00     0.022 C
HETATM    7  C9  UNL     1     -16.610  18.465 -10.511  1.00  0.00     0.029 C
HETATM    8  C10 UNL     1     -17.653  18.682  -9.486  1.00  0.00     0.120 C
ENDROOT
BRANCH   8   9
HETATM    9  C11 UNL     1     -18.105  17.440  -8.751  1.00  0.00     0.215 C
BRANCH   9  10
HETATM   10  N3  UNL     1     -17.236  16.347  -9.323  1.00  0.00    -0.073 N
ATOM     11  H33 UNL     1     -17.700  15.442  -9.407  1.00  0.00     0.274 HD
ATOM     12  H32 UNL     1     -17.024  16.453 -10.315  1.00  0.00     0.274 HD
ATOM     13  H31 UNL     1     -16.417  16.344  -8.716  1.00  0.00     0.274 HD
ENDBRANCH   9  10
BRANCH   9  14
HETATM   14  C12 UNL     1     -19.449  17.020  -9.361  1.00  0.00     0.137 C
BRANCH  14  15
HETATM   15  C13 UNL     1     -20.575  17.643  -8.659  1.00  0.00     0.221 C
HETATM   16  O2  UNL     1     -21.077  18.728  -8.954  1.00  0.00    -0.273 OA
HETATM   17  N4  UNL     1     -21.169  16.899  -7.528  1.00  0.00    -0.352 N
HETATM   18  C14 UNL     1     -20.529  15.834  -6.875  1.00  0.00     0.128 C
HETATM   19  C23 UNL     1     -22.581  17.181  -7.202  1.00  0.00     0.128 C
HETATM   20  C15 UNL     1     -20.249  16.340  -5.398  1.00  0.00     0.055 C
HETATM   21  C16 UNL     1     -21.308  17.368  -5.139  1.00  0.00     0.226 C
HETATM   22  C22 UNL     1     -22.582  17.000  -5.673  1.00  0.00     0.055 C
BRANCH  21  23
HETATM   23  N5  UNL     1     -21.325  17.941  -3.860  1.00  0.00     0.093 N
HETATM   24  C17 UNL     1     -20.791  19.265  -3.753  1.00  0.00     0.273 C
HETATM   25  C18 UNL     1     -19.376  19.383  -3.356  1.00  0.00     0.030 C
HETATM   26  C19 UNL     1     -19.116  18.798  -1.992  1.00  0.00     0.003 C
HETATM   27  C20 UNL     1     -20.285  17.838  -1.689  1.00  0.00     0.030 C
HETATM   28  C21 UNL     1     -20.594  17.053  -2.894  1.00  0.00     0.273 C
ENDBRANCH  21  23
ENDBRANCH  14  15
ENDBRANCH   9  14
ENDBRANCH   8   9
BRANCH   1  29
HETATM   29  C5  UNL     1     -14.484  20.317  -6.166  1.00  0.00     0.160 C
BRANCH  29  30
HETATM   30  C4  UNL     1     -13.179  20.220  -6.904  1.00  0.00     0.026 C
BRANCH  30  31
HETATM   31  C2  UNL     1     -12.888  20.944  -8.136  1.00  0.00     0.003 C
HETATM   32  C1  UNL     1     -13.615  22.282  -8.182  1.00  0.00     0.013 C
HETATM   33  C3  UNL     1     -11.418  21.192  -8.302  1.00  0.00     0.013 C
ENDBRANCH  30  31
ENDBRANCH  29  30
BRANCH  29  34
HETATM   34  C24 UNL     1     -14.274  20.746  -4.761  1.00  0.00     0.180 C
BRANCH  34  35
HETATM   35  O3  UNL     1     -13.907  19.866  -3.867  1.00  0.00    -0.344 OA
ATOM     36  H3  UNL     1     -14.501  19.640  -3.161  1.00  0.00     0.219 HD
ENDBRANCH  34  35
BRANCH  34  37
HETATM   37  N6  UNL     1     -14.433  22.042  -4.275  1.00  0.00    -0.344 N
HETATM   38  C25 UNL     1     -14.455  23.310  -4.931  1.00  0.00     0.135 C
HETATM   39  C26 UNL     1     -13.522  24.143  -3.990  1.00  0.00    -0.029 C
HETATM   40  C27 UNL     1     -13.921  25.558  -4.070  1.00  0.00     0.016 C
HETATM   41  C28 UNL     1     -12.117  23.910  -4.435  1.00  0.00     0.016 C
HETATM   42  C29 UNL     1     -13.827  23.517  -2.636  1.00  0.00     0.046 C
HETATM   43  C30 UNL     1     -14.738  22.328  -2.852  1.00  0.00     0.188 C
BRANCH  43  44
HETATM   44  C31 UNL     1     -16.147  22.796  -2.729  1.00  0.00     0.196 C
HETATM   45  O4  UNL     1     -17.107  22.302  -3.313  1.00  0.00    -0.646 OA
HETATM   46  O5  UNL     1     -16.334  23.896  -1.873  1.00  0.00    -0.646 OA
ENDBRANCH  43  44
ENDBRANCH  34  37
ENDBRANCH  29  34
ENDBRANCH   1  29
TORSDOF 12
ENDMDL