MODEL 3
REMARK VINA RESULT: -9.620811849      1.423      5.999
REMARK  14 active torsions:
REMARK  status: ('A' for Active; 'I' for Inactive)
REMARK    1  A    between atoms: C2_2  and  C4_4
REMARK    2  A    between atoms: C4_4  and  N1_5
REMARK    3  A    between atoms: C4_4  and  C10_16
REMARK       I    between atoms: N1_5  and  C5_7
REMARK    4  A    between atoms: C5_7  and  C6_9
REMARK    5  A    between atoms: C10_16  and  O2_17
REMARK    6  A    between atoms: C10_16  and  N3_19
REMARK    7  A    between atoms: N3_19  and  C11_21
REMARK    8  A    between atoms: C11_21  and  C12_22
REMARK    9  A    between atoms: C11_21  and  C28_41
REMARK   10  A    between atoms: C12_22  and  C13_23
REMARK       I    between atoms: N4_32  and  C22_33
REMARK   11  A    between atoms: C22_33  and  C23_35
REMARK   12  A    between atoms: C23_35  and  N5_36
REMARK   13  A    between atoms: C28_41  and  O4_42
REMARK   14  A    between atoms: C28_41  and  N6_44
ROOT
HETATM    1  C11 UNL     1     -14.963  22.177  -7.102  1.00  0.00     0.160 C
ENDROOT
BRANCH   1   2
HETATM    2  N3  UNL     1     -15.725  20.882  -7.063  1.00  0.00    -0.361 N
ATOM      3  H3  UNL     1     -15.321  20.089  -6.566  1.00  0.00     0.162 HD
BRANCH   2   4
HETATM    4  C10 UNL     1     -16.964  20.728  -7.683  1.00  0.00     0.135 C
BRANCH   4   5
HETATM    5  C4  UNL     1     -17.506  19.615  -8.464  1.00  0.00     0.162 C
BRANCH   5   6
HETATM    6  C2  UNL     1     -16.564  18.721  -9.170  1.00  0.00     0.008 C
HETATM    7  C1  UNL     1     -17.071  18.162 -10.459  1.00  0.00     0.012 C
HETATM    8  C3  UNL     1     -16.155  17.527  -8.287  1.00  0.00     0.012 C
ENDBRANCH   5   6
BRANCH   5   9
HETATM    9  N1  UNL     1     -18.348  18.851  -7.521  1.00  0.00    -0.347 N
HETATM   10  C5  UNL     1     -19.710  18.595  -7.803  1.00  0.00     0.249 C
HETATM   11  O1  UNL     1     -20.231  19.019  -8.861  1.00  0.00    -0.271 OA
ATOM     12  H1  UNL     1     -17.941  18.503  -6.653  1.00  0.00     0.163 HD
BRANCH  10  13
HETATM   13  C6  UNL     1     -20.548  17.816  -6.847  1.00  0.00     0.277 C
HETATM   14  C7  UNL     1     -19.867  16.501  -6.529  1.00  0.00     0.044 C
HETATM   15  C8  UNL     1     -20.532  15.506  -7.451  1.00  0.00     0.030 C
HETATM   16  C9  UNL     1     -21.872  16.111  -7.706  1.00  0.00     0.233 C
HETATM   17  N2  UNL     1     -21.847  17.500  -7.347  1.00  0.00    -0.062 N
ATOM     18  H22 UNL     1     -22.589  17.748  -6.693  1.00  0.00     0.278 HD
ATOM     19  H21 UNL     1     -22.128  18.108  -8.116  1.00  0.00     0.278 HD
ENDBRANCH  10  13
ENDBRANCH   5   9
ENDBRANCH   4   5
BRANCH   4  20
HETATM   20  O2  UNL     1     -17.762  21.750  -7.530  1.00  0.00    -0.348 OA
ATOM     21  H2  UNL     1     -17.925  22.264  -8.312  1.00  0.00     0.219 HD
ENDBRANCH   4  20
ENDBRANCH   2   4
ENDBRANCH   1   2
BRANCH   1  22
HETATM   22  C12 UNL     1     -14.526  22.554  -5.750  1.00  0.00     0.059 C
BRANCH  22  23
HETATM   23  C13 UNL     1     -15.585  23.368  -4.979  1.00  0.00     0.089 C
HETATM   24  C14 UNL     1     -15.206  24.693  -4.562  1.00  0.00     0.030 C
HETATM   25  C15 UNL     1     -14.859  24.974  -3.129  1.00  0.00    -0.013 C
HETATM   26  C16 UNL     1     -13.572  24.343  -2.695  1.00  0.00     0.005 C
HETATM   27  C20 UNL     1     -15.990  24.835  -2.177  1.00  0.00     0.005 C
HETATM   28  C17 UNL     1     -13.679  23.067  -1.973  1.00  0.00     0.006 C
HETATM   29  C18 UNL     1     -15.070  22.523  -1.785  1.00  0.00     0.004 C
HETATM   30  C19 UNL     1     -15.953  23.620  -1.317  1.00  0.00     0.006 C
HETATM   31  C21 UNL     1     -15.557  21.714  -2.931  1.00  0.00     0.130 C
HETATM   32  N4  UNL     1     -16.133  22.442  -4.022  1.00  0.00    -0.345 N
HETATM   33  C22 UNL     1     -17.523  22.169  -4.150  1.00  0.00     0.248 C
HETATM   34  O3  UNL     1     -18.131  22.816  -5.075  1.00  0.00    -0.271 OA
BRANCH  33  35
HETATM   35  C23 UNL     1     -18.269  21.221  -3.320  1.00  0.00     0.374 C
BRANCH  35  36
HETATM   36  N5  UNL     1     -18.635  20.061  -4.111  1.00  0.00     0.097 N
HETATM   37  C24 UNL     1     -17.840  18.938  -3.669  1.00  0.00     0.273 C
HETATM   38  C25 UNL     1     -18.416  18.501  -2.347  1.00  0.00     0.032 C
HETATM   39  C26 UNL     1     -19.878  18.721  -2.563  1.00  0.00     0.032 C
HETATM   40  C27 UNL     1     -19.991  19.708  -3.716  1.00  0.00     0.273 C
ENDBRANCH  35  36
ENDBRANCH  33  35
ENDBRANCH  22  23
ENDBRANCH   1  22
BRANCH   1  41
HETATM   41  C28 UNL     1     -13.868  21.907  -8.039  1.00  0.00     0.137 C
BRANCH  41  42
HETATM   42  O4  UNL     1     -13.503  20.647  -8.064  1.00  0.00    -0.348 OA
ATOM     43  H4  UNL     1     -13.317  20.292  -7.202  1.00  0.00     0.219 HD
ENDBRANCH  41  42
BRANCH  41  44
HETATM   44  N6  UNL     1     -13.140  22.717  -8.908  1.00  0.00    -0.364 N
HETATM   45  C29 UNL     1     -11.704  22.911  -8.571  1.00  0.00     0.124 C
HETATM   46  C30 UNL     1     -10.953  22.746  -9.872  1.00  0.00     0.020 C
HETATM   47  C31 UNL     1     -11.259  23.933 -10.795  1.00  0.00     0.003 C
HETATM   48  C32 UNL     1     -12.544  24.548 -10.368  1.00  0.00     0.020 C
HETATM   49  C33 UNL     1     -13.556  23.420 -10.087  1.00  0.00     0.124 C
ENDBRANCH  41  44
ENDBRANCH   1  41
TORSDOF 14
ENDMDL