MODEL 4
REMARK VINA RESULT: -9.503433400      2.621      8.766
REMARK  11 active torsions:
REMARK  status: ('A' for Active; 'I' for Inactive)
REMARK    1  A    between atoms: C2_2  and  C4_4
REMARK    2  A    between atoms: C4_4  and  C5_5
REMARK    3  A    between atoms: C5_5  and  N1_6
REMARK    4  A    between atoms: C5_5  and  C14_18
REMARK       I    between atoms: N1_6  and  C6_8
REMARK    5  A    between atoms: C6_8  and  C7_10
REMARK    6  A    between atoms: C7_10  and  C8_12
REMARK       I    between atoms: C14_18  and  N2_20
REMARK    7  A    between atoms: C18_24  and  C19_25
REMARK       I    between atoms: C19_25  and  N3_27
REMARK    8  A    between atoms: N3_27  and  C20_29
REMARK    9  A    between atoms: C20_29  and  C21_30
REMARK   10  A    between atoms: C21_30  and  O5_31
REMARK   11  A    between atoms: C21_30  and  C22_33
REMARK       I    between atoms: C22_33  and  N4_35
ROOT
HETATM    1  C14 UNL     1     -19.523  19.622  -7.582  1.00  0.00     0.243 C
HETATM    2  O3  UNL     1     -19.544  20.852  -7.938  1.00  0.00    -0.271 OA
HETATM    3  N2  UNL     1     -18.996  19.280  -6.318  1.00  0.00    -0.336 N
HETATM    4  C15 UNL     1     -18.791  18.014  -5.704  1.00  0.00     0.132 C
HETATM    5  C16 UNL     1     -18.206  18.295  -4.327  1.00  0.00     0.019 A
HETATM    6  C17 UNL     1     -18.317  19.729  -4.068  1.00  0.00     0.032 A
HETATM    7  C18 UNL     1     -18.560  20.337  -5.396  1.00  0.00     0.184 C
HETATM    8  C30 UNL     1     -19.205  18.842  -3.336  1.00  0.00    -0.036 A
HETATM    9  C31 UNL     1     -18.907  18.616  -1.859  1.00  0.00     0.016 C
HETATM   10  C32 UNL     1     -20.647  18.641  -3.689  1.00  0.00     0.016 C
ENDROOT
BRANCH   1  11
HETATM   11  C5  UNL     1     -20.061  18.644  -8.559  1.00  0.00     0.177 C
BRANCH  11  12
HETATM   12  C4  UNL     1     -19.078  17.583  -8.944  1.00  0.00     0.038 C
BRANCH  12  13
HETATM   13  C2  UNL     1     -17.758  18.082  -9.344  1.00  0.00    -0.020 C
HETATM   14  C1  UNL     1     -16.642  17.249  -8.648  1.00  0.00     0.009 C
HETATM   15  C3  UNL     1     -17.393  18.025 -10.790  1.00  0.00     0.009 C
ENDBRANCH  12  13
ENDBRANCH  11  12
BRANCH  11  16
HETATM   16  N1  UNL     1     -21.295  18.066  -8.136  1.00  0.00    -0.341 N
HETATM   17  C6  UNL     1     -21.520  16.728  -7.736  1.00  0.00     0.288 C
HETATM   18  O1  UNL     1     -20.590  15.901  -7.731  1.00  0.00    -0.264 OA
ATOM     19  H1  UNL     1     -22.105  18.687  -8.119  1.00  0.00     0.163 HD
BRANCH  17  20
HETATM   20  C7  UNL     1     -22.830  16.262  -7.317  1.00  0.00     0.220 C
HETATM   21  O2  UNL     1     -22.960  15.036  -7.056  1.00  0.00    -0.287 OA
BRANCH  20  22
HETATM   22  C8  UNL     1     -24.009  17.120  -7.177  1.00  0.00     0.065 C
HETATM   23  C9  UNL     1     -24.250  17.616  -5.782  1.00  0.00     0.013 C
HETATM   24  C10 UNL     1     -25.272  16.802  -5.015  1.00  0.00     0.001 C
HETATM   25  C11 UNL     1     -26.626  16.867  -5.709  1.00  0.00     0.000 C
HETATM   26  C12 UNL     1     -26.440  17.239  -7.178  1.00  0.00     0.001 C
HETATM   27  C13 UNL     1     -25.268  16.430  -7.709  1.00  0.00     0.013 C
ENDBRANCH  20  22
ENDBRANCH  17  20
ENDBRANCH  11  16
ENDBRANCH   1  11
BRANCH   7  28
HETATM   28  C19 UNL     1     -17.290  20.892  -5.909  1.00  0.00     0.241 C
HETATM   29  O4  UNL     1     -17.151  22.138  -5.849  1.00  0.00    -0.271 OA
HETATM   30  N3  UNL     1     -16.274  20.098  -6.440  1.00  0.00    -0.347 N
ATOM     31  H3  UNL     1     -16.425  19.090  -6.472  1.00  0.00     0.163 HD
BRANCH  30  32
HETATM   32  C20 UNL     1     -14.983  20.627  -6.962  1.00  0.00     0.071 A
HETATM   33  C27 UNL     1     -14.635  19.954  -8.299  1.00  0.00     0.041 A
HETATM   34  C28 UNL     1     -15.112  21.418  -8.154  1.00  0.00     0.015 A
HETATM   35  C29 UNL     1     -14.179  22.372  -8.792  1.00  0.00     0.012 C
BRANCH  32  36
HETATM   36  C21 UNL     1     -13.949  20.599  -5.907  1.00  0.00     0.238 C
BRANCH  36  37
HETATM   37  O5  UNL     1     -12.824  19.958  -6.526  1.00  0.00    -0.384 OA
ATOM     38  H5  UNL     1     -13.165  19.617  -7.345  1.00  0.00     0.210 HD
ENDBRANCH  36  37
BRANCH  36  39
HETATM   39  C22 UNL     1     -13.471  21.836  -5.331  1.00  0.00     0.251 C
HETATM   40  O6  UNL     1     -12.514  22.417  -5.956  1.00  0.00    -0.270 OA
HETATM   41  N4  UNL     1     -13.926  22.479  -4.170  1.00  0.00    -0.350 N
HETATM   42  C23 UNL     1     -13.409  23.719  -3.648  1.00  0.00     0.126 C
HETATM   43  C26 UNL     1     -14.970  22.030  -3.300  1.00  0.00     0.126 C
HETATM   44  C24 UNL     1     -13.924  23.880  -2.258  1.00  0.00     0.021 C
HETATM   45  C25 UNL     1     -15.093  22.958  -2.138  1.00  0.00     0.021 C
ENDBRANCH  36  39
ENDBRANCH  32  36
ENDBRANCH  30  32
ENDBRANCH   7  28
TORSDOF 11
ENDMDL