MODEL 3
REMARK VINA RESULT: -9.243231748      0.987      1.567
REMARK  12 active torsions:
REMARK  status: ('A' for Active; 'I' for Inactive)
REMARK    1  A    between atoms: O1_2  and  C2_3
REMARK    2  A    between atoms: C4_5  and  C5_6
REMARK    3  A    between atoms: C8_9  and  C9_10
REMARK    4  A    between atoms: C9_10  and  C10_12
REMARK    5  A    between atoms: C10_12  and  N1_13
REMARK    6  A    between atoms: C10_12  and  C29_41
REMARK       I    between atoms: N1_13  and  C11_15
REMARK    7  A    between atoms: C11_15  and  C12_17
REMARK    8  A    between atoms: C12_17  and  N2_18
REMARK    9  A    between atoms: C12_17  and  C25_37
REMARK       I    between atoms: N2_18  and  C13_20
REMARK   10  A    between atoms: C13_20  and  C14_22
REMARK       I    between atoms: N3_26  and  C18_27
REMARK   11  A    between atoms: C18_27  and  C19_29
REMARK   12  A    between atoms: C19_29  and  N4_30
ROOT
HETATM    1  C12 UNL     1     -17.474  19.830  -7.349  1.00  0.00     0.184 C
ENDROOT
BRANCH   1   2
HETATM    2  C11 UNL     1     -16.512  20.864  -7.048  1.00  0.00     0.245 C
HETATM    3  N1  UNL     1     -15.197  20.693  -6.571  1.00  0.00    -0.325 N
ATOM      4  H1  UNL     1     -14.885  19.735  -6.413  1.00  0.00     0.169 HD
HETATM    5  O3  UNL     1     -16.860  22.089  -7.226  1.00  0.00    -0.271 OA
BRANCH   3   6
HETATM    6  C10 UNL     1     -14.246  21.743  -6.285  1.00  0.00     0.066 C
BRANCH   6   7
HETATM    7  C9  UNL     1     -13.957  21.926  -4.875  1.00  0.00     0.179 C
HETATM    8  O2  UNL     1     -13.480  20.874  -4.332  1.00  0.00    -0.291 OA
BRANCH   7   9
HETATM    9  C8  UNL     1     -14.070  23.015  -3.933  1.00  0.00     0.095 C
HETATM   10  C2  UNL     1     -15.387  23.558  -3.500  1.00  0.00     0.133 C
HETATM   11  C3  UNL     1     -15.132  24.842  -4.335  1.00  0.00     0.038 C
HETATM   12  C4  UNL     1     -13.717  24.366  -4.480  1.00  0.00     0.005 C
BRANCH  10  13
HETATM   13  O1  UNL     1     -15.568  23.951  -2.204  1.00  0.00    -0.390 OA
HETATM   14  C1  UNL     1     -14.984  23.179  -1.243  1.00  0.00     0.202 C
ENDBRANCH  10  13
BRANCH  12  15
HETATM   15  C5  UNL     1     -12.694  25.171  -3.742  1.00  0.00    -0.018 C
HETATM   16  C6  UNL     1     -11.909  24.446  -2.725  1.00  0.00     0.010 C
HETATM   17  C7  UNL     1     -11.710  25.723  -4.786  1.00  0.00     0.010 C
ENDBRANCH  12  15
ENDBRANCH   7   9
ENDBRANCH   6   7
BRANCH   6  18
HETATM   18  C29 UNL     1     -13.174  21.872  -7.305  1.00  0.00    -0.005 C
HETATM   19  C30 UNL     1     -12.687  20.441  -7.696  1.00  0.00     0.021 C
HETATM   20  C31 UNL     1     -13.669  22.420  -8.629  1.00  0.00     0.021 C
HETATM   21  C32 UNL     1     -11.919  22.554  -6.896  1.00  0.00     0.021 C
ENDBRANCH   6  18
ENDBRANCH   3   6
ENDBRANCH   1   2
BRANCH   1  22
HETATM   22  N2  UNL     1     -17.805  19.095  -6.140  1.00  0.00    -0.345 N
HETATM   23  C13 UNL     1     -18.767  19.617  -5.190  1.00  0.00     0.241 C
HETATM   24  O4  UNL     1     -19.249  20.706  -5.490  1.00  0.00    -0.271 OA
ATOM     25  H2  UNL     1     -17.354  18.198  -5.957  1.00  0.00     0.163 HD
BRANCH  23  26
HETATM   26  C14 UNL     1     -19.022  18.798  -4.045  1.00  0.00     0.179 C
HETATM   27  C15 UNL     1     -19.678  19.552  -2.881  1.00  0.00     0.037 C
HETATM   28  C16 UNL     1     -19.802  18.384  -1.884  1.00  0.00     0.022 C
HETATM   29  C17 UNL     1     -19.544  17.120  -2.675  1.00  0.00     0.127 C
HETATM   30  N3  UNL     1     -19.833  17.640  -4.069  1.00  0.00    -0.337 N
HETATM   31  C18 UNL     1     -20.722  16.926  -4.871  1.00  0.00     0.238 C
HETATM   32  O5  UNL     1     -21.215  15.848  -4.356  1.00  0.00    -0.272 OA
BRANCH  31  33
HETATM   33  C19 UNL     1     -21.201  17.205  -6.230  1.00  0.00     0.228 C
BRANCH  33  34
HETATM   34  N4  UNL     1     -22.596  16.757  -6.416  1.00  0.00    -0.343 N
HETATM   35  C20 UNL     1     -23.627  17.404  -5.660  1.00  0.00     0.126 C
HETATM   36  C21 UNL     1     -25.006  16.918  -6.072  1.00  0.00     0.020 C
HETATM   37  C22 UNL     1     -25.054  15.404  -6.094  1.00  0.00     0.011 C
HETATM   38  C23 UNL     1     -24.193  14.958  -7.254  1.00  0.00     0.103 C
HETATM   39  C24 UNL     1     -22.922  15.718  -7.326  1.00  0.00     0.220 C
HETATM   40  O6  UNL     1     -22.105  15.431  -8.223  1.00  0.00    -0.273 OA
ENDBRANCH  33  34
ENDBRANCH  31  33
ENDBRANCH  23  26
ENDBRANCH   1  22
BRANCH   1  41
HETATM   41  C25 UNL     1     -17.139  18.817  -8.379  1.00  0.00    -0.022 C
HETATM   42  C26 UNL     1     -16.360  19.287  -9.557  1.00  0.00     0.017 C
HETATM   43  C27 UNL     1     -16.479  17.576  -7.783  1.00  0.00     0.017 C
HETATM   44  C28 UNL     1     -18.481  18.317  -8.948  1.00  0.00     0.017 C
ENDBRANCH   1  41
TORSDOF 12
ENDMDL