MODEL 2
REMARK VINA RESULT: -9.332471772      1.848      7.763
REMARK  10 active torsions:
REMARK  status: ('A' for Active; 'I' for Inactive)
REMARK    1  A    between atoms: C2_2  and  C4_4
REMARK    2  A    between atoms: C4_4  and  C5_5
REMARK    3  A    between atoms: C5_5  and  C6_6
REMARK    4  A    between atoms: C5_5  and  N2_16
REMARK    5  A    between atoms: C6_6  and  N1_7
REMARK       I    between atoms: N2_16  and  C15_18
REMARK    6  A    between atoms: C15_18  and  C16_20
REMARK    7  A    between atoms: C19_23  and  C20_24
REMARK       I    between atoms: C20_24  and  N3_26
REMARK    8  A    between atoms: N3_26  and  C21_28
REMARK    9  A    between atoms: C25_32  and  C26_33
REMARK       I    between atoms: N4_36  and  C27_37
REMARK   10  A    between atoms: C27_37  and  C28_39
ROOT
HETATM    1  C16 UNL     1     -17.893  20.707  -7.243  1.00  0.00     0.180 C
HETATM    2  C17 UNL     1     -19.321  20.227  -7.329  1.00  0.00     0.037 C
HETATM    3  C18 UNL     1     -19.435  19.704  -8.746  1.00  0.00     0.037 C
HETATM    4  C19 UNL     1     -18.006  19.217  -9.027  1.00  0.00     0.180 C
HETATM    5  N4  UNL     1     -17.188  20.188  -8.355  1.00  0.00    -0.323 N
HETATM    6  C27 UNL     1     -15.890  20.540  -8.849  1.00  0.00     0.255 C
HETATM    7  O5  UNL     1     -15.481  19.897  -9.873  1.00  0.00    -0.271 OA
ENDROOT
BRANCH   1   8
HETATM    8  C15 UNL     1     -17.360  20.403  -5.901  1.00  0.00     0.245 C
HETATM    9  N2  UNL     1     -17.779  21.183  -4.799  1.00  0.00    -0.324 N
ATOM     10  H2  UNL     1     -18.442  21.940  -4.967  1.00  0.00     0.169 HD
HETATM   11  O1  UNL     1     -16.547  19.464  -5.742  1.00  0.00    -0.271 OA
BRANCH   9  12
HETATM   12  C5  UNL     1     -17.311  20.962  -3.426  1.00  0.00     0.046 C
BRANCH  12  13
HETATM   13  C4  UNL     1     -17.771  19.713  -2.837  1.00  0.00     0.008 C
BRANCH  13  14
HETATM   14  C2  UNL     1     -19.167  19.485  -2.456  1.00  0.00     0.002 C
HETATM   15  C1  UNL     1     -20.232  19.586  -3.481  1.00  0.00     0.013 C
HETATM   16  C3  UNL     1     -19.219  18.022  -1.955  1.00  0.00     0.013 C
ENDBRANCH  13  14
ENDBRANCH  12  13
BRANCH  12  17
HETATM   17  C6  UNL     1     -15.883  21.394  -3.285  1.00  0.00     0.119 C
BRANCH  17  18
HETATM   18  N1  UNL     1     -15.561  22.730  -3.229  1.00  0.00    -0.367 N
HETATM   19  C7  UNL     1     -15.594  23.433  -1.992  1.00  0.00     0.133 C
HETATM   20  C8  UNL     1     -14.648  24.641  -2.229  1.00  0.00     0.013 C
HETATM   21  C9  UNL     1     -13.277  24.197  -1.876  1.00  0.00     0.007 C
HETATM   22  C13 UNL     1     -14.876  24.935  -3.670  1.00  0.00     0.030 C
HETATM   23  C10 UNL     1     -12.304  24.209  -3.029  1.00  0.00     0.000 C
HETATM   24  C11 UNL     1     -12.445  25.551  -3.719  1.00  0.00     0.001 C
HETATM   25  C12 UNL     1     -13.771  25.535  -4.434  1.00  0.00     0.010 C
HETATM   26  C14 UNL     1     -15.271  23.591  -4.270  1.00  0.00     0.068 C
ENDBRANCH  17  18
ENDBRANCH  12  17
ENDBRANCH   9  12
ENDBRANCH   1   8
BRANCH   4  27
HETATM   27  C20 UNL     1     -17.911  17.835  -8.588  1.00  0.00     0.241 C
HETATM   28  O2  UNL     1     -16.904  17.169  -8.316  1.00  0.00    -0.271 OA
HETATM   29  N3  UNL     1     -19.165  17.132  -8.445  1.00  0.00    -0.354 N
ATOM     30  H3  UNL     1     -20.029  17.629  -8.659  1.00  0.00     0.162 HD
BRANCH  29  31
HETATM   31  C21 UNL     1     -19.249  15.754  -8.014  1.00  0.00     0.098 C
HETATM   32  C22 UNL     1     -19.903  14.883  -9.089  1.00  0.00     0.026 C
HETATM   33  C23 UNL     1     -21.341  15.367  -9.064  1.00  0.00     0.003 C
HETATM   34  C24 UNL     1     -21.630  15.664  -7.620  1.00  0.00     0.017 C
HETATM   35  C25 UNL     1     -20.281  15.599  -6.904  1.00  0.00     0.109 C
BRANCH  35  36
HETATM   36  C26 UNL     1     -20.235  16.673  -5.907  1.00  0.00     0.179 C
HETATM   37  O3  UNL     1     -21.293  17.200  -5.505  1.00  0.00    -0.648 OA
HETATM   38  O4  UNL     1     -19.019  17.104  -5.407  1.00  0.00    -0.648 OA
ENDBRANCH  35  36
ENDBRANCH  29  31
ENDBRANCH   4  27
BRANCH   6  39
HETATM   39  C28 UNL     1     -14.979  21.545  -8.333  1.00  0.00     0.313 C
HETATM   40  C29 UNL     1     -14.050  22.189  -9.291  1.00  0.00     0.047 C
HETATM   41  C30 UNL     1     -12.997  22.813  -8.368  1.00  0.00     0.033 C
HETATM   42  C31 UNL     1     -13.275  22.200  -7.027  1.00  0.00     0.273 C
HETATM   43  N5  UNL     1     -14.092  21.016  -7.298  1.00  0.00     0.098 N
HETATM   44  C32 UNL     1     -13.236  19.972  -7.758  1.00  0.00     0.310 C
ENDBRANCH   6  39
TORSDOF 10
ENDMDL