MODEL 4
REMARK VINA RESULT: -8.897313988      0.876      1.795
REMARK  12 active torsions:
REMARK  status: ('A' for Active; 'I' for Inactive)
REMARK    1  A    between atoms: C2_2  and  C3_3
REMARK    2  A    between atoms: C3_3  and  N1_4
REMARK    3  A    between atoms: C3_3  and  C23_36
REMARK       I    between atoms: N1_4  and  C4_6
REMARK       I    between atoms: C4_6  and  N2_8
REMARK    4  A    between atoms: C7_11  and  N3_12
REMARK       I    between atoms: N3_12  and  C8_14
REMARK    5  A    between atoms: C8_14  and  C9_16
REMARK    6  A    between atoms: C9_16  and  C10_17
REMARK    7  A    between atoms: C9_16  and  N5_25
REMARK    8  A    between atoms: C10_17  and  C11_18
REMARK       I    between atoms: N5_25  and  C16_27
REMARK    9  A    between atoms: C16_27  and  C17_29
REMARK   10  A    between atoms: C17_29  and  O5_32
REMARK   11  A    between atoms: C23_36  and  O6_37
REMARK   12  A    between atoms: C23_36  and  N6_39
ROOT
HETATM    1  N1  UNL     1     -14.615  19.941  -8.442  1.00  0.00    -0.331 N
ATOM      2  H1  UNL     1     -14.581  19.298  -7.651  1.00  0.00     0.165 HD
HETATM    3  C4  UNL     1     -15.648  19.718  -9.351  1.00  0.00     0.319 C
HETATM    4  O1  UNL     1     -15.803  20.421 -10.385  1.00  0.00    -0.247 OA
HETATM    5  N2  UNL     1     -16.612  18.658  -9.173  1.00  0.00    -0.334 N
HETATM    6  C5  UNL     1     -16.623  17.906  -7.957  1.00  0.00     0.129 C
HETATM    7  C6  UNL     1     -17.379  16.621  -8.101  1.00  0.00     0.045 C
HETATM    8  C7  UNL     1     -18.713  16.696  -8.731  1.00  0.00     0.087 C
HETATM    9  C21 UNL     1     -18.810  17.714  -9.818  1.00  0.00     0.045 C
HETATM   10  C22 UNL     1     -17.525  18.308 -10.236  1.00  0.00     0.129 C
ENDROOT
BRANCH   8  11
HETATM   11  N3  UNL     1     -19.816  16.909  -7.778  1.00  0.00    -0.355 N
HETATM   12  C8  UNL     1     -20.527  15.775  -7.331  1.00  0.00     0.240 C
HETATM   13  O2  UNL     1     -20.195  14.605  -7.730  1.00  0.00    -0.271 OA
ATOM     14  H3  UNL     1     -20.057  17.844  -7.451  1.00  0.00     0.162 HD
BRANCH  12  15
HETATM   15  C9  UNL     1     -21.694  15.838  -6.390  1.00  0.00     0.177 C
BRANCH  15  16
HETATM   16  C10 UNL     1     -21.558  17.224  -5.753  1.00  0.00     0.049 C
BRANCH  16  17
HETATM   17  C11 UNL     1     -21.019  17.207  -4.371  1.00  0.00     0.082 C
HETATM   18  C12 UNL     1     -21.877  18.172  -3.544  1.00  0.00     0.034 C
HETATM   19  C13 UNL     1     -20.988  18.444  -2.356  1.00  0.00     0.126 C
HETATM   20  N4  UNL     1     -19.618  18.253  -2.863  1.00  0.00    -0.356 N
HETATM   21  C14 UNL     1     -18.415  18.567  -2.123  1.00  0.00     0.152 C
HETATM   22  C15 UNL     1     -19.668  17.731  -4.176  1.00  0.00     0.223 C
HETATM   23  O3  UNL     1     -18.667  17.766  -4.954  1.00  0.00    -0.273 OA
ENDBRANCH  16  17
ENDBRANCH  15  16
BRANCH  15  24
HETATM   24  N5  UNL     1     -22.936  15.731  -7.082  1.00  0.00    -0.345 N
HETATM   25  C16 UNL     1     -24.184  15.659  -6.389  1.00  0.00     0.252 C
HETATM   26  O4  UNL     1     -24.148  15.686  -5.131  1.00  0.00    -0.270 OA
ATOM     27  H5  UNL     1     -22.934  15.706  -8.102  1.00  0.00     0.163 HD
BRANCH  25  28
HETATM   28  C17 UNL     1     -25.487  15.560  -7.072  1.00  0.00     0.133 C
HETATM   29  C18 UNL     1     -25.503  14.534  -8.181  1.00  0.00     0.056 C
HETATM   30  C19 UNL     1     -25.871  16.904  -7.689  1.00  0.00     0.056 C
BRANCH  28  31
HETATM   31  O5  UNL     1     -26.440  15.169  -6.127  1.00  0.00    -0.376 OA
HETATM   32  C20 UNL     1     -27.638  15.833  -6.221  1.00  0.00     0.203 C
ENDBRANCH  28  31
ENDBRANCH  25  28
ENDBRANCH  15  24
ENDBRANCH  12  15
ENDBRANCH   8  11
BRANCH   1  33
HETATM   33  C3  UNL     1     -13.581  20.957  -8.461  1.00  0.00     0.160 C
BRANCH  33  34
HETATM   34  C2  UNL     1     -12.253  20.302  -8.006  1.00  0.00     0.029 C
HETATM   35  C1  UNL     1     -11.045  21.145  -8.292  1.00  0.00     0.007 C
ENDBRANCH  33  34
BRANCH  33  36
HETATM   36  C23 UNL     1     -13.958  22.053  -7.591  1.00  0.00     0.137 C
BRANCH  36  37
HETATM   37  O6  UNL     1     -13.848  23.236  -8.142  1.00  0.00    -0.348 OA
ATOM     38  H6  UNL     1     -13.663  23.935  -7.526  1.00  0.00     0.219 HD
ENDBRANCH  36  37
BRANCH  36  39
HETATM   39  N6  UNL     1     -14.412  22.061  -6.269  1.00  0.00    -0.363 N
HETATM   40  C24 UNL     1     -15.799  22.149  -5.916  1.00  0.00     0.124 C
HETATM   41  C25 UNL     1     -16.002  23.271  -4.933  1.00  0.00     0.020 C
HETATM   42  C26 UNL     1     -15.395  23.062  -3.589  1.00  0.00     0.002 C
HETATM   43  C27 UNL     1     -13.966  23.579  -3.467  1.00  0.00     0.006 C
HETATM   44  C28 UNL     1     -13.209  23.435  -4.768  1.00  0.00    -0.001 C
HETATM   45  C29 UNL     1     -11.755  23.766  -4.617  1.00  0.00     0.011 C
HETATM   46  C30 UNL     1     -13.342  21.994  -5.245  1.00  0.00     0.128 C
ENDBRANCH  36  39
ENDBRANCH  33  36
ENDBRANCH   1  33
TORSDOF 12
ENDMDL