MODEL 3
REMARK VINA RESULT: -8.680710875      1.998      9.208
REMARK  14 active torsions:
REMARK  status: ('A' for Active; 'I' for Inactive)
REMARK    1  A    between atoms: C2_2  and  C4_4
REMARK    2  A    between atoms: C4_4  and  C5_6
REMARK    3  A    between atoms: C5_6  and  C6_7
REMARK    4  A    between atoms: C5_6  and  N1_12
REMARK    5  A    between atoms: C7_8  and  C8_9
REMARK       I    between atoms: N1_12  and  C11_14
REMARK    6  A    between atoms: C11_14  and  C12_16
REMARK    7  A    between atoms: N2_20  and  C16_21
REMARK    8  A    between atoms: C16_21  and  O3_22
REMARK    9  A    between atoms: C16_21  and  C17_24
REMARK   10  A    between atoms: C17_24  and  N3_25
REMARK   11  A    between atoms: C17_24  and  C29_44
REMARK       I    between atoms: N3_25  and  C18_27
REMARK   12  A    between atoms: C18_27  and  C19_29
REMARK   13  A    between atoms: C19_29  and  N4_30
REMARK   14  A    between atoms: C19_29  and  C25_40
REMARK       I    between atoms: N4_30  and  C20_32
REMARK       I    between atoms: C20_32  and  N5_34
ROOT
HETATM    1  C17 UNL     1     -17.933  18.804  -7.060  1.00  0.00     0.166 C
ENDROOT
BRANCH   1   2
HETATM    2  C16 UNL     1     -18.283  20.172  -6.668  1.00  0.00     0.138 C
BRANCH   2   3
HETATM    3  N2  UNL     1     -17.656  20.931  -5.696  1.00  0.00    -0.350 N
HETATM    4  C12 UNL     1     -16.958  20.557  -4.499  1.00  0.00     0.178 C
HETATM    5  C13 UNL     1     -17.546  21.525  -3.446  1.00  0.00     0.037 C
HETATM    6  C14 UNL     1     -17.773  22.798  -4.247  1.00  0.00     0.022 C
HETATM    7  C15 UNL     1     -17.673  22.419  -5.686  1.00  0.00     0.126 C
BRANCH   4   8
HETATM    8  C11 UNL     1     -15.518  20.916  -4.561  1.00  0.00     0.241 C
HETATM    9  N1  UNL     1     -14.895  21.198  -5.801  1.00  0.00    -0.344 N
ATOM     10  H1  UNL     1     -15.429  21.149  -6.669  1.00  0.00     0.163 HD
HETATM   11  O2  UNL     1     -14.861  20.963  -3.480  1.00  0.00    -0.271 OA
BRANCH   9  12
HETATM   12  C5  UNL     1     -13.446  21.568  -5.826  1.00  0.00     0.182 C
BRANCH  12  13
HETATM   13  C4  UNL     1     -12.948  21.133  -7.176  1.00  0.00     0.180 C
HETATM   14  O1  UNL     1     -12.736  19.880  -7.300  1.00  0.00    -0.290 OA
BRANCH  13  15
HETATM   15  C2  UNL     1     -12.701  22.003  -8.278  1.00  0.00    -0.023 C
HETATM   16  C1  UNL     1     -11.549  22.464  -8.673  1.00  0.00     0.022 C
HETATM   17  C3  UNL     1     -13.892  22.472  -9.095  1.00  0.00     0.051 C
ENDBRANCH  13  15
ENDBRANCH  12  13
BRANCH  12  18
HETATM   18  C6  UNL     1     -13.466  23.048  -5.711  1.00  0.00     0.002 C
HETATM   19  C7  UNL     1     -12.740  23.834  -4.739  1.00  0.00    -0.024 C
BRANCH  19  20
HETATM   20  C8  UNL     1     -13.135  23.888  -3.317  1.00  0.00    -0.001 C
HETATM   21  C9  UNL     1     -14.547  24.512  -3.235  1.00  0.00     0.013 C
HETATM   22  C10 UNL     1     -12.270  24.615  -2.370  1.00  0.00     0.013 C
ENDBRANCH  19  20
ENDBRANCH  12  18
ENDBRANCH   9  12
ENDBRANCH   4   8
ENDBRANCH   2   3
BRANCH   2  23
HETATM   23  O3  UNL     1     -19.296  20.732  -7.285  1.00  0.00    -0.348 OA
ATOM     24  H3  UNL     1     -19.859  20.154  -7.788  1.00  0.00     0.219 HD
ENDBRANCH   2  23
ENDBRANCH   1   2
BRANCH   1  25
HETATM   25  N3  UNL     1     -19.176  18.043  -6.987  1.00  0.00    -0.347 N
HETATM   26  C18 UNL     1     -19.578  17.274  -5.896  1.00  0.00     0.241 C
HETATM   27  O4  UNL     1     -18.867  17.180  -4.904  1.00  0.00    -0.271 OA
ATOM     28  H3  UNL     1     -19.797  18.077  -7.795  1.00  0.00     0.163 HD
BRANCH  26  29
HETATM   29  C19 UNL     1     -20.869  16.564  -5.928  1.00  0.00     0.185 C
BRANCH  29  30
HETATM   30  N4  UNL     1     -22.006  17.444  -5.601  1.00  0.00    -0.329 N
HETATM   31  C20 UNL     1     -22.365  17.645  -4.236  1.00  0.00     0.319 C
HETATM   32  O5  UNL     1     -21.661  17.026  -3.367  1.00  0.00    -0.247 OA
HETATM   33  N5  UNL     1     -23.410  18.452  -3.773  1.00  0.00    -0.330 N
HETATM   34  C21 UNL     1     -23.681  18.549  -2.343  1.00  0.00     0.153 C
HETATM   35  C24 UNL     1     -24.292  19.243  -4.611  1.00  0.00     0.153 C
HETATM   36  C22 UNL     1     -25.211  18.550  -2.236  1.00  0.00     0.187 C
HETATM   37  O6  UNL     1     -25.657  19.770  -2.674  1.00  0.00    -0.388 OA
HETATM   38  C23 UNL     1     -25.025  20.281  -3.777  1.00  0.00     0.187 C
ATOM     39  H4  UNL     1     -22.530  17.905  -6.345  1.00  0.00     0.165 HD
ENDBRANCH  29  30
BRANCH  29  40
HETATM   40  C25 UNL     1     -21.185  15.966  -7.271  1.00  0.00    -0.022 C
HETATM   41  C26 UNL     1     -22.287  14.950  -7.078  1.00  0.00     0.017 C
HETATM   42  C27 UNL     1     -21.686  17.018  -8.230  1.00  0.00     0.017 C
HETATM   43  C28 UNL     1     -20.019  15.237  -7.892  1.00  0.00     0.017 C
ENDBRANCH  29  40
ENDBRANCH  26  29
ENDBRANCH   1  25
BRANCH   1  44
HETATM   44  C29 UNL     1     -17.369  18.756  -8.446  1.00  0.00    -0.023 C
HETATM   45  C30 UNL     1     -18.448  18.456  -9.462  1.00  0.00     0.017 C
HETATM   46  C31 UNL     1     -16.660  20.012  -8.787  1.00  0.00     0.017 C
HETATM   47  C32 UNL     1     -16.326  17.635  -8.568  1.00  0.00     0.017 C
ENDBRANCH   1  44
TORSDOF 14
ENDMDL