MODEL 2
REMARK VINA RESULT: -9.384473025      2.855     10.083
REMARK  14 active torsions:
REMARK  status: ('A' for Active; 'I' for Inactive)
REMARK    1  A    between atoms: C2_2  and  C3_3
REMARK    2  A    between atoms: C3_3  and  C4_4
REMARK    3  A    between atoms: C4_4  and  C5_5
REMARK    4  A    between atoms: C5_5  and  O1_6
REMARK    5  A    between atoms: C5_5  and  N1_8
REMARK    6  A    between atoms: C8_11  and  C9_12
REMARK    7  A    between atoms: C15_21  and  C16_22
REMARK    8  A    between atoms: C16_22  and  N4_23
REMARK       I    between atoms: N4_23  and  C17_24
REMARK    9  A    between atoms: C17_24  and  C18_26
REMARK   10  A    between atoms: C21_29  and  O4_30
REMARK   11  A    between atoms: C23_33  and  C24_34
REMARK   12  A    between atoms: C25_38  and  C26_39
REMARK   13  A    between atoms: C26_39  and  C27_40
REMARK   14  A    between atoms: C27_40  and  C29_42
ROOT
HETATM    1  C9  UNL     1     -15.850  22.055  -5.699  1.00  0.00     0.237 C
HETATM    2  N2  UNL     1     -15.885  22.703  -4.411  1.00  0.00    -0.310 N
HETATM    3  C10 UNL     1     -16.100  24.048  -3.953  1.00  0.00     0.157 C
HETATM    4  C11 UNL     1     -15.686  21.554  -3.535  1.00  0.00     0.340 C
HETATM    5  O2  UNL     1     -15.015  21.541  -2.480  1.00  0.00    -0.245 OA
HETATM    6  N3  UNL     1     -16.398  20.481  -4.118  1.00  0.00    -0.242 N
HETATM    7  C12 UNL     1     -16.998  19.217  -3.764  1.00  0.00     0.154 C
HETATM    8  C13 UNL     1     -18.516  19.478  -3.808  1.00  0.00     0.024 C
HETATM    9  C14 UNL     1     -18.765  20.739  -4.657  1.00  0.00     0.031 C
HETATM   10  C15 UNL     1     -17.872  20.603  -5.867  1.00  0.00     0.136 C
HETATM   11  N5  UNL     1     -16.580  20.871  -5.482  1.00  0.00    -0.287 N
ENDROOT
BRANCH   1  12
HETATM   12  C8  UNL     1     -14.501  21.607  -6.177  1.00  0.00    -0.027 C
HETATM   13  C7  UNL     1     -14.645  21.263  -7.649  1.00  0.00     0.058 C
HETATM   14  C6  UNL     1     -14.146  22.362  -8.575  1.00  0.00     0.130 C
HETATM   15  N1  UNL     1     -12.735  22.405  -8.352  1.00  0.00    -0.358 N
HETATM   16  C31 UNL     1     -12.264  22.031  -7.062  1.00  0.00     0.163 C
HETATM   17  C25 UNL     1     -13.252  22.260  -5.890  1.00  0.00    -0.037 C
BRANCH  15  18
HETATM   18  C5  UNL     1     -11.818  22.845  -9.317  1.00  0.00     0.137 C
BRANCH  18  19
HETATM   19  C4  UNL     1     -11.852  23.859 -10.297  1.00  0.00     0.052 C
BRANCH  19  20
HETATM   20  C3  UNL     1     -11.855  25.149 -10.130  1.00  0.00    -0.023 C
BRANCH  20  21
HETATM   21  C2  UNL     1     -11.955  26.121 -11.283  1.00  0.00     0.023 C
HETATM   22  C1  UNL     1     -13.246  26.877 -11.288  1.00  0.00     0.009 C
ENDBRANCH  20  21
ENDBRANCH  19  20
ENDBRANCH  18  19
BRANCH  18  23
HETATM   23  O1  UNL     1     -10.693  22.147  -9.283  1.00  0.00    -0.346 OA
ATOM     24  H1  UNL     1     -10.802  21.213  -9.422  1.00  0.00     0.219 HD
ENDBRANCH  18  23
ENDBRANCH  15  18
BRANCH  17  25
HETATM   25  C26 UNL     1     -13.049  23.518  -5.178  1.00  0.00    -0.013 C
BRANCH  25  26
HETATM   26  C27 UNL     1     -12.107  23.823  -4.124  1.00  0.00     0.004 C
HETATM   27  C28 UNL     1     -12.570  24.420  -2.840  1.00  0.00     0.014 C
BRANCH  26  28
HETATM   28  C29 UNL     1     -10.947  24.648  -4.651  1.00  0.00     0.003 C
HETATM   29  C30 UNL     1     -10.473  25.747  -3.773  1.00  0.00     0.006 C
ENDBRANCH  26  28
ENDBRANCH  25  26
ENDBRANCH  17  25
ENDBRANCH   1  12
BRANCH  10  30
HETATM   30  C16 UNL     1     -18.509  21.185  -7.095  1.00  0.00     0.248 C
BRANCH  30  31
HETATM   31  N4  UNL     1     -19.225  20.177  -7.786  1.00  0.00    -0.413 NA
HETATM   32  C17 UNL     1     -19.938  19.271  -8.475  1.00  0.00     0.291 C
HETATM   33  O3  UNL     1     -20.811  19.500  -9.346  1.00  0.00    -0.257 OA
BRANCH  32  34
HETATM   34  C18 UNL     1     -19.749  17.771  -8.257  1.00  0.00     0.107 C
HETATM   35  C19 UNL     1     -21.126  17.164  -8.145  1.00  0.00     0.019 C
HETATM   36  C20 UNL     1     -21.272  15.920  -9.003  1.00  0.00     0.032 C
HETATM   37  C21 UNL     1     -20.159  14.937  -8.762  1.00  0.00     0.119 C
HETATM   38  C22 UNL     1     -18.847  15.627  -8.961  1.00  0.00     0.048 C
HETATM   39  C23 UNL     1     -19.013  17.095  -9.342  1.00  0.00     0.103 C
BRANCH  37  40
HETATM   40  O4  UNL     1     -20.293  14.367  -7.512  1.00  0.00    -0.396 OA
ATOM     41  H4  UNL     1     -19.437  14.224  -7.125  1.00  0.00     0.210 HD
ENDBRANCH  37  40
BRANCH  39  42
HETATM   42  C24 UNL     1     -17.673  17.617  -9.659  1.00  0.00     0.177 C
HETATM   43  O5  UNL     1     -17.368  18.040 -10.812  1.00  0.00    -0.648 OA
HETATM   44  O6  UNL     1     -16.707  17.649  -8.682  1.00  0.00    -0.648 OA
ENDBRANCH  39  42
ENDBRANCH  32  34
ENDBRANCH  30  31
ENDBRANCH  10  30
TORSDOF 14
ENDMDL