MODEL 5
REMARK VINA RESULT: -8.622955233      0.811      1.049
REMARK  11 active torsions:
REMARK  status: ('A' for Active; 'I' for Inactive)
REMARK    1  A    between atoms: C2_2  and  C3_3
REMARK    2  A    between atoms: C3_3  and  C4_4
REMARK    3  A    between atoms: C4_4  and  C5_5
REMARK    4  A    between atoms: C9_9  and  C10_10
REMARK       I    between atoms: C10_10  and  N1_12
REMARK    5  A    between atoms: N1_12  and  C11_14
REMARK    6  A    between atoms: C11_14  and  C12_15
REMARK    7  A    between atoms: C11_14  and  C23_29
REMARK       I    between atoms: C12_15  and  N2_17
REMARK    8  A    between atoms: N3_20  and  C15_21
REMARK       I    between atoms: N4_32  and  C26_33
REMARK    9  A    between atoms: C26_33  and  C27_35
REMARK   10  A    between atoms: C27_35  and  N5_36
REMARK   11  A    between atoms: C27_35  and  C29_40
ROOT
HETATM    1  C11 UNL     1     -18.483  18.929  -4.793  1.00  0.00     0.183 C
ENDROOT
BRANCH   1   2
HETATM    2  N1  UNL     1     -18.118  18.407  -6.109  1.00  0.00    -0.347 N
HETATM    3  C10 UNL     1     -17.025  17.646  -6.491  1.00  0.00     0.222 C
HETATM    4  O1  UNL     1     -16.161  17.290  -5.671  1.00  0.00    -0.273 OA
ATOM      5  H1  UNL     1     -18.767  18.639  -6.860  1.00  0.00     0.163 HD
BRANCH   3   6
HETATM    6  C9  UNL     1     -16.849  17.226  -7.915  1.00  0.00     0.082 C
HETATM    7  C5  UNL     1     -18.056  16.991  -8.711  1.00  0.00    -0.001 C
HETATM    8  C6  UNL     1     -18.267  18.086  -9.688  1.00  0.00     0.005 C
HETATM    9  C7  UNL     1     -17.132  19.071  -9.412  1.00  0.00     0.001 C
HETATM   10  C8  UNL     1     -16.085  18.294  -8.682  1.00  0.00     0.014 C
BRANCH   7  11
HETATM   11  C4  UNL     1     -19.267  16.468  -8.014  1.00  0.00     0.009 C
BRANCH  11  12
HETATM   12  C3  UNL     1     -20.581  16.879  -8.617  1.00  0.00     0.027 C
BRANCH  12  13
HETATM   13  C2  UNL     1     -21.684  17.149  -7.694  1.00  0.00    -0.037 C
HETATM   14  C1  UNL     1     -22.558  16.211  -7.372  1.00  0.00     0.007 C
ENDBRANCH  12  13
ENDBRANCH  11  12
ENDBRANCH   7  11
ENDBRANCH   3   6
ENDBRANCH   1   2
BRANCH   1  15
HETATM   15  C12 UNL     1     -18.397  20.403  -4.950  1.00  0.00     0.243 C
HETATM   16  O2  UNL     1     -19.310  20.944  -5.683  1.00  0.00    -0.271 OA
HETATM   17  N2  UNL     1     -17.465  21.297  -4.420  1.00  0.00    -0.344 N
HETATM   18  C13 UNL     1     -17.661  22.731  -4.695  1.00  0.00     0.146 C
HETATM   19  C22 UNL     1     -16.336  20.842  -3.679  1.00  0.00     0.170 C
HETATM   20  C14 UNL     1     -16.326  23.395  -4.961  1.00  0.00     0.142 C
HETATM   21  N3  UNL     1     -15.253  22.461  -5.036  1.00  0.00    -0.386 N
HETATM   22  C21 UNL     1     -15.058  21.614  -3.942  1.00  0.00     0.078 C
BRANCH  21  23
HETATM   23  C15 UNL     1     -14.147  22.852  -5.815  1.00  0.00     0.083 C
HETATM   24  C16 UNL     1     -12.865  22.629  -5.001  1.00  0.00     0.025 C
HETATM   25  C17 UNL     1     -11.777  23.379  -5.769  1.00  0.00     0.002 C
HETATM   26  C18 UNL     1     -11.558  22.622  -7.061  1.00  0.00     0.000 C
HETATM   27  C19 UNL     1     -12.810  22.670  -7.904  1.00  0.00     0.002 C
HETATM   28  C20 UNL     1     -14.016  22.148  -7.113  1.00  0.00     0.025 C
ENDBRANCH  21  23
ENDBRANCH   1  15
BRANCH   1  29
HETATM   29  C23 UNL     1     -19.878  18.493  -4.566  1.00  0.00     0.048 C
HETATM   30  C24 UNL     1     -20.049  17.305  -3.610  1.00  0.00     0.022 C
HETATM   31  C25 UNL     1     -21.503  16.992  -3.978  1.00  0.00     0.132 C
HETATM   32  C31 UNL     1     -20.246  18.235  -2.486  1.00  0.00    -0.021 C
HETATM   33  N4  UNL     1     -22.026  18.336  -3.922  1.00  0.00    -0.344 N
HETATM   34  C26 UNL     1     -23.278  18.918  -4.149  1.00  0.00     0.262 C
HETATM   35  C30 UNL     1     -20.782  19.116  -3.562  1.00  0.00     0.102 C
HETATM   36  O3  UNL     1     -23.394  20.181  -4.020  1.00  0.00    -0.270 OA
HETATM   37  C32 UNL     1     -21.347  17.877  -1.490  1.00  0.00     0.017 C
HETATM   38  C33 UNL     1     -19.050  18.688  -1.706  1.00  0.00     0.017 C
BRANCH  34  39
HETATM   39  C27 UNL     1     -24.516  18.214  -4.540  1.00  0.00     0.376 C
BRANCH  39  40
HETATM   40  N5  UNL     1     -25.228  19.015  -5.569  1.00  0.00    -0.056 N
HETATM   41  C28 UNL     1     -25.662  18.064  -6.574  1.00  0.00     0.268 C
ATOM     42  H52 UNL     1     -25.985  19.586  -5.192  1.00  0.00     0.278 HD
ATOM     43  H51 UNL     1     -24.673  19.784  -5.945  1.00  0.00     0.278 HD
ENDBRANCH  39  40
BRANCH  39  44
HETATM   44  C29 UNL     1     -25.477  18.015  -3.419  1.00  0.00     0.214 C
HETATM   45  O4  UNL     1     -25.274  17.096  -2.548  1.00  0.00    -0.646 OA
HETATM   46  O5  UNL     1     -26.602  18.762  -3.235  1.00  0.00    -0.646 OA
ENDBRANCH  39  44
ENDBRANCH  34  39
ENDBRANCH   1  29
TORSDOF 11
ENDMDL