MODEL 2
REMARK VINA RESULT: -9.827513435      0.846      1.412
REMARK  14 active torsions:
REMARK  status: ('A' for Active; 'I' for Inactive)
REMARK       I    between atoms: C2_2  and  N1_4
REMARK    1  A    between atoms: N1_4  and  C3_6
REMARK    2  A    between atoms: C3_6  and  C4_7
REMARK    3  A    between atoms: C3_6  and  C29_45
REMARK    4  A    between atoms: C4_7  and  C5_9
REMARK    5  A    between atoms: N2_10  and  C6_11
REMARK    6  A    between atoms: C6_11  and  O3_12
REMARK    7  A    between atoms: C6_11  and  C7_14
REMARK    8  A    between atoms: C7_14  and  N3_15
REMARK    9  A    between atoms: C7_14  and  C21_36
REMARK       I    between atoms: N3_15  and  C8_17
REMARK       I    between atoms: C8_17  and  N4_19
REMARK   10  A    between atoms: N4_19  and  C9_21
REMARK   11  A    between atoms: C9_21  and  C10_22
REMARK   12  A    between atoms: C9_21  and  C18_33
REMARK   13  A    between atoms: C10_22  and  O5_23
REMARK   14  A    between atoms: C10_22  and  N5_25
ROOT
HETATM    1  C7  UNL     1     -16.793  19.578  -7.255  1.00  0.00     0.168 C
ENDROOT
BRANCH   1   2
HETATM    2  C6  UNL     1     -15.456  19.790  -6.672  1.00  0.00     0.138 C
BRANCH   2   3
HETATM    3  N2  UNL     1     -14.472  20.673  -7.082  1.00  0.00    -0.350 N
HETATM    4  C5  UNL     1     -14.408  22.183  -6.897  1.00  0.00     0.172 C
HETATM    5  C26 UNL     1     -13.524  22.178  -8.026  1.00  0.00     0.046 C
HETATM    6  C25 UNL     1     -13.205  20.729  -7.796  1.00  0.00     0.142 C
HETATM    7  C27 UNL     1     -14.158  22.445  -9.399  1.00  0.00     0.183 C
HETATM    8  C28 UNL     1     -12.520  23.142  -8.401  1.00  0.00     0.183 C
HETATM    9  O6  UNL     1     -12.922  23.008  -9.753  1.00  0.00    -0.389 OA
BRANCH   4  10
HETATM   10  C4  UNL     1     -14.186  22.521  -5.517  1.00  0.00     0.173 C
HETATM   11  O2  UNL     1     -13.250  21.937  -4.915  1.00  0.00    -0.293 OA
BRANCH  10  12
HETATM   12  C3  UNL     1     -14.931  23.474  -4.679  1.00  0.00     0.159 C
BRANCH  12  13
HETATM   13  N1  UNL     1     -15.869  22.693  -3.807  1.00  0.00    -0.350 N
HETATM   14  C2  UNL     1     -17.238  22.624  -4.142  1.00  0.00     0.214 C
HETATM   15  C1  UNL     1     -18.225  21.880  -3.342  1.00  0.00     0.117 C
HETATM   16  O1  UNL     1     -17.673  23.223  -5.181  1.00  0.00    -0.274 OA
ATOM     17  H1  UNL     1     -15.520  22.215  -2.977  1.00  0.00     0.163 HD
ENDBRANCH  12  13
BRANCH  12  18
HETATM   18  C29 UNL     1     -13.958  24.110  -3.683  1.00  0.00     0.007 C
HETATM   19  C30 UNL     1     -13.425  25.411  -4.070  1.00  0.00     0.012 C
HETATM   20  C31 UNL     1     -14.552  24.079  -2.285  1.00  0.00     0.012 C
ENDBRANCH  12  18
ENDBRANCH  10  12
ENDBRANCH   4  10
ENDBRANCH   2   3
BRANCH   2  21
HETATM   21  O3  UNL     1     -15.221  19.029  -5.631  1.00  0.00    -0.348 OA
ATOM     22  H3  UNL     1     -15.424  18.102  -5.691  1.00  0.00     0.219 HD
ENDBRANCH   2  21
ENDBRANCH   1   2
BRANCH   1  23
HETATM   23  N3  UNL     1     -17.519  18.730  -6.274  1.00  0.00    -0.330 N
HETATM   24  C8  UNL     1     -18.756  19.104  -5.699  1.00  0.00     0.317 C
HETATM   25  O4  UNL     1     -19.286  20.178  -5.999  1.00  0.00    -0.247 OA
HETATM   26  N4  UNL     1     -19.367  18.233  -4.777  1.00  0.00    -0.331 N
ATOM     27  H4  UNL     1     -18.915  17.346  -4.555  1.00  0.00     0.165 HD
ATOM     28  H3  UNL     1     -17.107  17.838  -6.004  1.00  0.00     0.165 HD
BRANCH  26  29
HETATM   29  C9  UNL     1     -20.669  18.579  -4.113  1.00  0.00     0.164 C
BRANCH  29  30
HETATM   30  C10 UNL     1     -21.678  17.872  -4.909  1.00  0.00     0.138 C
BRANCH  30  31
HETATM   31  O5  UNL     1     -22.898  18.269  -4.637  1.00  0.00    -0.348 OA
ATOM     32  H5  UNL     1     -22.965  18.673  -3.780  1.00  0.00     0.219 HD
ENDBRANCH  30  31
BRANCH  30  33
HETATM   33  N5  UNL     1     -21.526  16.874  -5.869  1.00  0.00    -0.354 N
HETATM   34  C11 UNL     1     -20.707  15.651  -5.641  1.00  0.00     0.130 C
HETATM   35  C12 UNL     1     -20.112  15.626  -7.011  1.00  0.00     0.010 A
HETATM   36  C13 UNL     1     -20.360  14.936  -8.200  1.00  0.00     0.014 A
HETATM   37  C14 UNL     1     -21.536  15.477  -7.670  1.00  0.00     0.019 A
HETATM   38  C15 UNL     1     -21.996  16.821  -7.215  1.00  0.00     0.031 C
HETATM   39  C16 UNL     1     -23.492  16.850  -7.400  1.00  0.00     0.038 C
HETATM   40  C17 UNL     1     -21.418  17.942  -8.066  1.00  0.00     0.038 C
ENDBRANCH  30  33
ENDBRANCH  29  30
BRANCH  29  41
HETATM   41  C18 UNL     1     -20.516  18.030  -2.695  1.00  0.00     0.008 C
HETATM   42  C19 UNL     1     -21.689  18.294  -1.810  1.00  0.00     0.012 C
HETATM   43  C20 UNL     1     -19.214  18.322  -2.071  1.00  0.00     0.012 C
ENDBRANCH  29  41
ENDBRANCH  26  29
ENDBRANCH   1  23
BRANCH   1  44
HETATM   44  C21 UNL     1     -16.792  18.884  -8.572  1.00  0.00    -0.023 C
HETATM   45  C22 UNL     1     -16.229  17.461  -8.435  1.00  0.00     0.017 C
HETATM   46  C23 UNL     1     -16.038  19.571  -9.665  1.00  0.00     0.017 C
HETATM   47  C24 UNL     1     -18.208  18.687  -9.075  1.00  0.00     0.017 C
ENDBRANCH   1  44
TORSDOF 14
ENDMDL