MODEL 5
REMARK VINA RESULT: -6.950716608      2.517      4.368
REMARK  1 active torsions:
REMARK  status: ('A' for Active; 'I' for Inactive)
REMARK       I    between atoms: C1_4  and  N3_6
REMARK    1  A    between atoms: N3_6  and  C2_8
ROOT
HETATM    1  C2  UNL     1       6.566   3.923   2.272  1.00  0.00     0.692 A
HETATM    2  N4  UNL     1       6.517   4.341   0.993  1.00  0.00    -0.141 N
ATOM      3  H4  UNL     1       5.819   5.032   0.719  1.00  0.00     0.189 HD
HETATM    4  C3  UNL     1       7.370   3.866   0.072  1.00  0.00     0.342 A
HETATM    5  O1  UNL     1       7.340   4.243  -1.122  1.00  0.00    -0.246 OA
HETATM    6  N5  UNL     1       8.294   2.958   0.415  1.00  0.00    -0.260 N
ATOM      7  H5  UNL     1       8.950   2.587  -0.273  1.00  0.00     0.175 HD
HETATM    8  C4  UNL     1       8.327   2.554   1.690  1.00  0.00     0.342 A
HETATM    9  O2  UNL     1       9.186   1.693   2.064  1.00  0.00    -0.246 OA
HETATM   10  N6  UNL     1       7.491   3.010   2.629  1.00  0.00    -0.141 N
ATOM     11  H6  UNL     1       7.551   2.675   3.591  1.00  0.00     0.189 HD
ENDROOT
BRANCH   1  12
HETATM   12  N3  UNL     1       5.735   4.397   3.131  1.00  0.00    -0.163 N
HETATM   13  C1  UNL     1       5.474   5.790   3.137  1.00  0.00     0.200 C
HETATM   14  N1  UNL     1       6.284   6.563   3.749  1.00  0.00    -0.373 N
HETATM   15  N2  UNL     1       4.329   6.273   2.468  1.00  0.00    -0.063 NA
ATOM     16  H12 UNL     1       6.096   7.566   3.753  1.00  0.00     0.158 HD
ATOM     17  H11 UNL     1       7.112   6.214   4.232  1.00  0.00     0.158 HD
ATOM     18  H3  UNL     1       5.271   3.779   3.797  1.00  0.00     0.187 HD
ENDBRANCH   1  12
TORSDOF 1
ENDMDL