MODEL 1
REMARK VINA RESULT: -6.714316566      0.000      0.000
REMARK  3 active torsions:
REMARK  status: ('A' for Active; 'I' for Inactive)
REMARK       I    between atoms: N1_1  and  C1_4
REMARK       I    between atoms: C1_4  and  N3_6
REMARK    1  A    between atoms: N3_6  and  C2_8
REMARK    2  A    between atoms: C4_16  and  N7_17
REMARK    3  A    between atoms: N7_17  and  N8_19
ROOT
HETATM    1  C2  UNL     1       7.030   5.193   2.164  1.00  0.00     0.168 A
HETATM    2  N4  UNL     1       7.210   6.502   2.518  1.00  0.00    -0.281 N
ATOM      3  H4  UNL     1       6.993   7.217   1.825  1.00  0.00     0.188 HD
HETATM    4  N5  UNL     1       7.643   6.897   3.686  1.00  0.00    -0.294 N
ATOM      5  H5  UNL     1       7.754   7.893   3.879  1.00  0.00     0.187 HD
HETATM    6  C3  UNL     1       7.942   5.989   4.634  1.00  0.00     0.199 A
HETATM    7  N6  UNL     1       7.780   4.676   4.330  1.00  0.00    -0.333 N
ATOM      8  H6  UNL     1       8.003   3.977   5.039  1.00  0.00     0.168 HD
HETATM    9  C4  UNL     1       7.337   4.267   3.136  1.00  0.00     0.167 A
ENDROOT
BRANCH   1  10
HETATM   10  N3  UNL     1       6.600   4.910   0.996  1.00  0.00    -0.313 N
HETATM   11  C1  UNL     1       7.350   4.480  -0.117  1.00  0.00     0.187 C
HETATM   12  N1  UNL     1       7.757   5.442  -0.912  1.00  0.00    -0.373 N
HETATM   13  N2  UNL     1       7.647   3.119  -0.380  1.00  0.00    -0.064 NA
ATOM     14  H12 UNL     1       8.300   5.130  -1.718  1.00  0.00     0.158 HD
ATOM     15  H11 UNL     1       7.543   6.421  -0.722  1.00  0.00     0.158 HD
ATOM     16  H3  UNL     1       5.595   5.008   0.850  1.00  0.00     0.170 HD
ENDBRANCH   1  10
BRANCH   9  17
HETATM   17  N7  UNL     1       7.201   3.001   2.903  1.00  0.00    -0.289 N
ATOM     18  H7  UNL     1       6.281   2.572   3.004  1.00  0.00     0.188 HD
BRANCH  17  19
HETATM   19  N8  UNL     1       8.281   2.212   2.519  1.00  0.00    -0.344 N
ATOM     20  H82 UNL     1       9.207   2.460   2.867  1.00  0.00     0.176 HD
ATOM     21  H81 UNL     1       8.161   1.406   1.905  1.00  0.00     0.176 HD
ENDBRANCH  17  19
ENDBRANCH   9  17
TORSDOF 3
ENDMDL