MODEL 1
REMARK VINA RESULT: -6.382482510      0.000      0.000
REMARK  1 active torsions:
REMARK  status: ('A' for Active; 'I' for Inactive)
REMARK    1  A    between atoms: C3_3  and  C4_4
REMARK       I    between atoms: N4_9  and  C5_10
ROOT
HETATM    1  C1  UNL     1      10.283   6.362  -1.126  1.00  0.00     0.016 C
HETATM    2  C2  UNL     1       9.285   5.685  -1.038  1.00  0.00    -0.055 C
HETATM    3  C3  UNL     1       8.066   4.880  -0.912  1.00  0.00     0.282 C
HETATM    4  N2  UNL     1       6.920   5.559  -0.414  1.00  0.00    -0.069 NA
HETATM    5  N3  UNL     1       7.244   5.183   0.900  1.00  0.00    -0.019 NA
HETATM    6  N4  UNL     1       8.035   4.174   0.373  1.00  0.00    -0.204 N
HETATM    7  C5  UNL     1       8.645   2.947   0.734  1.00  0.00     0.204 C
HETATM    8  N5  UNL     1       7.927   1.998   1.215  1.00  0.00    -0.372 N
ATOM      9  H51 UNL     1       8.366   1.115   1.474  1.00  0.00     0.158 HD
ATOM     10  H52 UNL     1       6.920   2.076   1.356  1.00  0.00     0.158 HD
HETATM   11  N6  UNL     1      10.045   2.838   0.536  1.00  0.00    -0.062 NA
ENDROOT
BRANCH   3  12
HETATM   12  C4  UNL     1       7.869   3.953  -2.033  1.00  0.00     0.292 C
HETATM   13  N1  UNL     1       6.777   3.044  -1.976  1.00  0.00    -0.057 NA
HETATM   14  O1  UNL     1       8.644   3.953  -3.026  1.00  0.00    -0.271 OA
ENDBRANCH   3  12
TORSDOF 1
ENDMDL