MODEL 1
REMARK VINA RESULT: -6.075563366      0.000      0.000
REMARK  3 active torsions:
REMARK  status: ('A' for Active; 'I' for Inactive)
REMARK    1  A    between atoms: N1_1  and  N2_4
REMARK       I    between atoms: N2_4  and  C1_6
REMARK    2  A    between atoms: C1_6  and  C2_8
REMARK       I    between atoms: C2_8  and  N3_10
REMARK    3  A    between atoms: N3_10  and  N4_12
REMARK       I    between atoms: N4_12  and  C3_14
ROOT
HETATM    1  C2  UNL     1       7.330   4.995   0.668  1.00  0.00     0.329 C
HETATM    2  O2  UNL     1       8.045   6.044   0.601  1.00  0.00    -0.261 OA
HETATM    3  N3  UNL     1       7.498   3.903  -0.192  1.00  0.00    -0.258 N
ATOM      4  H3  UNL     1       6.885   3.096  -0.075  1.00  0.00     0.190 HD
ENDROOT
BRANCH   1   5
HETATM    5  C1  UNL     1       6.292   4.966   1.705  1.00  0.00     0.329 C
HETATM    6  N2  UNL     1       5.638   3.752   2.070  1.00  0.00    -0.268 N
ATOM      7  H2  UNL     1       5.875   2.869   1.617  1.00  0.00     0.190 HD
HETATM    8  O1  UNL     1       5.987   6.061   2.277  1.00  0.00    -0.261 OA
BRANCH   6   9
HETATM    9  N1  UNL     1       4.663   3.812   3.066  1.00  0.00    -0.342 N
ATOM     10  H12 UNL     1       4.014   4.599   3.101  1.00  0.00     0.176 HD
ATOM     11  H11 UNL     1       4.629   3.051   3.744  1.00  0.00     0.176 HD
ENDBRANCH   6   9
ENDBRANCH   1   5
BRANCH   3  12
HETATM   12  N4  UNL     1       8.461   3.859  -1.202  1.00  0.00    -0.251 N
HETATM   13  C3  UNL     1       8.212   4.376  -2.503  1.00  0.00     0.347 C
HETATM   14  N5  UNL     1       9.193   4.326  -3.516  1.00  0.00    -0.038 NA
HETATM   15  O3  UNL     1       7.060   4.890  -2.719  1.00  0.00    -0.249 OA
ATOM     16  H4  UNL     1       9.370   3.444  -1.000  1.00  0.00     0.191 HD
ENDBRANCH   3  12
TORSDOF 3
ENDMDL