MODEL 3
REMARK VINA RESULT: -6.136723572      1.249      1.249
REMARK  4 active torsions:
REMARK  status: ('A' for Active; 'I' for Inactive)
REMARK    1  A    between atoms: C2_2  and  N1_3
REMARK    2  A    between atoms: C2_2  and  C3_7
REMARK       I    between atoms: C3_7  and  N2_9
REMARK    3  A    between atoms: N2_9  and  N3_11
REMARK       I    between atoms: C4_13  and  N5_15
REMARK    4  A    between atoms: N5_15  and  N6_17
ROOT
HETATM    1  C3  UNL     1       7.838   4.710  -0.692  1.00  0.00     0.266 C
HETATM    2  O1  UNL     1       6.840   5.468  -0.797  1.00  0.00    -0.269 OA
HETATM    3  N2  UNL     1       7.737   3.583   0.154  1.00  0.00    -0.266 N
ATOM      4  H2  UNL     1       8.531   2.951   0.258  1.00  0.00     0.190 HD
ENDROOT
BRANCH   3   5
HETATM    5  N3  UNL     1       6.563   3.337   0.840  1.00  0.00    -0.270 N
HETATM    6  C4  UNL     1       6.458   3.535   2.114  1.00  0.00     0.221 C
HETATM    7  N4  UNL     1       7.574   4.023   2.852  1.00  0.00    -0.061 NA
HETATM    8  N5  UNL     1       5.254   3.283   2.818  1.00  0.00    -0.279 N
ATOM      9  H5  UNL     1       5.063   2.332   3.133  1.00  0.00     0.189 HD
ATOM     10  H3  UNL     1       5.754   2.988   0.327  1.00  0.00     0.189 HD
BRANCH   8  11
HETATM   11  N6  UNL     1       4.316   4.279   3.102  1.00  0.00    -0.343 N
ATOM     12  H62 UNL     1       3.368   4.146   2.751  1.00  0.00     0.176 HD
ATOM     13  H61 UNL     1       4.542   5.117   3.638  1.00  0.00     0.176 HD
ENDBRANCH   8  11
ENDBRANCH   3   5
BRANCH   1  14
HETATM   14  C2  UNL     1       9.049   5.047  -1.459  1.00  0.00     0.272 C
HETATM   15  C1  UNL     1      10.173   4.054  -1.223  1.00  0.00     0.050 C
BRANCH  14  16
HETATM   16  N1  UNL     1       9.440   6.393  -1.180  1.00  0.00    -0.067 N
ATOM     17  H13 UNL     1       9.194   6.656  -0.226  1.00  0.00     0.275 HD
ATOM     18  H12 UNL     1      10.455   6.475  -1.117  1.00  0.00     0.275 HD
ATOM     19  H11 UNL     1       9.060   7.058  -1.854  1.00  0.00     0.275 HD
ENDBRANCH  14  16
ENDBRANCH   1  14
TORSDOF 4
ENDMDL