MODEL 2
REMARK VINA RESULT: -7.049300594      0.980      1.040
REMARK  3 active torsions:
REMARK  status: ('A' for Active; 'I' for Inactive)
REMARK       I    between atoms: C2_2  and  N1_4
REMARK    1  A    between atoms: N1_4  and  N2_6
REMARK    2  A    between atoms: N2_6  and  C3_8
REMARK    3  A    between atoms: N5_15  and  N6_16
ROOT
HETATM    1  C3  UNL     1       6.836   3.853   2.572  1.00  0.00     0.736 A
HETATM    2  N3  UNL     1       7.561   3.040   3.366  1.00  0.00    -0.125 N
ATOM      3  H3  UNL     1       7.662   2.031   3.248  1.00  0.00     0.206 HD
HETATM    4  N4  UNL     1       8.122   3.761   4.324  1.00  0.00    -0.235 N
ATOM      5  H4  UNL     1       8.725   3.419   5.071  1.00  0.00     0.192 HD
HETATM    6  C4  UNL     1       7.737   5.038   4.116  1.00  0.00     0.375 A
HETATM    7  O2  UNL     1       8.077   6.014   4.834  1.00  0.00    -0.243 OA
HETATM    8  N5  UNL     1       6.936   5.112   3.029  1.00  0.00    -0.034 N
ENDROOT
BRANCH   1   9
HETATM    9  N2  UNL     1       6.147   3.519   1.536  1.00  0.00    -0.126 N
ATOM     10  H2  UNL     1       5.128   3.547   1.577  1.00  0.00     0.206 HD
BRANCH   9  11
HETATM   11  N1  UNL     1       6.788   3.115   0.344  1.00  0.00    -0.256 N
HETATM   12  C2  UNL     1       7.147   4.088  -0.603  1.00  0.00     0.232 C
HETATM   13  C1  UNL     1       7.819   3.692  -1.860  1.00  0.00     0.119 C
HETATM   14  O1  UNL     1       6.904   5.316  -0.403  1.00  0.00    -0.272 OA
ATOM     15  H1  UNL     1       6.988   2.129   0.174  1.00  0.00     0.190 HD
ENDBRANCH   9  11
ENDBRANCH   1   9
BRANCH   8  16
HETATM   16  N6  UNL     1       6.329   6.258   2.484  1.00  0.00    -0.320 N
ATOM     17  H62 UNL     1       6.653   6.820   1.697  1.00  0.00     0.178 HD
ATOM     18  H61 UNL     1       5.466   6.702   2.798  1.00  0.00     0.178 HD
ENDBRANCH   8  16
TORSDOF 3
ENDMDL