MODEL 4
REMARK VINA RESULT: -7.402269339      1.067      1.069
REMARK  2 active torsions:
REMARK  status: ('A' for Active; 'I' for Inactive)
REMARK    1  A    between atoms: N3_4  and  N4_6
REMARK       I    between atoms: C2_8  and  N6_10
REMARK    2  A    between atoms: N6_10  and  C3_12
ROOT
HETATM    1  N4  UNL     1       6.743   3.464   0.539  1.00  0.00    -0.271 N
ATOM      2  H4  UNL     1       5.829   3.916   0.551  1.00  0.00     0.189 HD
HETATM    3  C2  UNL     1       7.292   3.106   1.645  1.00  0.00     0.221 C
HETATM    4  N5  UNL     1       8.552   2.476   1.740  1.00  0.00    -0.061 NA
HETATM    5  N6  UNL     1       6.553   3.379   2.824  1.00  0.00    -0.159 N
ATOM      6  H6  UNL     1       6.077   2.639   3.340  1.00  0.00     0.187 HD
ENDROOT
BRANCH   5   7
HETATM    7  C3  UNL     1       6.512   4.628   3.217  1.00  0.00     0.716 A
HETATM    8  N7  UNL     1       7.275   5.177   4.173  1.00  0.00    -0.115 N
HETATM    9  N8  UNL     1       6.941   6.448   4.280  1.00  0.00    -0.213 N
ATOM     10  H7  UNL     1       7.988   4.696   4.721  1.00  0.00     0.207 HD
HETATM   11  N9  UNL     1       5.986   6.726   3.419  1.00  0.00    -0.213 N
ATOM     12  H8  UNL     1       7.359   7.113   4.929  1.00  0.00     0.210 HD
HETATM   13  N10 UNL     1       5.722   5.617   2.768  1.00  0.00    -0.115 N
ATOM     14  H9  UNL     1       5.537   7.631   3.283  1.00  0.00     0.210 HD
ATOM     15  H10 UNL     1       5.022   5.522   2.033  1.00  0.00     0.207 HD
ENDBRANCH   5   7
BRANCH   1  16
HETATM   16  N3  UNL     1       7.386   3.242  -0.669  1.00  0.00    -0.274 N
HETATM   17  C1  UNL     1       7.465   4.204  -1.515  1.00  0.00     0.215 C
HETATM   18  N1  UNL     1       6.898   5.456  -1.191  1.00  0.00    -0.065 NA
HETATM   19  N2  UNL     1       8.129   3.928  -2.730  1.00  0.00    -0.065 NA
ATOM     20  H3  UNL     1       7.789   2.329  -0.882  1.00  0.00     0.189 HD
ENDBRANCH   1  16
TORSDOF 2
ENDMDL