MODEL 1
REMARK VINA RESULT: -6.887492500      0.000      0.000
REMARK  1 active torsions:
REMARK  status: ('A' for Active; 'I' for Inactive)
REMARK       I    between atoms: C1_4  and  N3_6
REMARK    1  A    between atoms: N5_9  and  N6_10
ROOT
HETATM    1  N1  UNL     1       4.618   3.982   2.780  1.00  0.00    -0.372 N
ATOM      2  H11 UNL     1       4.384   3.336   2.026  1.00  0.00     0.158 HD
ATOM      3  H12 UNL     1       4.008   4.093   3.590  1.00  0.00     0.158 HD
HETATM    4  C1  UNL     1       5.697   4.665   2.708  1.00  0.00     0.213 C
HETATM    5  N2  UNL     1       6.020   5.558   3.752  1.00  0.00    -0.062 NA
HETATM    6  N3  UNL     1       6.543   4.510   1.585  1.00  0.00    -0.157 N
HETATM    7  N4  UNL     1       6.775   3.567   0.657  1.00  0.00    -0.203 N
ATOM      8  H4  UNL     1       6.384   2.640   0.490  1.00  0.00     0.211 HD
HETATM    9  N5  UNL     1       7.695   4.280   0.040  1.00  0.00    -0.122 N
HETATM   10  C3  UNL     1       7.492   5.247   0.947  1.00  0.00     0.387 A
HETATM   11  O1  UNL     1       7.949   6.405   1.193  1.00  0.00    -0.241 OA
ENDROOT
BRANCH   9  12
HETATM   12  N6  UNL     1       8.513   4.099  -1.069  1.00  0.00    -0.249 N
HETATM   13  C2  UNL     1       8.172   4.412  -2.266  1.00  0.00     0.217 C
HETATM   14  N7  UNL     1       6.890   4.973  -2.468  1.00  0.00    -0.065 NA
HETATM   15  N8  UNL     1       9.023   4.217  -3.372  1.00  0.00    -0.065 NA
ATOM     16  H6  UNL     1       9.437   3.694  -0.923  1.00  0.00     0.191 HD
ENDBRANCH   9  12
TORSDOF 1
ENDMDL