MODEL 4
REMARK VINA RESULT: -6.371063235      1.977      3.471
REMARK  1 active torsions:
REMARK  status: ('A' for Active; 'I' for Inactive)
REMARK       I    between atoms: C1_4  and  N3_6
REMARK    1  A    between atoms: C3_13  and  C4_14
ROOT
HETATM    1  N1  UNL     1       7.489   3.199  -0.069  1.00  0.00    -0.372 N
ATOM      2  H11 UNL     1       6.659   3.564  -0.534  1.00  0.00     0.158 HD
ATOM      3  H12 UNL     1       8.280   2.807  -0.580  1.00  0.00     0.158 HD
HETATM    4  C1  UNL     1       7.551   3.231   1.211  1.00  0.00     0.209 C
HETATM    5  N2  UNL     1       8.705   2.724   1.858  1.00  0.00    -0.062 NA
HETATM    6  N3  UNL     1       6.446   3.779   1.928  1.00  0.00    -0.202 N
HETATM    7  N4  UNL     1       5.321   3.196   2.303  1.00  0.00    -0.240 N
ATOM      8  H4  UNL     1       5.091   2.220   2.114  1.00  0.00     0.192 HD
HETATM    9  C2  UNL     1       4.520   4.042   2.962  1.00  0.00     0.341 A
HETATM   10  O1  UNL     1       3.376   3.807   3.454  1.00  0.00    -0.245 OA
HETATM   11  N5  UNL     1       5.190   5.208   2.993  1.00  0.00    -0.288 N
ATOM     12  H5  UNL     1       4.857   6.070   3.426  1.00  0.00     0.172 HD
HETATM   13  C3  UNL     1       6.387   5.055   2.353  1.00  0.00     0.200 A
ENDROOT
BRANCH  13  14
HETATM   14  C4  UNL     1       7.402   6.066   2.166  1.00  0.00     0.300 C
HETATM   15  N6  UNL     1       7.933   6.281   0.881  1.00  0.00    -0.054 NA
HETATM   16  O2  UNL     1       7.803   6.738   3.131  1.00  0.00    -0.268 OA
ENDBRANCH  13  14
TORSDOF 1
ENDMDL