MODEL 5
REMARK VINA RESULT: -5.853690666      2.241      3.505
REMARK  5 active torsions:
REMARK  status: ('A' for Active; 'I' for Inactive)
REMARK    1  A    between atoms: C2_2  and  N1_3
REMARK    2  A    between atoms: C2_2  and  C3_7
REMARK    3  A    between atoms: C3_7  and  N4_13
REMARK    4  A    between atoms: N2_8  and  N3_10
REMARK    5  A    between atoms: N4_13  and  N5_15
ROOT
HETATM    1  C3  UNL     1       7.159   3.464   1.393  1.00  0.00     0.140 C
HETATM    2  N2  UNL     1       6.361   3.186   2.377  1.00  0.00    -0.293 N
ATOM      3  H2  UNL     1       6.523   2.325   2.900  1.00  0.00     0.187 HD
ENDROOT
BRANCH   1   4
HETATM    4  C2  UNL     1       8.260   2.518   1.083  1.00  0.00     0.249 C
HETATM    5  C1  UNL     1       9.404   3.251   0.453  1.00  0.00     0.048 C
BRANCH   4   6
HETATM    6  N1  UNL     1       8.621   1.823   2.293  1.00  0.00    -0.069 N
ATOM      7  H13 UNL     1       8.491   0.817   2.185  1.00  0.00     0.275 HD
ATOM      8  H12 UNL     1       9.631   1.849   2.436  1.00  0.00     0.275 HD
ATOM      9  H11 UNL     1       8.131   2.164   3.119  1.00  0.00     0.275 HD
ENDBRANCH   4   6
ENDBRANCH   1   4
BRANCH   1  10
HETATM   10  N4  UNL     1       7.003   4.637   0.619  1.00  0.00    -0.284 N
ATOM     11  H4  UNL     1       7.053   5.546   1.076  1.00  0.00     0.188 HD
BRANCH  10  12
HETATM   12  N5  UNL     1       6.785   4.575  -0.752  1.00  0.00    -0.275 N
HETATM   13  C4  UNL     1       7.256   5.449  -1.582  1.00  0.00     0.215 C
HETATM   14  N6  UNL     1       6.968   5.283  -2.955  1.00  0.00    -0.065 NA
HETATM   15  N7  UNL     1       8.026   6.505  -1.052  1.00  0.00    -0.065 NA
ATOM     16  H5  UNL     1       6.227   3.806  -1.121  1.00  0.00     0.189 HD
ENDBRANCH  10  12
ENDBRANCH   1  10
BRANCH   2  17
HETATM   17  N3  UNL     1       5.303   3.990   2.755  1.00  0.00    -0.344 N
ATOM     18  H32 UNL     1       5.499   4.734   3.425  1.00  0.00     0.176 HD
ATOM     19  H31 UNL     1       4.352   3.877   2.402  1.00  0.00     0.176 HD
ENDBRANCH   2  17
TORSDOF 5
ENDMDL