MODEL 2
REMARK VINA RESULT: -7.029837720      1.555      4.264
REMARK  3 active torsions:
REMARK  status: ('A' for Active; 'I' for Inactive)
REMARK       I    between atoms: C2_2  and  N1_4
REMARK    1  A    between atoms: N1_4  and  C3_6
REMARK    2  A    between atoms: C5_15  and  N5_16
REMARK    3  A    between atoms: N5_16  and  N6_18
ROOT
HETATM    1  C3  UNL     1      21.123  36.356 113.137  1.00  0.00     0.169 A
HETATM    2  N2  UNL     1      20.469  36.801 112.049  1.00  0.00    -0.278 N
ATOM      3  H2  UNL     1      20.144  37.768 112.016  1.00  0.00     0.189 HD
HETATM    4  N3  UNL     1      20.238  35.989 111.006  1.00  0.00    -0.250 N
ATOM      5  H3  UNL     1      19.740  36.353 110.194  1.00  0.00     0.192 HD
HETATM    6  C4  UNL     1      20.645  34.707 111.001  1.00  0.00     0.340 A
HETATM    7  O2  UNL     1      20.407  33.981 110.000  1.00  0.00    -0.245 OA
HETATM    8  N4  UNL     1      21.303  34.218 112.068  1.00  0.00    -0.289 N
ATOM      9  H4  UNL     1      21.619  33.249 112.084  1.00  0.00     0.172 HD
HETATM   10  C5  UNL     1      21.538  35.041 113.126  1.00  0.00     0.170 A
ENDROOT
BRANCH   1  11
HETATM   11  N1  UNL     1      21.362  37.105 114.155  1.00  0.00    -0.309 N
HETATM   12  C2  UNL     1      20.552  37.267 115.267  1.00  0.00     0.219 C
HETATM   13  C1  UNL     1      20.000  38.591 115.621  1.00  0.00     0.117 C
HETATM   14  O1  UNL     1      20.275  36.286 115.990  1.00  0.00    -0.274 OA
ATOM     15  H1  UNL     1      22.236  37.632 114.143  1.00  0.00     0.170 HD
ENDBRANCH   1  11
BRANCH  10  16
HETATM   16  N5  UNL     1      22.172  34.599 114.174  1.00  0.00    -0.289 N
ATOM     17  H5  UNL     1      21.655  34.297 115.000  1.00  0.00     0.188 HD
BRANCH  16  18
HETATM   18  N6  UNL     1      23.554  34.544 114.155  1.00  0.00    -0.344 N
ATOM     19  H62 UNL     1      24.079  35.299 113.713  1.00  0.00     0.176 HD
ATOM     20  H61 UNL     1      24.027  33.748 114.582  1.00  0.00     0.176 HD
ENDBRANCH  16  18
ENDBRANCH  10  16
TORSDOF 3
ENDMDL