MODEL 3
REMARK VINA RESULT: -6.881227464      1.504      2.113
REMARK  3 active torsions:
REMARK  status: ('A' for Active; 'I' for Inactive)
REMARK    1  A    between atoms: N1_1  and  C1_4
REMARK    2  A    between atoms: C3_11  and  N4_12
REMARK       I    between atoms: N4_12  and  C4_14
REMARK    3  A    between atoms: N6_16  and  O2_18
ROOT
HETATM    1  C1  UNL     1      22.000  35.774 112.227  1.00  0.00     0.692 A
HETATM    2  N2  UNL     1      22.792  34.970 112.961  1.00  0.00    -0.129 N
ATOM      3  H2  UNL     1      23.492  34.375 112.518  1.00  0.00     0.205 HD
HETATM    4  N3  UNL     1      22.634  34.973 114.274  1.00  0.00    -0.249 N
ATOM      5  H3  UNL     1      23.221  34.374 114.853  1.00  0.00     0.191 HD
HETATM    6  C2  UNL     1      21.701  35.762 114.860  1.00  0.00     0.305 A
HETATM    7  O1  UNL     1      21.572  35.745 116.113  1.00  0.00    -0.263 OA
HETATM    8  C3  UNL     1      20.884  36.592 114.119  1.00  0.00     0.193 A
HETATM    9  N7  UNL     1      21.068  36.567 112.787  1.00  0.00    -0.170 N
ATOM     10  H7  UNL     1      20.491  37.159 112.190  1.00  0.00     0.186 HD
ENDROOT
BRANCH   8  11
HETATM   11  N4  UNL     1      20.029  37.307 114.729  1.00  0.00    -0.310 N
HETATM   12  C4  UNL     1      20.276  38.605 115.251  1.00  0.00     0.213 C
HETATM   13  N5  UNL     1      20.173  38.806 116.653  1.00  0.00    -0.061 NA
HETATM   14  N6  UNL     1      20.590  39.614 114.529  1.00  0.00    -0.241 N
ATOM     15  H6  UNL     1      20.674  39.510 113.518  1.00  0.00     0.197 HD
ATOM     16  H4  UNL     1      19.094  36.920 114.854  1.00  0.00     0.170 HD
BRANCH  14  17
HETATM   17  O2  UNL     1      20.812  40.829 115.109  1.00  0.00    -0.287 OA
ATOM     18  H2  UNL     1      21.420  41.442 114.713  1.00  0.00     0.244 HD
ENDBRANCH  14  17
ENDBRANCH   8  11
BRANCH   1  19
HETATM   19  N1  UNL     1      22.148  35.780 110.932  1.00  0.00    -0.233 N
ATOM     20  H12 UNL     1      22.917  35.256 110.515  1.00  0.00     0.174 HD
ATOM     21  H11 UNL     1      21.485  36.312 110.368  1.00  0.00     0.174 HD
ENDBRANCH   1  19
TORSDOF 3
ENDMDL