MODEL 2
REMARK VINA RESULT: -7.250304574      1.424      1.781
REMARK  2 active torsions:
REMARK  status: ('A' for Active; 'I' for Inactive)
REMARK       I    between atoms: C1_4  and  N3_6
REMARK    1  A    between atoms: N3_6  and  N4_7
REMARK    2  A    between atoms: N3_6  and  N5_10
ROOT
HETATM    1  N5  UNL     1      20.437  35.009 114.236  1.00  0.00    -0.257 N
ATOM      2  H5  UNL     1      19.749  34.358 114.614  1.00  0.00     0.191 HD
HETATM    3  C2  UNL     1      20.735  34.924 112.969  1.00  0.00     0.195 A
HETATM    4  N6  UNL     1      20.197  34.005 112.026  1.00  0.00    -0.289 N
ATOM      5  H6  UNL     1      19.501  33.293 112.246  1.00  0.00     0.172 HD
HETATM    6  C3  UNL     1      20.753  34.209 110.747  1.00  0.00     0.328 A
HETATM    7  O1  UNL     1      20.513  33.579 109.663  1.00  0.00    -0.247 OA
HETATM    8  N7  UNL     1      21.676  35.287 110.860  1.00  0.00    -0.272 N
ATOM      9  H7  UNL     1      22.239  35.670 110.100  1.00  0.00     0.174 HD
HETATM   10  C4  UNL     1      21.681  35.744 112.223  1.00  0.00     0.295 A
HETATM   11  O2  UNL     1      22.380  36.679 112.668  1.00  0.00    -0.264 OA
ENDROOT
BRANCH   1  12
HETATM   12  N3  UNL     1      21.000  35.926 115.090  1.00  0.00    -0.170 N
HETATM   13  C1  UNL     1      20.314  37.139 115.374  1.00  0.00     0.223 C
HETATM   14  N1  UNL     1      20.600  37.864 116.423  1.00  0.00    -0.371 N
HETATM   15  N2  UNL     1      19.279  37.616 114.520  1.00  0.00    -0.060 NA
ATOM     16  H12 UNL     1      20.107  38.734 116.626  1.00  0.00     0.158 HD
ATOM     17  H11 UNL     1      21.342  37.522 117.034  1.00  0.00     0.158 HD
BRANCH  12  18
HETATM   18  N4  UNL     1      22.239  35.706 115.698  1.00  0.00    -0.321 N
ATOM     19  H42 UNL     1      22.805  34.885 115.484  1.00  0.00     0.179 HD
ATOM     20  H41 UNL     1      22.577  36.391 116.375  1.00  0.00     0.179 HD
ENDBRANCH  12  18
ENDBRANCH   1  12
TORSDOF 2
ENDMDL