MODEL 5
REMARK VINA RESULT: -6.338199661      2.132      4.535
REMARK  0 active torsions:
REMARK  status: ('A' for Active; 'I' for Inactive)
REMARK       I    between atoms: C1_4  and  N3_6
REMARK       I    between atoms: N3_6  and  C2_8
ROOT
HETATM    1  N1  UNL     1      20.650  41.193 115.305  1.00  0.00    -0.373 N
ATOM      2  H11 UNL     1      21.097  41.511 114.445  1.00  0.00     0.158 HD
ATOM      3  H12 UNL     1      20.863  41.656 116.188  1.00  0.00     0.158 HD
HETATM    4  C1  UNL     1      19.817  40.218 115.322  1.00  0.00     0.200 C
HETATM    5  N2  UNL     1      19.185  39.768 116.536  1.00  0.00    -0.063 NA
HETATM    6  N3  UNL     1      19.520  39.572 114.090  1.00  0.00    -0.162 N
ATOM      7  H3  UNL     1      18.858  39.980 113.431  1.00  0.00     0.187 HD
HETATM    8  C2  UNL     1      20.114  38.449 113.828  1.00  0.00     0.702 C
HETATM    9  N4  UNL     1      19.828  37.846 112.664  1.00  0.00    -0.129 N
ATOM     10  H4  UNL     1      19.091  38.312 112.135  1.00  0.00     0.205 HD
HETATM   11  N5  UNL     1      20.307  36.768 112.064  1.00  0.00    -0.249 N
ATOM     12  H5  UNL     1      20.050  36.634 111.086  1.00  0.00     0.191 HD
HETATM   13  C3  UNL     1      21.101  35.832 112.615  1.00  0.00     0.316 C
HETATM   14  O1  UNL     1      21.424  34.890 111.846  1.00  0.00    -0.262 OA
HETATM   15  C4  UNL     1      21.609  35.759 113.898  1.00  0.00     0.308 C
HETATM   16  O2  UNL     1      22.243  34.742 114.237  1.00  0.00    -0.276 OA
HETATM   17  C5  UNL     1      21.486  36.720 114.875  1.00  0.00     0.315 C
HETATM   18  O3  UNL     1      21.887  36.417 116.010  1.00  0.00    -0.263 OA
HETATM   19  N6  UNL     1      20.973  37.979 114.749  1.00  0.00    -0.151 N
ATOM     20  H6  UNL     1      21.283  38.654 115.449  1.00  0.00     0.188 HD
ENDROOT
TORSDOF 0
ENDMDL