MODEL 2
REMARK VINA RESULT: -7.037752942      1.868      2.127
REMARK  0 active torsions:
REMARK  status: ('A' for Active; 'I' for Inactive)
REMARK       I    between atoms: C1_2  and  N2_4
ROOT
HETATM    1  N1  UNL     1      19.466  40.064 115.994  1.00  0.00    -0.040 NA
HETATM    2  C1  UNL     1      20.503  39.157 115.665  1.00  0.00     0.334 C
HETATM    3  O1  UNL     1      21.652  39.562 115.314  1.00  0.00    -0.251 OA
HETATM    4  N2  UNL     1      20.295  37.777 115.716  1.00  0.00    -0.292 N
ATOM      5  H2  UNL     1      20.277  37.370 116.651  1.00  0.00     0.172 HD
HETATM    6  C2  UNL     1      20.127  36.961 114.764  1.00  0.00     0.182 C
HETATM    7  N3  UNL     1      19.941  35.644 115.079  1.00  0.00    -0.290 N
ATOM      8  H3  UNL     1      19.610  35.449 116.024  1.00  0.00     0.172 HD
HETATM    9  C3  UNL     1      20.143  34.581 114.291  1.00  0.00     0.329 C
HETATM   10  O2  UNL     1      19.837  33.480 114.845  1.00  0.00    -0.246 OA
HETATM   11  N4  UNL     1      20.607  34.502 113.036  1.00  0.00    -0.260 N
ATOM     12  H4  UNL     1      20.872  33.577 112.696  1.00  0.00     0.175 HD
HETATM   13  C4  UNL     1      20.756  35.547 112.173  1.00  0.00     0.331 C
HETATM   14  O3  UNL     1      21.161  35.235 111.030  1.00  0.00    -0.246 OA
HETATM   15  N5  UNL     1      20.534  36.856 112.367  1.00  0.00    -0.272 N
ATOM     16  H5  UNL     1      20.680  37.455 111.555  1.00  0.00     0.174 HD
HETATM   17  C5  UNL     1      20.146  37.481 113.490  1.00  0.00     0.293 C
HETATM   18  O4  UNL     1      19.753  38.676 113.353  1.00  0.00    -0.264 OA
ENDROOT
TORSDOF 0
ENDMDL