MODEL 5
REMARK VINA RESULT: -6.039736690      2.991      5.225
REMARK  2 active torsions:
REMARK  status: ('A' for Active; 'I' for Inactive)
REMARK       I    between atoms: C1_2  and  N2_4
REMARK    1  A    between atoms: N2_4  and  C2_6
REMARK    2  A    between atoms: N5_15  and  N6_16
ROOT
HETATM    1  C2  UNL     1      20.340  37.173 113.820  1.00  0.00     0.715 A
HETATM    2  N3  UNL     1      19.362  37.967 113.303  1.00  0.00    -0.139 N
ATOM      3  H3  UNL     1      19.035  37.786 112.354  1.00  0.00     0.189 HD
HETATM    4  C3  UNL     1      18.813  38.972 113.988  1.00  0.00     0.342 A
HETATM    5  O2  UNL     1      17.903  39.713 113.514  1.00  0.00    -0.246 OA
HETATM    6  N4  UNL     1      19.241  39.215 115.241  1.00  0.00    -0.258 N
ATOM      7  H4  UNL     1      18.839  39.977 115.788  1.00  0.00     0.175 HD
HETATM    8  C4  UNL     1      20.200  38.441 115.755  1.00  0.00     0.363 A
HETATM    9  O3  UNL     1      20.630  38.642 116.939  1.00  0.00    -0.244 OA
HETATM   10  N5  UNL     1      20.773  37.407 115.067  1.00  0.00    -0.037 N
ENDROOT
BRANCH   1  11
HETATM   11  N2  UNL     1      20.824  36.227 113.111  1.00  0.00    -0.141 N
HETATM   12  C1  UNL     1      21.092  36.137 111.761  1.00  0.00     0.347 C
HETATM   13  N1  UNL     1      22.406  36.406 111.249  1.00  0.00    -0.039 NA
HETATM   14  O1  UNL     1      20.227  35.815 110.891  1.00  0.00    -0.250 OA
ATOM     15  H2  UNL     1      21.053  35.386 113.639  1.00  0.00     0.189 HD
ENDBRANCH   1  11
BRANCH  10  16
HETATM   16  N6  UNL     1      21.777  36.653 115.701  1.00  0.00    -0.320 N
ATOM     17  H62 UNL     1      21.791  36.621 116.721  1.00  0.00     0.178 HD
ATOM     18  H61 UNL     1      22.498  36.133 115.200  1.00  0.00     0.178 HD
ENDBRANCH  10  16
TORSDOF 2
ENDMDL