MODEL 5
REMARK VINA RESULT: -6.593776582      1.835      4.904
REMARK  2 active torsions:
REMARK  status: ('A' for Active; 'I' for Inactive)
REMARK    1  A    between atoms: N1_1  and  C1_4
REMARK       I    between atoms: N5_14  and  C4_16
REMARK    2  A    between atoms: C4_16  and  C5_18
ROOT
HETATM    1  C1  UNL     1      21.387  36.811 115.629  1.00  0.00     0.149 A
HETATM    2  N2  UNL     1      21.045  37.970 116.221  1.00  0.00    -0.291 N
ATOM      3  H2  UNL     1      21.549  38.301 117.044  1.00  0.00     0.172 HD
HETATM    4  C2  UNL     1      20.031  38.681 115.710  1.00  0.00     0.340 A
HETATM    5  O1  UNL     1      19.735  39.760 116.284  1.00  0.00    -0.245 OA
HETATM    6  N3  UNL     1      19.384  38.225 114.626  1.00  0.00    -0.250 N
ATOM      7  H3  UNL     1      18.615  38.778 114.248  1.00  0.00     0.192 HD
HETATM    8  N4  UNL     1      19.701  37.088 114.025  1.00  0.00    -0.278 N
ATOM      9  H4  UNL     1      19.183  36.776 113.203  1.00  0.00     0.189 HD
HETATM   10  C3  UNL     1      20.714  36.350 114.513  1.00  0.00     0.167 A
HETATM   11  N5  UNL     1      21.099  35.237 114.007  1.00  0.00    -0.301 N
ATOM     12  H5  UNL     1      21.879  34.765 114.465  1.00  0.00     0.171 HD
HETATM   13  C4  UNL     1      20.544  34.613 112.884  1.00  0.00     0.312 C
HETATM   14  O2  UNL     1      19.838  33.579 112.990  1.00  0.00    -0.262 OA
ENDROOT
BRANCH   1  15
HETATM   15  N1  UNL     1      22.382  36.140 116.155  1.00  0.00    -0.382 N
ATOM     16  H12 UNL     1      23.039  36.578 116.802  1.00  0.00     0.157 HD
ATOM     17  H11 UNL     1      22.475  35.159 115.892  1.00  0.00     0.157 HD
ENDBRANCH   1  15
BRANCH  13  18
HETATM   18  C5  UNL     1      20.761  35.135 111.541  1.00  0.00     0.322 C
HETATM   19  N6  UNL     1      20.991  36.516 111.294  1.00  0.00    -0.053 NA
HETATM   20  O3  UNL     1      20.744  34.334 110.547  1.00  0.00    -0.266 OA
ENDBRANCH  13  18
TORSDOF 2
ENDMDL