MODEL 4
REMARK VINA RESULT: -5.720686224      1.995      2.908
REMARK  1 active torsions:
REMARK  status: ('A' for Active; 'I' for Inactive)
REMARK    1  A    between atoms: N3_12  and  N4_14
ROOT
HETATM    1  C1  UNL     1      20.112  36.141 110.498  1.00  0.00     0.064 C
HETATM    2  C2  UNL     1      20.673  36.294 111.671  1.00  0.00     0.101 C
HETATM    3  N1  UNL     1      19.817  36.986 112.584  1.00  0.00    -0.305 N
ATOM      4  H1  UNL     1      18.966  37.342 112.148  1.00  0.00     0.170 HD
HETATM    5  C3  UNL     1      19.903  37.281 113.974  1.00  0.00     0.315 C
HETATM    6  O1  UNL     1      18.969  38.064 114.364  1.00  0.00    -0.262 OA
HETATM    7  C4  UNL     1      20.804  36.902 115.057  1.00  0.00     0.315 C
HETATM    8  O2  UNL     1      20.425  37.363 116.142  1.00  0.00    -0.262 OA
HETATM    9  N2  UNL     1      22.016  36.126 115.159  1.00  0.00    -0.299 N
ATOM     10  H2  UNL     1      22.353  36.053 116.119  1.00  0.00     0.171 HD
HETATM   11  C5  UNL     1      22.857  35.435 114.230  1.00  0.00     0.192 C
HETATM   12  N3  UNL     1      23.677  34.615 114.778  1.00  0.00    -0.287 N
ATOM     13  H3  UNL     1      23.690  34.501 115.791  1.00  0.00     0.188 HD
HETATM   14  C6  UNL     1      22.945  35.500 112.777  1.00  0.00     0.292 C
HETATM   15  O3  UNL     1      24.117  35.304 112.363  1.00  0.00    -0.264 OA
HETATM   16  N5  UNL     1      21.979  35.741 111.743  1.00  0.00    -0.307 N
ATOM     17  H5  UNL     1      22.316  35.437 110.829  1.00  0.00     0.170 HD
ENDROOT
BRANCH  12  18
HETATM   18  N4  UNL     1      24.547  33.884 113.980  1.00  0.00    -0.343 N
ATOM     19  H42 UNL     1      24.730  34.195 113.026  1.00  0.00     0.176 HD
ATOM     20  H41 UNL     1      24.990  33.047 114.358  1.00  0.00     0.176 HD
ENDBRANCH  12  18
TORSDOF 1
ENDMDL