MODEL 2
REMARK VINA RESULT: -6.738248456      2.663      4.715
REMARK  1 active torsions:
REMARK  status: ('A' for Active; 'I' for Inactive)
REMARK    1  A    between atoms: C6_13  and  C7_14
ROOT
HETATM    1  C1  UNL     1      20.621  35.203 111.707  1.00  0.00     0.045 C
HETATM    2  C2  UNL     1      20.828  36.240 112.441  1.00  0.00     0.055 C
HETATM    3  N1  UNL     1      19.849  37.189 112.491  1.00  0.00    -0.319 N
ATOM      4  H1  UNL     1      19.212  37.223 111.696  1.00  0.00     0.169 HD
HETATM    5  C3  UNL     1      19.626  38.099 113.486  1.00  0.00     0.302 C
HETATM    6  O1  UNL     1      18.753  38.949 113.275  1.00  0.00    -0.264 OA
HETATM    7  C4  UNL     1      20.270  38.182 114.711  1.00  0.00     0.306 C
HETATM    8  O2  UNL     1      19.842  39.016 115.542  1.00  0.00    -0.276 OA
HETATM    9  C5  UNL     1      21.356  37.453 115.172  1.00  0.00     0.302 C
HETATM   10  O3  UNL     1      21.634  37.493 116.397  1.00  0.00    -0.264 OA
HETATM   11  N2  UNL     1      22.179  36.669 114.404  1.00  0.00    -0.316 N
ATOM     12  H2  UNL     1      23.014  36.315 114.872  1.00  0.00     0.169 HD
HETATM   13  C6  UNL     1      22.033  36.298 113.100  1.00  0.00     0.100 C
ENDROOT
BRANCH  13  14
HETATM   14  C7  UNL     1      23.129  36.011 112.426  1.00  0.00     0.157 C
HETATM   15  N3  UNL     1      23.976  34.986 112.976  1.00  0.00    -0.084 NA
HETATM   16  N4  UNL     1      23.591  36.614 111.252  1.00  0.00    -0.084 NA
ENDBRANCH  13  14
TORSDOF 1
ENDMDL