MODEL 4
REMARK VINA RESULT: -6.884598049      1.376      1.470
REMARK  1 active torsions:
REMARK  status: ('A' for Active; 'I' for Inactive)
REMARK       I    between atoms: C1_4  and  N2_5
REMARK       I    between atoms: C1_4  and  N7_20
REMARK    1  A    between atoms: N7_20  and  N8_22
ROOT
HETATM    1  N1  UNL     1      20.678  35.257 112.014  1.00  0.00    -0.233 N
ATOM      2  H11 UNL     1      20.743  34.839 111.086  1.00  0.00     0.174 HD
ATOM      3  H12 UNL     1      19.803  35.150 112.527  1.00  0.00     0.174 HD
HETATM    4  C1  UNL     1      21.652  35.912 112.565  1.00  0.00     0.704 C
HETATM    5  N2  UNL     1      21.562  36.484 113.836  1.00  0.00    -0.019 N
ATOM      6  H2  UNL     1      22.216  36.153 114.545  1.00  0.00     0.203 HD
HETATM    7  C2  UNL     1      20.721  37.395 114.189  1.00  0.00     0.726 C
HETATM    8  N3  UNL     1      19.793  37.884 113.228  1.00  0.00    -0.127 N
ATOM      9  H3  UNL     1      19.984  37.615 112.263  1.00  0.00     0.205 HD
HETATM   10  N4  UNL     1      18.641  38.690 113.412  1.00  0.00    -0.247 N
ATOM     11  H4  UNL     1      17.957  38.692 112.655  1.00  0.00     0.191 HD
HETATM   12  C3  UNL     1      18.342  39.496 114.547  1.00  0.00     0.329 C
HETATM   13  O1  UNL     1      17.261  40.150 114.506  1.00  0.00    -0.261 OA
HETATM   14  C4  UNL     1      19.103  39.691 115.783  1.00  0.00     0.329 C
HETATM   15  O2  UNL     1      18.807  40.698 116.478  1.00  0.00    -0.261 OA
HETATM   16  N5  UNL     1      20.140  38.833 116.247  1.00  0.00    -0.247 N
ATOM     17  H5  UNL     1      20.427  38.968 117.217  1.00  0.00     0.191 HD
HETATM   18  N6  UNL     1      20.823  37.821 115.539  1.00  0.00    -0.127 N
ATOM     19  H6  UNL     1      21.507  37.306 116.093  1.00  0.00     0.205 HD
HETATM   20  N7  UNL     1      22.873  36.061 111.848  1.00  0.00    -0.139 N
ATOM     21  H7  UNL     1      23.766  36.097 112.340  1.00  0.00     0.205 HD
ENDROOT
BRANCH  20  22
HETATM   22  N8  UNL     1      22.820  36.156 110.443  1.00  0.00    -0.331 N
ATOM     23  H82 UNL     1      22.247  35.500 109.912  1.00  0.00     0.177 HD
ATOM     24  H81 UNL     1      23.362  36.888 109.985  1.00  0.00     0.177 HD
ENDBRANCH  20  22
TORSDOF 1
ENDMDL