MODEL 1
REMARK VINA RESULT: -9.917026080      0.000      0.000
REMARK  14 active torsions:
REMARK  status: ('A' for Active; 'I' for Inactive)
REMARK    1  A    between atoms: C3_3  and  N1_4
REMARK       I    between atoms: N1_4  and  C4_6
REMARK    2  A    between atoms: C4_6  and  C5_8
REMARK    3  A    between atoms: C5_8  and  N2_9
REMARK    4  A    between atoms: C5_8  and  C33_47
REMARK       I    between atoms: N2_9  and  C6_11
REMARK    5  A    between atoms: C6_11  and  C7_13
REMARK       I    between atoms: N3_17  and  C11_18
REMARK    6  A    between atoms: C11_18  and  C12_20
REMARK       I    between atoms: N4_23  and  C15_24
REMARK    7  A    between atoms: C15_24  and  C16_26
REMARK    8  A    between atoms: C16_26  and  N5_27
REMARK    9  A    between atoms: C16_26  and  C29_43
REMARK       I    between atoms: N5_27  and  C17_29
REMARK   10  A    between atoms: C17_29  and  C18_31
REMARK   11  A    between atoms: C18_31  and  C19_32
REMARK   12  A    between atoms: C19_32  and  N6_33
REMARK   13  A    between atoms: C25_39  and  C26_40
REMARK   14  A    between atoms: C26_40  and  C27_41
ROOT
HETATM    1  C1  UNL     1      16.074 -24.426 -21.388  1.00  0.00     0.014 C
HETATM    2  C2  UNL     1      15.965 -24.697 -20.230  1.00  0.00    -0.098 C
HETATM    3  C3  UNL     1      15.805 -25.022 -18.807  1.00  0.00     0.216 C
ENDROOT
BRANCH   3   4
HETATM    4  N1  UNL     1      15.160 -23.889 -18.139  1.00  0.00    -0.349 N
HETATM    5  C4  UNL     1      15.907 -22.793 -17.641  1.00  0.00     0.241 C
HETATM    6  O1  UNL     1      17.166 -22.853 -17.796  1.00  0.00    -0.271 OA
ATOM      7  H1  UNL     1      14.146 -23.889 -18.030  1.00  0.00     0.163 HD
BRANCH   5   8
HETATM    8  C5  UNL     1      15.252 -21.662 -16.983  1.00  0.00     0.184 C
BRANCH   8   9
HETATM    9  N2  UNL     1      13.787 -21.728 -17.098  1.00  0.00    -0.345 N
HETATM   10  C6  UNL     1      13.089 -20.977 -18.054  1.00  0.00     0.241 C
HETATM   11  O2  UNL     1      13.769 -20.234 -18.835  1.00  0.00    -0.271 OA
ATOM     12  H2  UNL     1      13.265 -22.336 -16.465  1.00  0.00     0.163 HD
BRANCH  10  13
HETATM   13  C7  UNL     1      11.654 -20.983 -18.209  1.00  0.00     0.179 C
HETATM   14  C8  UNL     1      11.260 -20.722 -19.675  1.00  0.00     0.037 C
HETATM   15  C9  UNL     1       9.887 -20.118 -19.574  1.00  0.00     0.022 C
HETATM   16  C10 UNL     1       9.540 -20.183 -18.078  1.00  0.00     0.127 C
HETATM   17  N3  UNL     1      10.864 -20.017 -17.522  1.00  0.00    -0.338 N
HETATM   18  C11 UNL     1      11.226 -19.142 -16.506  1.00  0.00     0.226 C
HETATM   19  O3  UNL     1      12.451 -19.222 -16.104  1.00  0.00    -0.273 OA
BRANCH  18  20
HETATM   20  C12 UNL     1      10.422 -18.129 -15.811  1.00  0.00     0.097 C
HETATM   21  C13 UNL     1       9.443 -18.671 -14.816  1.00  0.00     0.035 C
HETATM   22  C14 UNL     1       8.143 -17.909 -14.979  1.00  0.00     0.127 C
HETATM   23  N4  UNL     1       8.374 -16.904 -15.978  1.00  0.00    -0.350 N
HETATM   24  C15 UNL     1       7.564 -15.756 -16.192  1.00  0.00     0.243 C
HETATM   25  C32 UNL     1       9.581 -17.279 -16.721  1.00  0.00     0.139 C
HETATM   26  O4  UNL     1       7.891 -15.012 -17.165  1.00  0.00    -0.271 OA
BRANCH  24  27
HETATM   27  C16 UNL     1       6.392 -15.371 -15.385  1.00  0.00     0.180 C
BRANCH  27  28
HETATM   28  N5  UNL     1       5.250 -15.212 -16.309  1.00  0.00    -0.347 N
HETATM   29  C17 UNL     1       4.312 -16.255 -16.483  1.00  0.00     0.219 C
HETATM   30  O5  UNL     1       4.481 -17.325 -15.824  1.00  0.00    -0.274 OA
ATOM     31  H5  UNL     1       5.137 -14.340 -16.826  1.00  0.00     0.163 HD
BRANCH  29  32
HETATM   32  C18 UNL     1       3.139 -16.183 -17.388  1.00  0.00     0.130 C
BRANCH  32  33
HETATM   33  C19 UNL     1       2.501 -17.539 -17.563  1.00  0.00     0.246 C
BRANCH  33  34
HETATM   34  N6  UNL     1       2.213 -17.836 -18.934  1.00  0.00    -0.066 N
HETATM   35  C20 UNL     1       0.800 -17.941 -19.233  1.00  0.00     0.273 C
HETATM   36  C21 UNL     1       2.663 -16.649 -19.692  1.00  0.00     0.237 C
HETATM   37  C22 UNL     1       2.776 -17.030 -21.148  1.00  0.00     0.028 C
HETATM   38  C23 UNL     1       4.048 -17.857 -21.356  1.00  0.00     0.004 C
HETATM   39  C24 UNL     1       4.315 -18.520 -20.022  1.00  0.00     0.034 C
HETATM   40  C25 UNL     1       2.953 -18.925 -19.470  1.00  0.00     0.193 C
BRANCH  40  41
HETATM   41  C26 UNL     1       3.141 -20.121 -18.605  1.00  0.00     0.059 C
BRANCH  41  42
HETATM   42  C27 UNL     1       2.808 -21.401 -19.250  1.00  0.00    -0.035 C
HETATM   43  C28 UNL     1       3.455 -22.503 -18.930  1.00  0.00     0.007 C
ENDBRANCH  41  42
ENDBRANCH  40  41
ENDBRANCH  33  34
ENDBRANCH  32  33
ENDBRANCH  29  32
ENDBRANCH  27  28
BRANCH  27  44
HETATM   44  C29 UNL     1       6.653 -13.957 -14.828  1.00  0.00     0.009 C
HETATM   45  C30 UNL     1       5.352 -13.249 -14.573  1.00  0.00     0.012 C
HETATM   46  C31 UNL     1       7.402 -14.033 -13.502  1.00  0.00     0.012 C
ENDBRANCH  27  44
ENDBRANCH  24  27
ENDBRANCH  18  20
ENDBRANCH  10  13
ENDBRANCH   8   9
BRANCH   8  47
HETATM   47  C33 UNL     1      15.535 -21.655 -15.488  1.00  0.00    -0.022 C
HETATM   48  C34 UNL     1      14.271 -22.071 -14.781  1.00  0.00     0.017 C
HETATM   49  C35 UNL     1      16.702 -22.517 -15.144  1.00  0.00     0.017 C
HETATM   50  C36 UNL     1      15.857 -20.206 -15.108  1.00  0.00     0.017 C
ENDBRANCH   8  47
ENDBRANCH   5   8
ENDBRANCH   3   4
TORSDOF 14
ENDMDL