MODEL 5
REMARK VINA RESULT: -9.183455710      2.949      8.048
REMARK  11 active torsions:
REMARK  status: ('A' for Active; 'I' for Inactive)
REMARK    1  A    between atoms: C2_2  and  C3_3
REMARK    2  A    between atoms: C3_3  and  C4_4
REMARK    3  A    between atoms: C3_3  and  C23_29
REMARK    4  A    between atoms: C3_3  and  N7_46
REMARK    5  A    between atoms: C4_4  and  N1_5
REMARK       I    between atoms: N1_5  and  C5_7
REMARK    6  A    between atoms: C5_7  and  C6_9
REMARK    7  A    between atoms: C10_13  and  C11_14
REMARK    8  A    between atoms: C11_14  and  C12_15
REMARK    9  A    between atoms: C15_19  and  N3_20
REMARK   10  A    between atoms: C23_29  and  C24_30
REMARK       I    between atoms: C24_30  and  N4_32
REMARK       I    between atoms: N5_35  and  C27_36
REMARK       I    between atoms: C27_36  and  N6_38
REMARK   11  A    between atoms: N6_38  and  C28_40
REMARK       I    between atoms: N7_46  and  C33_48
ROOT
HETATM    1  C3  UNL     1       5.682 -15.974 -16.355  1.00  0.00     0.056 C
ENDROOT
BRANCH   1   2
HETATM    2  C2  UNL     1       6.848 -15.722 -17.267  1.00  0.00     0.028 C
HETATM    3  C1  UNL     1       7.180 -16.740 -18.291  1.00  0.00     0.007 C
ENDBRANCH   1   2
BRANCH   1   4
HETATM    4  C4  UNL     1       6.225 -16.747 -15.141  1.00  0.00     0.154 C
BRANCH   4   5
HETATM    5  N1  UNL     1       7.648 -16.974 -15.296  1.00  0.00    -0.358 N
HETATM    6  C5  UNL     1       8.275 -18.121 -14.691  1.00  0.00     0.222 C
HETATM    7  O1  UNL     1       7.595 -18.919 -14.019  1.00  0.00    -0.273 OA
ATOM      8  H1  UNL     1       8.209 -16.317 -15.838  1.00  0.00     0.162 HD
BRANCH   6   9
HETATM    9  C6  UNL     1       9.724 -18.302 -14.905  1.00  0.00     0.082 C
HETATM   10  C7  UNL     1      10.341 -18.419 -13.518  1.00  0.00     0.014 C
HETATM   11  C8  UNL     1      11.741 -18.901 -13.713  1.00  0.00     0.005 C
HETATM   12  C9  UNL     1      12.570 -18.075 -14.677  1.00  0.00     0.034 C
HETATM   13  C10 UNL     1      11.846 -17.475 -15.819  1.00  0.00    -0.078 C
HETATM   14  C22 UNL     1      10.383 -17.185 -15.615  1.00  0.00     0.048 C
BRANCH  13  15
HETATM   15  C11 UNL     1      12.162 -17.973 -17.179  1.00  0.00     0.020 C
BRANCH  15  16
HETATM   16  C12 UNL     1      12.085 -19.397 -17.537  1.00  0.00     0.090 C
HETATM   17  N2  UNL     1      13.106 -20.292 -17.621  1.00  0.00    -0.370 N
HETATM   18  C13 UNL     1      14.034 -20.376 -18.667  1.00  0.00     0.065 C
HETATM   19  C21 UNL     1      13.409 -21.196 -16.570  1.00  0.00     0.129 C
HETATM   20  C14 UNL     1      13.939 -21.768 -19.280  1.00  0.00     0.070 C
HETATM   21  C15 UNL     1      14.237 -22.796 -18.233  1.00  0.00     0.093 C
HETATM   22  C20 UNL     1      14.581 -22.115 -16.939  1.00  0.00     0.045 C
BRANCH  21  23
HETATM   23  N3  UNL     1      15.327 -23.651 -18.672  1.00  0.00    -0.347 N
HETATM   24  C16 UNL     1      16.593 -23.754 -17.965  1.00  0.00     0.127 C
HETATM   25  C17 UNL     1      17.557 -24.388 -18.924  1.00  0.00     0.029 C
HETATM   26  C18 UNL     1      16.816 -24.612 -20.201  1.00  0.00     0.104 C
HETATM   27  C19 UNL     1      15.393 -24.496 -19.805  1.00  0.00     0.220 C
HETATM   28  O2  UNL     1      14.423 -25.042 -20.361  1.00  0.00    -0.273 OA
ENDBRANCH  21  23
ENDBRANCH  15  16
ENDBRANCH  13  15
ENDBRANCH   6   9
ENDBRANCH   4   5
ENDBRANCH   1   4
BRANCH   1  29
HETATM   29  C23 UNL     1       4.595 -16.816 -16.903  1.00  0.00     0.136 C
BRANCH  29  30
HETATM   30  C24 UNL     1       3.855 -16.412 -18.079  1.00  0.00     0.229 C
HETATM   31  O3  UNL     1       3.741 -15.197 -18.382  1.00  0.00    -0.273 OA
HETATM   32  N4  UNL     1       3.209 -17.311 -18.975  1.00  0.00    -0.285 N
HETATM   33  C25 UNL     1       2.495 -16.798 -20.120  1.00  0.00     0.155 C
HETATM   34  C32 UNL     1       3.238 -18.720 -18.788  1.00  0.00     0.244 C
HETATM   35  C26 UNL     1       3.053 -17.481 -21.346  1.00  0.00     0.148 C
HETATM   36  N5  UNL     1       2.850 -18.924 -21.170  1.00  0.00    -0.324 N
HETATM   37  C27 UNL     1       2.128 -19.623 -22.174  1.00  0.00     0.319 C
HETATM   38  C31 UNL     1       3.374 -19.586 -20.014  1.00  0.00     0.231 C
HETATM   39  O4  UNL     1       1.674 -18.961 -23.173  1.00  0.00    -0.247 OA
HETATM   40  N6  UNL     1       1.883 -21.008 -22.127  1.00  0.00    -0.339 N
ATOM     41  H6  UNL     1       2.234 -21.559 -21.343  1.00  0.00     0.164 HD
HETATM   42  O5  UNL     1       3.153 -19.203 -17.631  1.00  0.00    -0.271 OA
BRANCH  40  43
HETATM   43  C28 UNL     1       1.131 -21.663 -23.194  1.00  0.00     0.078 C
HETATM   44  C29 UNL     1      -0.295 -21.921 -22.719  1.00  0.00     0.032 C
HETATM   45  C30 UNL     1       1.812 -22.960 -23.566  1.00  0.00     0.032 C
ENDBRANCH  40  43
ENDBRANCH  29  30
ENDBRANCH   1  29
BRANCH   1  46
HETATM   46  N7  UNL     1       5.199 -14.722 -15.778  1.00  0.00    -0.350 N
HETATM   47  C33 UNL     1       5.964 -13.717 -15.196  1.00  0.00     0.214 C
HETATM   48  C34 UNL     1       5.293 -12.513 -14.658  1.00  0.00     0.117 C
HETATM   49  O6  UNL     1       7.197 -13.788 -15.105  1.00  0.00    -0.274 OA
ATOM     50  H7  UNL     1       4.191 -14.568 -15.805  1.00  0.00     0.163 HD
ENDBRANCH   1  46
TORSDOF 11
ENDMDL