MODEL 4
REMARK VINA RESULT: -6.671050994      1.060      1.321
REMARK  14 active torsions:
REMARK  status: ('A' for Active; 'I' for Inactive)
REMARK    1  A    between atoms: C3_3  and  C4_4
REMARK    2  A    between atoms: C3_3  and  C28_43
REMARK    3  A    between atoms: C4_4  and  N1_5
REMARK    4  A    between atoms: C16_26  and  O4_27
REMARK    5  A    between atoms: C17_29  and  C18_30
REMARK    6  A    between atoms: C18_30  and  C19_31
REMARK    7  A    between atoms: C23_38  and  C24_39
REMARK    8  A    between atoms: C24_39  and  C25_40
REMARK    9  A    between atoms: C28_43  and  O6_44
REMARK   10  A    between atoms: C28_43  and  N7_46
REMARK   11  A    between atoms: N7_46  and  C29_47
REMARK   12  A    between atoms: N7_46  and  C32_50
REMARK   13  A    between atoms: C29_47  and  C30_48
REMARK   14  A    between atoms: C32_50  and  C33_51
ROOT
HETATM    1  C1  UNL     1       9.574 -20.545 -16.269  1.00  0.00     0.013 C
HETATM    2  C2  UNL     1       9.479 -19.616 -17.029  1.00  0.00    -0.103 C
HETATM    3  C3  UNL     1       9.398 -18.444 -17.973  1.00  0.00     0.153 C
ENDROOT
BRANCH   3   4
HETATM    4  C4  UNL     1       8.769 -17.311 -17.221  1.00  0.00     0.140 C
BRANCH   4   5
HETATM    5  N1  UNL     1       7.328 -17.229 -17.501  1.00  0.00    -0.213 NA
HETATM    6  N2  UNL     1       7.238 -16.903 -18.861  1.00  0.00    -0.287 N
HETATM    7  C5  UNL     1       6.569 -17.543 -19.879  1.00  0.00     0.254 C
ATOM      8  H2  UNL     1       7.745 -16.062 -19.138  1.00  0.00     0.184 HD
HETATM    9  O1  UNL     1       7.192 -17.746 -20.983  1.00  0.00    -0.270 OA
HETATM   10  C6  UNL     1       5.165 -18.068 -19.909  1.00  0.00     0.174 C
HETATM   11  C7  UNL     1       5.358 -19.584 -20.084  1.00  0.00     0.042 C
HETATM   12  N3  UNL     1       4.464 -17.583 -21.086  1.00  0.00    -0.346 N
HETATM   13  C8  UNL     1       3.078 -17.462 -21.296  1.00  0.00     0.240 C
ATOM     14  H3  UNL     1       5.055 -17.290 -21.864  1.00  0.00     0.163 HD
HETATM   15  O2  UNL     1       2.687 -16.271 -21.606  1.00  0.00    -0.271 OA
HETATM   16  C9  UNL     1       2.025 -18.466 -21.222  1.00  0.00     0.174 C
HETATM   17  C10 UNL     1       2.367 -19.669 -22.126  1.00  0.00     0.042 C
HETATM   18  N4  UNL     1       1.567 -18.876 -19.918  1.00  0.00    -0.342 N
HETATM   19  C11 UNL     1       1.247 -20.333 -19.863  1.00  0.00     0.153 C
HETATM   20  C12 UNL     1       1.390 -18.107 -18.751  1.00  0.00     0.242 C
HETATM   21  O3  UNL     1       1.852 -18.714 -17.715  1.00  0.00    -0.271 OA
HETATM   22  C13 UNL     1       0.803 -16.799 -18.499  1.00  0.00     0.173 C
HETATM   23  C14 UNL     1      -0.345 -16.506 -19.480  1.00  0.00     0.042 C
HETATM   24  N5  UNL     1       1.662 -15.667 -18.294  1.00  0.00    -0.355 N
HETATM   25  C15 UNL     1       1.132 -14.410 -18.915  1.00  0.00     0.152 C
HETATM   26  C16 UNL     1       2.865 -15.518 -17.638  1.00  0.00     0.137 C
HETATM   27  C17 UNL     1       3.335 -15.742 -16.251  1.00  0.00     0.159 C
HETATM   28  N6  UNL     1       4.331 -16.741 -16.074  1.00  0.00    -0.348 N
HETATM   29  C22 UNL     1       5.697 -16.730 -15.911  1.00  0.00     0.237 C
ATOM     30  H6  UNL     1       3.944 -17.684 -16.066  1.00  0.00     0.163 HD
HETATM   31  O5  UNL     1       6.153 -17.349 -14.868  1.00  0.00    -0.272 OA
HETATM   32  C23 UNL     1       6.771 -16.120 -16.747  1.00  0.00     0.172 C
BRANCH  26  33
HETATM   33  O4  UNL     1       3.808 -15.072 -18.415  1.00  0.00    -0.348 OA
ATOM     34  H4  UNL     1       4.430 -15.748 -18.660  1.00  0.00     0.219 HD
ENDBRANCH  26  33
BRANCH  27  35
HETATM   35  C18 UNL     1       2.173 -15.901 -15.270  1.00  0.00     0.037 C
BRANCH  35  36
HETATM   36  C19 UNL     1       1.648 -14.593 -14.750  1.00  0.00    -0.020 C
HETATM   37  C20 UNL     1       0.172 -14.550 -15.199  1.00  0.00     0.009 C
HETATM   38  C21 UNL     1       2.329 -13.472 -15.481  1.00  0.00     0.009 C
ENDBRANCH  35  36
ENDBRANCH  27  35
BRANCH  32  39
HETATM   39  C24 UNL     1       7.749 -15.524 -15.741  1.00  0.00     0.035 C
BRANCH  39  40
HETATM   40  C25 UNL     1       6.942 -14.809 -14.657  1.00  0.00    -0.021 C
HETATM   41  C26 UNL     1       6.320 -13.542 -15.225  1.00  0.00     0.009 C
HETATM   42  C27 UNL     1       7.928 -14.356 -13.601  1.00  0.00     0.009 C
ENDBRANCH  39  40
ENDBRANCH  32  39
ENDBRANCH   4   5
ENDBRANCH   3   4
BRANCH   3  43
HETATM   43  C28 UNL     1      10.778 -18.143 -18.346  1.00  0.00     0.130 C
BRANCH  43  44
HETATM   44  O6  UNL     1      10.897 -17.789 -19.631  1.00  0.00    -0.348 OA
ATOM     45  H6  UNL     1      11.627 -18.218 -20.062  1.00  0.00     0.219 HD
ENDBRANCH  43  44
BRANCH  43  46
HETATM   46  N7  UNL     1      11.977 -18.151 -17.624  1.00  0.00    -0.364 N
BRANCH  46  47
HETATM   47  C29 UNL     1      13.088 -18.989 -17.971  1.00  0.00     0.124 C
BRANCH  47  48
HETATM   48  C30 UNL     1      12.753 -20.418 -18.286  1.00  0.00     0.015 C
HETATM   49  C31 UNL     1      13.419 -21.001 -19.478  1.00  0.00     0.006 C
ENDBRANCH  47  48
ENDBRANCH  46  47
BRANCH  46  50
HETATM   50  C32 UNL     1      12.091 -17.255 -16.472  1.00  0.00     0.124 C
BRANCH  50  51
HETATM   51  C33 UNL     1      12.110 -17.902 -15.148  1.00  0.00     0.015 C
HETATM   52  C34 UNL     1      11.093 -17.497 -14.146  1.00  0.00     0.006 C
ENDBRANCH  50  51
ENDBRANCH  46  50
ENDBRANCH  43  46
ENDBRANCH   3  43
TORSDOF 14
ENDMDL