MODEL 1
REMARK VINA RESULT: -8.776819333      0.000      0.000
REMARK  14 active torsions:
REMARK  status: ('A' for Active; 'I' for Inactive)
REMARK    1  A    between atoms: C3_3  and  C4_4
REMARK    2  A    between atoms: C5_5  and  C6_6
REMARK    3  A    between atoms: C6_6  and  N1_7
REMARK    4  A    between atoms: N1_7  and  C7_8
REMARK       I    between atoms: N1_7  and  C9_10
REMARK    5  A    between atoms: C9_10  and  C10_12
REMARK    6  A    between atoms: C10_12  and  C11_13
REMARK    7  A    between atoms: C10_12  and  N5_41
REMARK    8  A    between atoms: C11_13  and  C12_14
REMARK    9  A    between atoms: C15_17  and  C16_18
REMARK   10  A    between atoms: C15_17  and  C17_21
REMARK       I    between atoms: C17_21  and  N2_23
REMARK   11  A    between atoms: N3_28  and  C22_29
REMARK   12  A    between atoms: C22_29  and  C23_30
REMARK       I    between atoms: C23_30  and  N4_32
REMARK       I    between atoms: N5_41  and  C31_43
REMARK   13  A    between atoms: C31_43  and  C32_45
REMARK   14  A    between atoms: C32_45  and  N6_47
ROOT
HETATM    1  C1  UNL     1       0.046 -22.941 -19.285  1.00  0.00     0.113 C
HETATM    2  C2  UNL     1       1.002 -21.883 -19.652  1.00  0.00    -0.097 C
HETATM    3  C3  UNL     1       1.782 -21.006 -19.931  1.00  0.00    -0.015 C
ENDROOT
BRANCH   3   4
HETATM    4  C4  UNL     1       2.707 -19.958 -20.234  1.00  0.00    -0.013 C
HETATM    5  C5  UNL     1       3.506 -19.092 -20.491  1.00  0.00    -0.073 C
BRANCH   5   6
HETATM    6  C6  UNL     1       4.494 -18.066 -20.814  1.00  0.00     0.221 C
BRANCH   6   7
HETATM    7  N1  UNL     1       5.410 -17.974 -19.680  1.00  0.00    -0.340 N
HETATM    8  C9  UNL     1       6.786 -17.884 -19.951  1.00  0.00     0.243 C
HETATM    9  O1  UNL     1       7.140 -17.933 -21.183  1.00  0.00    -0.271 OA
BRANCH   7  10
HETATM   10  C7  UNL     1       4.830 -18.010 -18.367  1.00  0.00     0.122 C
HETATM   11  C8  UNL     1       3.926 -16.800 -18.126  1.00  0.00     0.026 C
ENDBRANCH   7  10
BRANCH   8  12
HETATM   12  C10 UNL     1       7.871 -17.742 -18.990  1.00  0.00     0.177 C
BRANCH  12  13
HETATM   13  C11 UNL     1       8.727 -18.942 -18.818  1.00  0.00     0.049 C
BRANCH  13  14
HETATM   14  C12 UNL     1       9.308 -19.258 -17.497  1.00  0.00     0.080 C
HETATM   15  C13 UNL     1      10.219 -18.253 -16.867  1.00  0.00     0.017 C
HETATM   16  C14 UNL     1      11.594 -18.475 -17.455  1.00  0.00     0.054 C
HETATM   17  C15 UNL     1      12.172 -19.734 -16.844  1.00  0.00     0.205 C
HETATM   18  N3  UNL     1      11.387 -20.815 -17.477  1.00  0.00    -0.316 N
HETATM   19  C30 UNL     1      10.001 -20.584 -17.653  1.00  0.00     0.226 C
HETATM   20  O6  UNL     1       9.215 -21.541 -17.973  1.00  0.00    -0.273 OA
BRANCH  17  21
HETATM   21  C16 UNL     1      13.610 -19.808 -17.142  1.00  0.00     0.212 C
HETATM   22  O2  UNL     1      14.033 -19.380 -18.280  1.00  0.00    -0.646 OA
HETATM   23  O3  UNL     1      14.617 -20.289 -16.343  1.00  0.00    -0.646 OA
ENDBRANCH  17  21
BRANCH  17  24
HETATM   24  C17 UNL     1      11.964 -19.834 -15.379  1.00  0.00     0.259 C
HETATM   25  O4  UNL     1      11.838 -21.024 -14.901  1.00  0.00    -0.270 OA
HETATM   26  N2  UNL     1      11.897 -18.750 -14.485  1.00  0.00    -0.349 N
HETATM   27  C18 UNL     1      11.953 -17.325 -14.632  1.00  0.00     0.126 C
HETATM   28  C21 UNL     1      11.767 -18.986 -13.019  1.00  0.00     0.126 C
HETATM   29  C19 UNL     1      11.132 -16.719 -13.480  1.00  0.00     0.021 C
HETATM   30  C20 UNL     1      11.413 -17.693 -12.389  1.00  0.00     0.021 C
ENDBRANCH  17  24
BRANCH  18  31
HETATM   31  C22 UNL     1      11.892 -22.083 -17.904  1.00  0.00     0.230 C
BRANCH  31  32
HETATM   32  C23 UNL     1      12.216 -22.123 -19.359  1.00  0.00     0.237 C
HETATM   33  O5  UNL     1      11.339 -21.845 -20.211  1.00  0.00    -0.272 OA
HETATM   34  N4  UNL     1      13.514 -22.476 -19.758  1.00  0.00    -0.351 N
HETATM   35  C24 UNL     1      13.711 -22.465 -21.211  1.00  0.00     0.126 C
HETATM   36  C29 UNL     1      14.532 -22.815 -18.798  1.00  0.00     0.126 C
HETATM   37  C25 UNL     1      14.841 -23.378 -21.612  1.00  0.00     0.020 C
HETATM   38  C26 UNL     1      14.595 -24.786 -21.086  1.00  0.00     0.002 C
HETATM   39  C27 UNL     1      15.350 -24.948 -19.800  1.00  0.00     0.002 C
HETATM   40  C28 UNL     1      14.575 -24.339 -18.654  1.00  0.00     0.020 C
ENDBRANCH  31  32
ENDBRANCH  18  31
ENDBRANCH  13  14
ENDBRANCH  12  13
BRANCH  12  41
HETATM   41  N5  UNL     1       7.463 -17.128 -17.749  1.00  0.00    -0.346 N
HETATM   42  C31 UNL     1       7.437 -15.697 -17.578  1.00  0.00     0.240 C
HETATM   43  O7  UNL     1       7.776 -14.982 -18.541  1.00  0.00    -0.271 OA
ATOM     44  H5  UNL     1       7.185 -17.724 -16.970  1.00  0.00     0.163 HD
BRANCH  42  45
HETATM   45  C32 UNL     1       7.021 -15.082 -16.300  1.00  0.00     0.165 C
HETATM   46  C33 UNL     1       7.015 -16.037 -15.140  1.00  0.00     0.042 C
BRANCH  45  47
HETATM   47  N6  UNL     1       5.801 -14.358 -16.406  1.00  0.00    -0.414 N
HETATM   48  C34 UNL     1       5.211 -13.908 -15.192  1.00  0.00     0.140 C
ATOM     49  H6  UNL     1       5.369 -14.171 -17.310  1.00  0.00     0.153 HD
ENDBRANCH  45  47
ENDBRANCH  42  45
ENDBRANCH  12  41
ENDBRANCH   8  12
ENDBRANCH   6   7
ENDBRANCH   5   6
ENDBRANCH   3   4
TORSDOF 14
ENDMDL