MODEL 3
REMARK VINA RESULT: -9.852281106      1.727      5.203
REMARK  14 active torsions:
REMARK  status: ('A' for Active; 'I' for Inactive)
REMARK       I    between atoms: C2_2  and  N1_4
REMARK    1  A    between atoms: C5_7  and  C6_8
REMARK    2  A    between atoms: C6_8  and  C7_9
REMARK    3  A    between atoms: C7_9  and  N2_10
REMARK    4  A    between atoms: C7_9  and  C23_33
REMARK       I    between atoms: N2_10  and  C8_12
REMARK    5  A    between atoms: C8_12  and  C9_14
REMARK    6  A    between atoms: C11_16  and  C12_17
REMARK    7  A    between atoms: C12_17  and  C13_18
REMARK    8  A    between atoms: C13_18  and  C14_19
REMARK       I    between atoms: C14_19  and  N3_21
REMARK    9  A    between atoms: N3_21  and  C15_23
REMARK   10  A    between atoms: C23_33  and  O5_34
REMARK   11  A    between atoms: C23_33  and  N5_36
REMARK   12  A    between atoms: C28_41  and  C29_42
REMARK       I    between atoms: C29_42  and  N6_44
REMARK   13  A    between atoms: N6_44  and  C30_46
REMARK   14  A    between atoms: C30_46  and  C31_47
ROOT
HETATM    1  C7  UNL     1       7.990 -16.472 -16.986  1.00  0.00     0.082 C
ENDROOT
BRANCH   1   2
HETATM    2  C6  UNL     1       6.783 -16.911 -16.305  1.00  0.00     0.012 C
BRANCH   2   3
HETATM    3  C5  UNL     1       6.021 -16.084 -15.365  1.00  0.00     0.013 C
HETATM    4  C4  UNL     1       4.534 -15.998 -15.585  1.00  0.00     0.028 C
HETATM    5  C3  UNL     1       4.173 -14.881 -16.548  1.00  0.00     0.126 C
HETATM    6  N1  UNL     1       4.380 -13.647 -15.772  1.00  0.00    -0.352 N
HETATM    7  C2  UNL     1       3.532 -12.529 -15.879  1.00  0.00     0.215 C
HETATM    8  C35 UNL     1       5.535 -13.690 -14.888  1.00  0.00     0.126 C
HETATM    9  C1  UNL     1       2.355 -12.529 -16.792  1.00  0.00     0.117 C
HETATM   10  O1  UNL     1       3.781 -11.511 -15.184  1.00  0.00    -0.274 OA
HETATM   11  C34 UNL     1       6.532 -14.638 -15.491  1.00  0.00     0.028 C
ENDBRANCH   2   3
ENDBRANCH   1   2
BRANCH   1  12
HETATM   12  N2  UNL     1       9.223 -17.026 -16.497  1.00  0.00    -0.323 N
HETATM   13  C8  UNL     1       9.929 -16.906 -15.323  1.00  0.00     0.228 C
HETATM   14  O2  UNL     1       9.592 -16.195 -14.376  1.00  0.00    -0.273 OA
ATOM     15  H2  UNL     1       9.673 -17.645 -17.169  1.00  0.00     0.169 HD
BRANCH  13  16
HETATM   16  C9  UNL     1      11.221 -17.669 -15.083  1.00  0.00     0.102 C
HETATM   17  C10 UNL     1      11.976 -17.895 -16.322  1.00  0.00     0.030 C
HETATM   18  C11 UNL     1      12.020 -19.272 -16.910  1.00  0.00     0.079 C
HETATM   19  C18 UNL     1      11.907 -20.308 -15.884  1.00  0.00     0.224 C
HETATM   20  O4  UNL     1      11.839 -21.557 -16.144  1.00  0.00    -0.273 OA
HETATM   21  N4  UNL     1      11.866 -19.957 -14.508  1.00  0.00    -0.346 N
HETATM   22  C19 UNL     1      12.483 -20.513 -13.301  1.00  0.00     0.126 C
HETATM   23  C22 UNL     1      11.044 -18.812 -14.146  1.00  0.00     0.100 C
HETATM   24  C20 UNL     1      12.795 -19.208 -12.560  1.00  0.00     0.022 C
HETATM   25  C21 UNL     1      11.482 -18.486 -12.722  1.00  0.00     0.028 C
BRANCH  18  26
HETATM   26  C12 UNL     1      13.307 -19.400 -17.667  1.00  0.00     0.023 C
BRANCH  26  27
HETATM   27  C13 UNL     1      13.280 -20.303 -18.863  1.00  0.00     0.103 C
BRANCH  27  28
HETATM   28  C14 UNL     1      14.225 -21.455 -18.660  1.00  0.00     0.217 C
HETATM   29  O3  UNL     1      15.070 -21.400 -17.751  1.00  0.00    -0.274 OA
HETATM   30  N3  UNL     1      14.158 -22.599 -19.490  1.00  0.00    -0.356 N
ATOM     31  H3  UNL     1      13.457 -22.635 -20.231  1.00  0.00     0.162 HD
BRANCH  30  32
HETATM   32  C15 UNL     1      15.057 -23.718 -19.317  1.00  0.00     0.084 A
HETATM   33  C16 UNL     1      14.312 -25.074 -19.124  1.00  0.00     0.027 A
HETATM   34  C17 UNL     1      15.135 -24.736 -20.360  1.00  0.00     0.027 A
ENDBRANCH  30  32
ENDBRANCH  27  28
ENDBRANCH  26  27
ENDBRANCH  18  26
ENDBRANCH  13  16
ENDBRANCH   1  12
BRANCH   1  35
HETATM   35  C23 UNL     1       8.068 -16.444 -18.456  1.00  0.00     0.166 C
BRANCH  35  36
HETATM   36  O5  UNL     1       7.845 -15.298 -19.034  1.00  0.00    -0.344 OA
ATOM     37  H5  UNL     1       7.488 -15.324 -19.914  1.00  0.00     0.219 HD
ENDBRANCH  35  36
BRANCH  35  38
HETATM   38  N5  UNL     1       8.341 -17.466 -19.366  1.00  0.00    -0.347 N
HETATM   39  C24 UNL     1       9.676 -17.585 -19.940  1.00  0.00     0.126 C
HETATM   40  C25 UNL     1       9.924 -19.099 -20.085  1.00  0.00     0.020 C
HETATM   41  C26 UNL     1       9.266 -19.827 -18.941  1.00  0.00     0.004 C
HETATM   42  C27 UNL     1       7.739 -19.716 -18.976  1.00  0.00     0.035 C
HETATM   43  C28 UNL     1       7.411 -18.483 -19.797  1.00  0.00     0.178 C
BRANCH  43  44
HETATM   44  C29 UNL     1       6.008 -18.152 -19.899  1.00  0.00     0.240 C
HETATM   45  O6  UNL     1       5.482 -17.620 -20.895  1.00  0.00    -0.271 OA
HETATM   46  N6  UNL     1       5.113 -18.436 -18.797  1.00  0.00    -0.359 N
ATOM     47  H6  UNL     1       5.458 -18.868 -17.940  1.00  0.00     0.162 HD
BRANCH  46  48
HETATM   48  C30 UNL     1       3.716 -18.090 -18.943  1.00  0.00     0.127 C
BRANCH  48  49
HETATM   49  C31 UNL     1       2.826 -18.574 -17.854  1.00  0.00     0.003 A
HETATM   50  C32 UNL     1       1.361 -18.773 -18.312  1.00  0.00     0.007 A
HETATM   51  C33 UNL     1       1.741 -17.803 -17.245  1.00  0.00     0.007 A
ENDBRANCH  48  49
ENDBRANCH  46  48
ENDBRANCH  43  44
ENDBRANCH  35  38
ENDBRANCH   1  35
TORSDOF 14
ENDMDL