MODEL 2
REMARK VINA RESULT: -6.894112539      3.346      5.863
REMARK  12 active torsions:
REMARK  status: ('A' for Active; 'I' for Inactive)
REMARK    1  A    between atoms: C2_2  and  C4_4
REMARK       I    between atoms: C4_4  and  N1_6
REMARK    2  A    between atoms: N1_6  and  C5_8
REMARK    3  A    between atoms: C5_8  and  C6_9
REMARK    4  A    between atoms: C6_9  and  C7_10
REMARK       I    between atoms: N3_15  and  C10_16
REMARK    5  A    between atoms: C10_16  and  C11_18
REMARK       I    between atoms: N4_21  and  C14_22
REMARK    6  A    between atoms: C18_27  and  C19_28
REMARK       I    between atoms: C19_28  and  N5_30
REMARK    7  A    between atoms: C21_32  and  C22_33
REMARK    8  A    between atoms: C21_32  and  C25_36
REMARK    9  A    between atoms: C22_33  and  C23_34
REMARK   10  A    between atoms: C25_36  and  C26_37
REMARK   11  A    between atoms: C30_41  and  C31_42
REMARK       I    between atoms: C31_42  and  N6_44
REMARK   12  A    between atoms: N6_44  and  C32_46
ROOT
HETATM    1  C7  UNL     1       1.282 -18.725 -19.025  1.00  0.00     0.085 C
HETATM    2  S1  UNL     1       3.021 -18.374 -19.435  1.00  0.00    -0.073 SA
HETATM    3  N2  UNL     1       3.027 -18.404 -17.646  1.00  0.00    -0.220 NA
HETATM    4  C8  UNL     1       1.618 -18.022 -17.720  1.00  0.00     0.105 C
HETATM    5  C9  UNL     1       1.753 -16.524 -18.022  1.00  0.00     0.150 C
HETATM    6  N3  UNL     1       2.875 -16.109 -17.224  1.00  0.00    -0.324 N
HETATM    7  C10 UNL     1       3.070 -14.801 -16.710  1.00  0.00     0.225 C
HETATM    8  O2  UNL     1       4.125 -14.617 -16.024  1.00  0.00    -0.273 OA
HETATM    9  C18 UNL     1       3.705 -17.260 -17.075  1.00  0.00     0.266 C
ENDROOT
BRANCH   9  10
HETATM   10  C19 UNL     1       5.057 -17.164 -17.630  1.00  0.00     0.259 C
HETATM   11  O4  UNL     1       5.245 -17.162 -18.885  1.00  0.00    -0.269 OA
HETATM   12  N5  UNL     1       6.172 -17.068 -16.778  1.00  0.00    -0.335 N
HETATM   13  C20 UNL     1       6.137 -16.988 -15.333  1.00  0.00     0.136 C
HETATM   14  C30 UNL     1       7.599 -17.034 -17.169  1.00  0.00     0.180 C
HETATM   15  C21 UNL     1       7.515 -16.408 -14.918  1.00  0.00    -0.021 C
HETATM   16  C29 UNL     1       8.040 -15.931 -16.214  1.00  0.00     0.046 C
BRANCH  15  17
HETATM   17  C22 UNL     1       7.226 -15.215 -14.039  1.00  0.00     0.011 C
BRANCH  17  18
HETATM   18  C23 UNL     1       7.114 -13.921 -14.817  1.00  0.00    -0.004 C
HETATM   19  C24 UNL     1       6.013 -13.044 -14.269  1.00  0.00     0.005 C
ENDBRANCH  17  18
ENDBRANCH  15  17
BRANCH  15  20
HETATM   20  C25 UNL     1       8.223 -17.502 -14.229  1.00  0.00     0.015 C
BRANCH  20  21
HETATM   21  C26 UNL     1       9.686 -17.628 -14.382  1.00  0.00    -0.022 C
HETATM   22  C27 UNL     1      10.248 -17.829 -12.953  1.00  0.00     0.009 C
HETATM   23  C28 UNL     1      10.167 -18.853 -15.132  1.00  0.00     0.009 C
ENDBRANCH  20  21
ENDBRANCH  15  20
BRANCH  14  24
HETATM   24  C31 UNL     1       7.815 -16.688 -18.567  1.00  0.00     0.240 C
HETATM   25  O5  UNL     1       7.780 -15.483 -18.923  1.00  0.00    -0.271 OA
HETATM   26  N6  UNL     1       8.068 -17.663 -19.568  1.00  0.00    -0.360 N
ATOM     27  H6  UNL     1       8.101 -18.648 -19.306  1.00  0.00     0.162 HD
BRANCH  26  28
HETATM   28  C32 UNL     1       8.280 -17.290 -20.959  1.00  0.00     0.118 C
HETATM   29  C33 UNL     1       9.217 -18.209 -21.687  1.00  0.00     0.026 C
ENDBRANCH  26  28
ENDBRANCH  14  24
ENDBRANCH   9  10
BRANCH   7  30
HETATM   30  C11 UNL     1       2.186 -13.649 -16.886  1.00  0.00     0.081 C
HETATM   31  C12 UNL     1       2.940 -12.352 -16.543  1.00  0.00     0.034 C
HETATM   32  C13 UNL     1       2.012 -11.208 -16.276  1.00  0.00     0.126 C
HETATM   33  N4  UNL     1       0.706 -11.516 -16.857  1.00  0.00    -0.352 N
HETATM   34  C14 UNL     1       0.162 -10.767 -17.912  1.00  0.00     0.215 C
HETATM   35  C16 UNL     1      -0.013 -12.632 -16.300  1.00  0.00     0.126 C
HETATM   36  C15 UNL     1      -1.160 -11.088 -18.498  1.00  0.00     0.117 C
HETATM   37  O3  UNL     1       0.823  -9.796 -18.369  1.00  0.00    -0.274 OA
HETATM   38  C17 UNL     1       1.005 -13.681 -15.921  1.00  0.00     0.034 C
ENDBRANCH   7  30
BRANCH   1  39
HETATM   39  C6  UNL     1       0.988 -20.198 -18.852  1.00  0.00     0.038 C
BRANCH  39  40
HETATM   40  C5  UNL     1       1.482 -20.908 -20.071  1.00  0.00     0.124 C
BRANCH  40  41
HETATM   41  N1  UNL     1       1.847 -22.282 -19.879  1.00  0.00    -0.357 N
HETATM   42  C4  UNL     1       3.036 -22.652 -19.226  1.00  0.00     0.246 C
HETATM   43  O1  UNL     1       3.843 -21.825 -18.773  1.00  0.00    -0.268 OA
ATOM     44  H1  UNL     1       1.226 -23.012 -20.226  1.00  0.00     0.162 HD
BRANCH  42  45
HETATM   45  C2  UNL     1       3.335 -24.078 -19.071  1.00  0.00    -0.004 C
HETATM   46  C1  UNL     1       2.689 -24.787 -18.172  1.00  0.00     0.024 C
HETATM   47  C3  UNL     1       4.377 -24.727 -19.918  1.00  0.00     0.053 C
ENDBRANCH  42  45
ENDBRANCH  40  41
ENDBRANCH  39  40
ENDBRANCH   1  39
TORSDOF 12
ENDMDL