MODEL 2
REMARK VINA RESULT: -9.353129478      0.965      1.137
REMARK  13 active torsions:
REMARK  status: ('A' for Active; 'I' for Inactive)
REMARK    1  A    between atoms: C2_2  and  N1_3
REMARK       I    between atoms: N1_3  and  C3_5
REMARK    2  A    between atoms: C3_5  and  C4_7
REMARK    3  A    between atoms: N3_15  and  C9_16
REMARK    4  A    between atoms: C9_16  and  O2_17
REMARK    5  A    between atoms: C10_19  and  C11_20
REMARK    6  A    between atoms: C10_19  and  N4_24
REMARK    7  A    between atoms: C11_20  and  C12_21
REMARK       I    between atoms: N4_24  and  C15_26
REMARK    8  A    between atoms: C15_26  and  C16_28
REMARK    9  A    between atoms: C21_33  and  C22_34
REMARK   10  A    between atoms: C22_34  and  C23_35
REMARK   11  A    between atoms: C23_35  and  C24_36
REMARK   12  A    between atoms: C24_36  and  N5_37
REMARK       I    between atoms: N6_40  and  C27_41
REMARK   13  A    between atoms: C27_41  and  C28_43
ROOT
HETATM    1  N4  UNL     1      13.262 -19.470 -17.063  1.00  0.00    -0.323 N
ATOM      2  H4  UNL     1      13.746 -19.621 -16.178  1.00  0.00     0.169 HD
HETATM    3  C15 UNL     1      12.428 -18.333 -17.173  1.00  0.00     0.227 C
HETATM    4  O3  UNL     1      11.847 -18.173 -18.302  1.00  0.00    -0.273 OA
ENDROOT
BRANCH   3   5
HETATM    5  C16 UNL     1      12.163 -17.315 -16.151  1.00  0.00     0.093 A
HETATM    6  C17 UNL     1      12.472 -17.720 -14.728  1.00  0.00     0.018 A
HETATM    7  C18 UNL     1      11.424 -18.585 -14.071  1.00  0.00    -0.034 A
HETATM    8  C21 UNL     1      11.060 -17.583 -15.062  1.00  0.00    -0.015 A
HETATM    9  C19 UNL     1      11.431 -18.389 -12.562  1.00  0.00     0.016 C
HETATM   10  C20 UNL     1      11.212 -20.005 -14.478  1.00  0.00     0.016 C
BRANCH   8  11
HETATM   11  C22 UNL     1      10.305 -16.342 -14.757  1.00  0.00     0.016 C
BRANCH  11  12
HETATM   12  C23 UNL     1       8.852 -16.472 -14.456  1.00  0.00     0.045 C
BRANCH  12  13
HETATM   13  C24 UNL     1       8.212 -15.159 -14.963  1.00  0.00     0.063 C
BRANCH  13  14
HETATM   14  N5  UNL     1       7.243 -15.305 -15.940  1.00  0.00    -0.371 N
HETATM   15  C25 UNL     1       5.909 -15.423 -15.493  1.00  0.00     0.147 C
HETATM   16  C26 UNL     1       5.259 -16.715 -16.000  1.00  0.00     0.146 C
HETATM   17  N6  UNL     1       5.532 -16.920 -17.395  1.00  0.00    -0.344 N
HETATM   18  C27 UNL     1       4.502 -17.261 -18.350  1.00  0.00     0.251 C
HETATM   19  C35 UNL     1       6.890 -16.806 -17.872  1.00  0.00     0.170 C
HETATM   20  O4  UNL     1       4.814 -17.384 -19.554  1.00  0.00    -0.271 OA
HETATM   21  C36 UNL     1       7.520 -15.565 -17.283  1.00  0.00     0.083 C
BRANCH  18  22
HETATM   22  C28 UNL     1       3.107 -17.468 -17.931  1.00  0.00     0.280 C
HETATM   23  C29 UNL     1       2.649 -18.693 -18.769  1.00  0.00     0.043 C
HETATM   24  C30 UNL     1       1.194 -18.954 -18.652  1.00  0.00     0.004 C
HETATM   25  C31 UNL     1       0.369 -17.781 -19.084  1.00  0.00     0.028 C
HETATM   26  C32 UNL     1       1.320 -16.620 -19.320  1.00  0.00     0.237 C
HETATM   27  N7  UNL     1       2.193 -16.405 -18.175  1.00  0.00    -0.062 N
HETATM   28  C33 UNL     1       1.257 -16.263 -17.024  1.00  0.00     0.273 C
HETATM   29  C34 UNL     1       2.762 -15.085 -18.330  1.00  0.00     0.273 C
ENDBRANCH  18  22
ENDBRANCH  13  14
ENDBRANCH  12  13
ENDBRANCH  11  12
ENDBRANCH   8  11
ENDBRANCH   3   5
BRANCH   1  30
HETATM   30  C10 UNL     1      13.478 -20.452 -18.143  1.00  0.00     0.082 C
HETATM   31  C9  UNL     1      14.326 -21.546 -17.723  1.00  0.00     0.167 C
BRANCH  31  32
HETATM   32  N3  UNL     1      14.622 -22.820 -18.171  1.00  0.00    -0.325 N
HETATM   33  C4  UNL     1      16.020 -23.039 -18.631  1.00  0.00     0.380 C
HETATM   34  N2  UNL     1      16.095 -23.641 -19.913  1.00  0.00    -0.045 N
HETATM   35  C5  UNL     1      14.873 -23.506 -20.665  1.00  0.00     0.235 C
ATOM     36  H22 UNL     1      16.889 -23.280 -20.441  1.00  0.00     0.280 HD
ATOM     37  H21 UNL     1      16.374 -24.619 -19.841  1.00  0.00     0.280 HD
HETATM   38  C6  UNL     1      14.021 -24.732 -20.439  1.00  0.00     0.029 C
HETATM   39  C7  UNL     1      14.085 -25.105 -18.984  1.00  0.00     0.022 C
HETATM   40  C8  UNL     1      13.651 -23.905 -18.158  1.00  0.00     0.128 C
BRANCH  33  41
HETATM   41  C3  UNL     1      16.846 -23.726 -17.604  1.00  0.00     0.268 C
HETATM   42  N1  UNL     1      17.214 -25.077 -17.665  1.00  0.00    -0.358 N
ATOM     43  H1  UNL     1      16.914 -25.643 -18.458  1.00  0.00     0.162 HD
HETATM   44  O1  UNL     1      17.249 -23.049 -16.601  1.00  0.00    -0.269 OA
BRANCH  42  45
HETATM   45  C2  UNL     1      18.011 -25.678 -16.621  1.00  0.00     0.118 C
HETATM   46  C1  UNL     1      18.517 -27.031 -17.030  1.00  0.00     0.026 C
ENDBRANCH  42  45
ENDBRANCH  33  41
ENDBRANCH  31  32
BRANCH  31  47
HETATM   47  O2  UNL     1      14.992 -21.228 -16.610  1.00  0.00    -0.344 OA
ATOM     48  H2  UNL     1      15.630 -20.539 -16.752  1.00  0.00     0.219 HD
ENDBRANCH  31  47
BRANCH  30  49
HETATM   49  C11 UNL     1      12.340 -20.587 -19.042  1.00  0.00     0.012 C
BRANCH  49  50
HETATM   50  C12 UNL     1      11.266 -21.572 -18.821  1.00  0.00     0.010 A
HETATM   51  C13 UNL     1      10.588 -21.906 -17.575  1.00  0.00     0.009 A
HETATM   52  C14 UNL     1       9.900 -20.939 -18.445  1.00  0.00     0.009 A
ENDBRANCH  49  50
ENDBRANCH  30  49
ENDBRANCH   1  30
TORSDOF 13
ENDMDL