MODEL 1
REMARK VINA RESULT: -10.020294833      0.000      0.000
REMARK  16 active torsions:
REMARK  status: ('A' for Active; 'I' for Inactive)
REMARK    1  A    between atoms: C2_2  and  C3_3
REMARK    2  A    between atoms: N2_9  and  C6_10
REMARK    3  A    between atoms: C6_10  and  C7_11
REMARK    4  A    between atoms: C7_11  and  C8_12
REMARK    5  A    between atoms: C8_12  and  C9_13
REMARK    6  A    between atoms: C9_13  and  C10_14
REMARK    7  A    between atoms: C12_19  and  C13_20
REMARK    8  A    between atoms: C13_20  and  N4_21
REMARK    9  A    between atoms: C20_28  and  O3_29
REMARK   10  A    between atoms: N5_31  and  C21_32
REMARK   11  A    between atoms: C21_32  and  O4_33
REMARK   12  A    between atoms: C21_32  and  N6_35
REMARK   13  A    between atoms: N6_35  and  C22_36
REMARK   14  A    between atoms: N6_35  and  C30_46
REMARK   15  A    between atoms: C22_36  and  C23_37
REMARK       I    between atoms: C23_37  and  N7_39
REMARK   16  A    between atoms: C30_46  and  C31_47
ROOT
HETATM    1  C10 UNL     1      11.526 -18.387 -14.519  1.00  0.00     0.182 C
HETATM    2  C11 UNL     1      10.761 -17.470 -13.705  1.00  0.00     0.241 C
HETATM    3  O2  UNL     1      10.860 -17.478 -12.439  1.00  0.00    -0.271 OA
HETATM    4  N3  UNL     1       9.853 -16.501 -14.239  1.00  0.00    -0.349 N
ATOM      5  H3  UNL     1       9.666 -15.650 -13.707  1.00  0.00     0.163 HD
HETATM    6  C12 UNL     1       9.178 -16.698 -15.543  1.00  0.00     0.159 C
HETATM    7  C20 UNL     1       9.496 -18.163 -15.885  1.00  0.00     0.248 C
HETATM    8  N5  UNL     1      10.895 -18.423 -15.878  1.00  0.00    -0.305 N
ENDROOT
BRANCH   8   9
HETATM    9  C21 UNL     1      11.720 -18.684 -16.950  1.00  0.00     0.220 C
BRANCH   9  10
HETATM   10  O4  UNL     1      12.873 -18.015 -16.858  1.00  0.00    -0.332 OA
ATOM     11  H4  UNL     1      13.376 -18.287 -16.100  1.00  0.00     0.220 HD
ENDBRANCH   9  10
BRANCH   9  12
HETATM   12  N6  UNL     1      11.621 -19.470 -18.080  1.00  0.00    -0.338 N
BRANCH  12  13
HETATM   13  C22 UNL     1      12.847 -20.296 -18.352  1.00  0.00     0.229 C
BRANCH  13  14
HETATM   14  C23 UNL     1      12.532 -21.728 -18.048  1.00  0.00     0.238 C
HETATM   15  O5  UNL     1      11.525 -21.950 -17.328  1.00  0.00    -0.272 OA
HETATM   16  N7  UNL     1      13.348 -22.763 -18.563  1.00  0.00    -0.346 N
HETATM   17  C24 UNL     1      13.161 -24.186 -18.357  1.00  0.00     0.131 C
HETATM   18  C28 UNL     1      14.502 -22.600 -19.380  1.00  0.00     0.087 C
HETATM   19  C25 UNL     1      14.305 -24.833 -19.113  1.00  0.00     0.006 C
HETATM   20  C26 UNL     1      14.045 -24.655 -20.572  1.00  0.00     0.008 C
HETATM   21  C29 UNL     1      15.383 -23.760 -18.875  1.00  0.00     0.031 C
HETATM   22  C27 UNL     1      14.184 -23.145 -20.758  1.00  0.00     0.026 C
ENDBRANCH  13  14
ENDBRANCH  12  13
BRANCH  12  23
HETATM   23  C30 UNL     1      10.596 -19.629 -19.055  1.00  0.00     0.131 C
BRANCH  23  24
HETATM   24  C31 UNL     1      10.109 -18.381 -19.729  1.00  0.00     0.004 C
HETATM   25  C32 UNL     1       9.602 -18.714 -21.147  1.00  0.00     0.006 C
HETATM   26  C33 UNL     1       8.159 -18.262 -21.193  1.00  0.00     0.000 C
HETATM   27  C34 UNL     1       7.757 -18.315 -19.718  1.00  0.00     0.000 C
HETATM   28  C35 UNL     1       8.999 -17.633 -19.115  1.00  0.00     0.006 C
ENDBRANCH  23  24
ENDBRANCH  12  23
ENDBRANCH   9  12
ENDBRANCH   8   9
BRANCH   1  29
HETATM   29  C9  UNL     1      11.699 -19.778 -14.029  1.00  0.00     0.035 C
BRANCH  29  30
HETATM   30  C8  UNL     1      12.687 -19.970 -12.921  1.00  0.00     0.004 C
BRANCH  30  31
HETATM   31  C7  UNL     1      13.235 -21.368 -12.971  1.00  0.00     0.020 C
BRANCH  31  32
HETATM   32  C6  UNL     1      13.622 -21.834 -14.349  1.00  0.00     0.128 C
BRANCH  32  33
HETATM   33  N2  UNL     1      15.025 -21.676 -14.640  1.00  0.00    -0.325 N
HETATM   34  C3  UNL     1      16.064 -22.642 -14.438  1.00  0.00     0.129 C
HETATM   35  C4  UNL     1      17.345 -21.880 -14.573  1.00  0.00     0.153 C
HETATM   36  N1  UNL     1      16.969 -20.818 -15.519  1.00  0.00    -0.341 N
HETATM   37  C5  UNL     1      15.605 -20.513 -15.191  1.00  0.00     0.319 C
ATOM     38  H1  UNL     1      17.547 -20.394 -16.244  1.00  0.00     0.164 HD
HETATM   39  O1  UNL     1      15.067 -19.376 -15.384  1.00  0.00    -0.247 OA
BRANCH  34  40
HETATM   40  C2  UNL     1      15.961 -23.326 -13.108  1.00  0.00    -0.010 C
HETATM   41  C1  UNL     1      17.066 -23.669 -12.487  1.00  0.00     0.009 C
ENDBRANCH  34  40
ENDBRANCH  32  33
ENDBRANCH  31  32
ENDBRANCH  30  31
ENDBRANCH  29  30
ENDBRANCH   1  29
BRANCH   7  42
HETATM   42  O3  UNL     1       8.858 -18.888 -14.825  1.00  0.00    -0.374 OA
ATOM     43  H3  UNL     1       7.991 -19.057 -15.172  1.00  0.00     0.212 HD
ENDBRANCH   7  42
BRANCH   6  44
HETATM   44  C13 UNL     1       7.740 -16.518 -15.247  1.00  0.00     0.266 C
BRANCH  44  45
HETATM   45  N4  UNL     1       7.010 -15.458 -15.819  1.00  0.00    -0.069 N
HETATM   46  C14 UNL     1       7.004 -15.358 -17.232  1.00  0.00     0.272 C
HETATM   47  C15 UNL     1       5.616 -15.594 -15.380  1.00  0.00     0.237 C
HETATM   48  C16 UNL     1       4.896 -14.258 -15.361  1.00  0.00     0.028 C
HETATM   49  C17 UNL     1       5.436 -13.531 -14.126  1.00  0.00     0.003 C
HETATM   50  C18 UNL     1       6.917 -13.828 -13.967  1.00  0.00     0.028 C
HETATM   51  C19 UNL     1       7.545 -14.182 -15.296  1.00  0.00     0.237 C
ENDBRANCH  44  45
ENDBRANCH   6  44
TORSDOF 16
ENDMDL