MODEL 2
REMARK VINA RESULT: -10.372856264      3.627      5.607
REMARK  12 active torsions:
REMARK  status: ('A' for Active; 'I' for Inactive)
REMARK    1  A    between atoms: C2_2  and  C3_3
REMARK    2  A    between atoms: C3_3  and  C4_4
REMARK    3  A    between atoms: C4_4  and  C5_5
REMARK    4  A    between atoms: C5_5  and  N1_6
REMARK    5  A    between atoms: C5_5  and  C21_31
REMARK       I    between atoms: N1_6  and  C6_8
REMARK       I    between atoms: C6_8  and  N2_10
REMARK    6  A    between atoms: N2_10  and  C7_12
REMARK    7  A    between atoms: C7_12  and  C13_18
REMARK    8  A    between atoms: C8_13  and  C9_14
REMARK       I    between atoms: C13_18  and  N3_20
REMARK    9  A    between atoms: N3_20  and  C14_21
REMARK   10  A    between atoms: C14_21  and  C15_22
REMARK       I    between atoms: C15_22  and  N4_24
REMARK       I    between atoms: C21_31  and  N6_33
REMARK   11  A    between atoms: C24_37  and  O5_38
REMARK   12  A    between atoms: C24_37  and  C25_40
REMARK       I    between atoms: N8_44  and  C29_46
ROOT
HETATM    1  C5  UNL     1      11.573 -18.818 -15.594  1.00  0.00     0.178 C
ENDROOT
BRANCH   1   2
HETATM    2  C4  UNL     1      12.246 -17.628 -14.722  1.00  0.00     0.035 C
BRANCH   2   3
HETATM    3  C3  UNL     1      11.227 -16.883 -13.981  1.00  0.00     0.002 C
BRANCH   3   4
HETATM    4  C2  UNL     1      10.523 -17.836 -12.993  1.00  0.00    -0.004 C
HETATM    5  C1  UNL     1      11.429 -18.206 -11.857  1.00  0.00     0.005 C
ENDBRANCH   3   4
ENDBRANCH   2   3
ENDBRANCH   1   2
BRANCH   1   6
HETATM    6  N1  UNL     1      10.823 -17.995 -16.525  1.00  0.00    -0.330 N
HETATM    7  C6  UNL     1       9.398 -18.174 -16.482  1.00  0.00     0.321 C
HETATM    8  O1  UNL     1       8.983 -19.124 -15.808  1.00  0.00    -0.247 OA
HETATM    9  N2  UNL     1       8.594 -17.242 -17.150  1.00  0.00    -0.303 N
ATOM     10  H2  UNL     1       9.065 -16.693 -17.869  1.00  0.00     0.171 HD
ATOM     11  H1  UNL     1      11.274 -17.339 -17.163  1.00  0.00     0.165 HD
BRANCH   9  12
HETATM   12  C7  UNL     1       7.186 -16.947 -16.963  1.00  0.00     0.115 C
HETATM   13  C8  UNL     1       6.739 -16.151 -15.877  1.00  0.00     0.014 C
BRANCH  13  14
HETATM   14  C9  UNL     1       7.180 -14.766 -15.606  1.00  0.00     0.010 C
HETATM   15  C10 UNL     1       6.463 -13.895 -14.641  1.00  0.00     0.009 C
HETATM   16  C11 UNL     1       7.511 -14.318 -13.569  1.00  0.00     0.001 C
HETATM   17  C12 UNL     1       8.425 -14.683 -14.716  1.00  0.00     0.009 C
ENDBRANCH  13  14
BRANCH  12  18
HETATM   18  C13 UNL     1       6.538 -16.832 -18.339  1.00  0.00     0.337 C
HETATM   19  O2  UNL     1       7.312 -16.510 -19.301  1.00  0.00    -0.250 OA
HETATM   20  N3  UNL     1       5.219 -17.078 -18.598  1.00  0.00    -0.401 NA
BRANCH  20  21
HETATM   21  C14 UNL     1       3.871 -17.327 -18.870  1.00  0.00     0.326 C
BRANCH  21  22
HETATM   22  C15 UNL     1       3.101 -16.109 -18.345  1.00  0.00     0.274 C
HETATM   23  O3  UNL     1       2.951 -15.155 -19.141  1.00  0.00    -0.269 OA
HETATM   24  N4  UNL     1       2.574 -16.015 -17.050  1.00  0.00    -0.175 N
HETATM   25  C16 UNL     1       2.611 -17.140 -16.098  1.00  0.00     0.161 C
HETATM   26  N5  UNL     1       1.976 -14.941 -16.437  1.00  0.00     0.009 N
HETATM   27  C17 UNL     1       1.192 -16.968 -15.511  1.00  0.00     0.052 C
HETATM   28  C18 UNL     1       1.233 -15.437 -15.291  1.00  0.00     0.266 C
HETATM   29  C19 UNL     1       1.129 -14.118 -17.276  1.00  0.00     0.302 C
HETATM   30  C20 UNL     1       2.977 -14.005 -15.876  1.00  0.00     0.302 C
ENDBRANCH  21  22
ENDBRANCH  20  21
ENDBRANCH  12  18
ENDBRANCH   9  12
ENDBRANCH   1   6
BRANCH   1  31
HETATM   31  C21 UNL     1      12.743 -19.474 -16.156  1.00  0.00     0.242 C
HETATM   32  O4  UNL     1      13.160 -18.960 -17.272  1.00  0.00    -0.271 OA
HETATM   33  N6  UNL     1      13.494 -20.552 -15.676  1.00  0.00    -0.347 N
HETATM   34  C22 UNL     1      14.780 -20.898 -16.335  1.00  0.00     0.145 C
HETATM   35  C33 UNL     1      13.100 -21.417 -14.591  1.00  0.00     0.145 C
HETATM   36  C23 UNL     1      15.809 -20.885 -15.222  1.00  0.00     0.144 C
HETATM   37  N7  UNL     1      15.508 -21.971 -14.276  1.00  0.00    -0.362 N
HETATM   38  C24 UNL     1      16.510 -22.808 -13.899  1.00  0.00     0.118 C
HETATM   39  C32 UNL     1      14.158 -22.070 -13.793  1.00  0.00     0.144 C
BRANCH  38  40
HETATM   40  O5  UNL     1      17.686 -22.525 -14.481  1.00  0.00    -0.349 OA
ATOM     41  H5  UNL     1      18.088 -23.276 -14.900  1.00  0.00     0.219 HD
ENDBRANCH  38  40
BRANCH  38  42
HETATM   42  C25 UNL     1      16.654 -23.960 -13.021  1.00  0.00     0.066 C
HETATM   43  C26 UNL     1      17.243 -23.648 -11.685  1.00  0.00     0.019 C
HETATM   44  C27 UNL     1      18.221 -24.724 -11.381  1.00  0.00     0.053 C
HETATM   45  C28 UNL     1      18.268 -25.624 -12.546  1.00  0.00    -0.010 C
HETATM   46  N8  UNL     1      18.961 -26.699 -12.605  1.00  0.00    -0.335 N
HETATM   47  C31 UNL     1      17.420 -25.089 -13.592  1.00  0.00     0.065 C
HETATM   48  C29 UNL     1      19.790 -27.206 -11.594  1.00  0.00     0.217 C
ATOM     49  H8  UNL     1      18.905 -27.237 -13.470  1.00  0.00     0.168 HD
HETATM   50  C30 UNL     1      21.255 -27.389 -11.827  1.00  0.00     0.117 C
HETATM   51  O6  UNL     1      19.368 -27.532 -10.454  1.00  0.00    -0.274 OA
ENDBRANCH  38  42
ENDBRANCH   1  31
TORSDOF 12
ENDMDL