MODEL 3
REMARK VINA RESULT: -5.523030673      1.434      2.554
REMARK  14 active torsions:
REMARK  status: ('A' for Active; 'I' for Inactive)
REMARK    1  A    between atoms: C2_2  and  O1_3
REMARK    2  A    between atoms: C2_2  and  C12_38
REMARK    3  A    between atoms: O1_3  and  C3_4
REMARK    4  A    between atoms: C3_4  and  N1_5
REMARK    5  A    between atoms: C4_6  and  O2_7
REMARK    6  A    between atoms: N3_13  and  N4_14
REMARK    7  A    between atoms: N4_14  and  C7_16
REMARK    8  A    between atoms: C8_19  and  N6_20
REMARK    9  A    between atoms: C12_38  and  O3_39
REMARK   10  A    between atoms: C12_38  and  O4_41
REMARK   11  A    between atoms: C12_38  and  C13_43
REMARK   12  A    between atoms: C13_43  and  O5_44
REMARK   13  A    between atoms: C13_43  and  C14_46
REMARK       I    between atoms: C14_46  and  N12_48
REMARK   14  A    between atoms: N12_48  and  C15_50
ROOT
HETATM    1  N1  UNL     1      15.798   9.367  39.440  1.00  0.00    -0.138 N
HETATM    2  C4  UNL     1      14.465   9.656  39.303  1.00  0.00     0.191 A
HETATM    3  C5  UNL     1      14.089  10.956  39.548  1.00  0.00     0.132 A
HETATM    4  N2  UNL     1      12.883  11.553  39.503  1.00  0.00    -0.344 N
ATOM      5  H2  UNL     1      12.001  11.101  39.263  1.00  0.00     0.167 HD
HETATM    6  C6  UNL     1      13.040  12.857  39.831  1.00  0.00     0.210 A
HETATM    7  N3  UNL     1      14.335  13.110  40.089  1.00  0.00    -0.218 N
HETATM    8  C10 UNL     1      14.979  11.938  39.914  1.00  0.00     0.175 A
HETATM    9  N10 UNL     1      16.259  11.614  40.035  1.00  0.00    -0.172 N
ATOM     10  H10 UNL     1      16.941  12.324  40.305  1.00  0.00     0.186 HD
HETATM   11  C11 UNL     1      16.667  10.325  39.798  1.00  0.00     0.683 A
HETATM   12  N11 UNL     1      17.925  10.050  39.940  1.00  0.00    -0.234 N
ATOM     13 1H11 UNL     1      18.586  10.778  40.212  1.00  0.00     0.174 HD
ATOM     14 2H11 UNL     1      18.228   9.093  39.763  1.00  0.00     0.174 HD
ENDROOT
BRANCH   1  15
HETATM   15  C3  UNL     1      16.207   8.000  39.184  1.00  0.00     0.327 C
BRANCH  15  16
HETATM   16  O1  UNL     1      16.484   7.355  40.395  1.00  0.00    -0.330 OA
BRANCH  16  17
HETATM   17  C2  UNL     1      15.743   6.282  40.887  1.00  0.00     0.108 C
HETATM   18  C1  UNL     1      16.091   5.802  42.045  1.00  0.00     0.052 C
BRANCH  17  19
HETATM   19  C12 UNL     1      14.642   5.758  40.103  1.00  0.00     0.267 C
BRANCH  19  20
HETATM   20  O3  UNL     1      14.846   6.177  38.762  1.00  0.00    -0.355 OA
ATOM     21  H3  UNL     1      15.784   6.260  38.636  1.00  0.00     0.214 HD
ENDBRANCH  19  20
BRANCH  19  22
HETATM   22  O4  UNL     1      13.415   6.283  40.565  1.00  0.00    -0.355 OA
ATOM     23  H4  UNL     1      12.702   6.002  40.005  1.00  0.00     0.214 HD
ENDBRANCH  19  22
BRANCH  19  24
HETATM   24  C13 UNL     1      14.486   4.275  40.034  1.00  0.00     0.181 C
BRANCH  24  25
HETATM   25  O5  UNL     1      13.185   3.881  39.878  1.00  0.00    -0.355 OA
ATOM     26  H5  UNL     1      12.597   4.289  40.503  1.00  0.00     0.217 HD
ENDBRANCH  24  25
BRANCH  24  27
HETATM   27  C14 UNL     1      15.501   3.578  39.252  1.00  0.00     0.276 C
HETATM   28  O6  UNL     1      16.439   3.017  39.886  1.00  0.00    -0.266 OA
HETATM   29  N12 UNL     1      15.479   3.504  37.862  1.00  0.00    -0.356 N
ATOM     30  H12 UNL     1      14.728   3.952  37.337  1.00  0.00     0.162 HD
BRANCH  29  31
HETATM   31  C15 UNL     1      16.533   2.787  37.163  1.00  0.00     0.118 C
HETATM   32  C16 UNL     1      17.405   3.731  36.361  1.00  0.00     0.026 C
ENDBRANCH  29  31
ENDBRANCH  24  27
ENDBRANCH  19  24
ENDBRANCH  17  19
ENDBRANCH  16  17
ENDBRANCH  15  16
ENDBRANCH   1  15
BRANCH   2  33
HETATM   33  O2  UNL     1      13.548   8.695  38.938  1.00  0.00    -0.344 OA
ATOM     34  H2  UNL     1      12.701   8.924  38.576  1.00  0.00     0.219 HD
ENDBRANCH   2  33
BRANCH   7  35
HETATM   35  N4  UNL     1      14.821  14.363  40.455  1.00  0.00    -0.122 N
ATOM     36  H4  UNL     1      14.683  15.124  39.789  1.00  0.00     0.206 HD
BRANCH  35  37
HETATM   37  C7  UNL     1      15.415  14.649  41.528  1.00  0.00     0.726 A
HETATM   38  N5  UNL     1      15.160  13.966  42.652  1.00  0.00    -0.020 N
HETATM   39  C8  UNL     1      15.771  14.234  43.825  1.00  0.00     0.705 A
ATOM     40  H5  UNL     1      14.474  13.210  42.620  1.00  0.00     0.203 HD
HETATM   41  N7  UNL     1      16.665  15.220  43.865  1.00  0.00    -0.022 N
HETATM   42  C9  UNL     1      16.937  15.921  42.751  1.00  0.00     0.705 A
ATOM     43  H7  UNL     1      17.141  15.443  44.739  1.00  0.00     0.203 HD
HETATM   44  N8  UNL     1      17.798  16.867  42.800  1.00  0.00    -0.234 N
HETATM   45  N9  UNL     1      16.313  15.642  41.566  1.00  0.00    -0.020 N
ATOM     46  H82 UNL     1      18.263  17.075  43.684  1.00  0.00     0.174 HD
ATOM     47  H81 UNL     1      18.004  17.399  41.954  1.00  0.00     0.174 HD
ATOM     48  H9  UNL     1      16.528  16.180  40.727  1.00  0.00     0.203 HD
BRANCH  39  49
HETATM   49  N6  UNL     1      15.481  13.537  44.872  1.00  0.00    -0.234 N
ATOM     50  H62 UNL     1      16.108  12.816  45.228  1.00  0.00     0.174 HD
ATOM     51  H61 UNL     1      14.602  13.705  45.362  1.00  0.00     0.174 HD
ENDBRANCH  39  49
ENDBRANCH  35  37
ENDBRANCH   7  35
TORSDOF 14
ENDMDL