MODEL 5
REMARK VINA RESULT: -1.224364639      1.979      2.925
REMARK  15 active torsions:
REMARK  status: ('A' for Active; 'I' for Inactive)
REMARK    1  A    between atoms: C5_10  and  N4_11
REMARK    2  A    between atoms: N4_11  and  N5_13
REMARK    3  A    between atoms: C6_15  and  C7_16
REMARK    4  A    between atoms: C6_15  and  C8_21
REMARK    5  A    between atoms: C7_16  and  N6_17
REMARK    6  A    between atoms: C10_23  and  C11_24
REMARK       I    between atoms: C11_24  and  N7_26
REMARK    7  A    between atoms: N7_26  and  C12_28
REMARK    8  A    between atoms: C12_28  and  C13_29
REMARK    9  A    between atoms: C13_29  and  O2_30
REMARK       I    between atoms: N9_34  and  C14_35
REMARK   10  A    between atoms: C14_35  and  O4_37
REMARK   11  A    between atoms: O4_37  and  C15_38
REMARK   12  A    between atoms: C15_38  and  C16_39
REMARK   13  A    between atoms: C15_38  and  C17_42
REMARK   14  A    between atoms: C16_39  and  O5_40
REMARK   15  A    between atoms: C17_42  and  O6_43
ROOT
HETATM    1  C8  UNL     1      16.780   8.069  38.764  1.00  0.00     0.090 A
HETATM    2  C9  UNL     1      17.641   7.614  37.740  1.00  0.00     0.070 A
HETATM    3  C10 UNL     1      17.055   6.518  37.193  1.00  0.00     0.118 A
HETATM    4  N8  UNL     1      15.929   6.332  37.841  1.00  0.00    -0.284 N
ATOM      5  H8  UNL     1      15.274   5.576  37.644  1.00  0.00     0.188 HD
HETATM    6  N9  UNL     1      15.743   7.266  38.802  1.00  0.00    -0.197 N
HETATM    7  C14 UNL     1      14.598   7.278  39.641  1.00  0.00     0.387 C
HETATM    8  O3  UNL     1      14.333   8.060  40.533  1.00  0.00    -0.236 OA
ENDROOT
BRANCH   1   9
HETATM    9  C6  UNL     1      17.093   9.242  39.579  1.00  0.00     0.080 C
HETATM   10  N5  UNL     1      16.435  10.321  39.669  1.00  0.00    -0.287 N
ATOM     11  H5  UNL     1      15.581  10.431  39.122  1.00  0.00     0.187 HD
BRANCH  10  12
HETATM   12  N4  UNL     1      16.847  11.353  40.494  1.00  0.00    -0.131 N
ATOM     13  H4  UNL     1      17.630  11.217  41.134  1.00  0.00     0.205 HD
BRANCH  12  14
HETATM   14  C5  UNL     1      16.178  12.597  40.442  1.00  0.00     0.711 C
HETATM   15  N3  UNL     1      14.893  12.548  40.422  1.00  0.00    -0.161 N
HETATM   16  C4  UNL     1      13.929  13.605  40.372  1.00  0.00     0.204 C
ATOM     17  H3  UNL     1      14.499  11.607  40.444  1.00  0.00     0.187 HD
HETATM   18  N1  UNL     1      14.204  14.842  40.623  1.00  0.00    -0.340 N
HETATM   19  N2  UNL     1      12.604  13.276  40.028  1.00  0.00    -0.063 NA
HETATM   20  C2  UNL     1      15.438  15.499  40.997  1.00  0.00     0.117 C
ATOM     21  H1  UNL     1      13.405  15.470  40.542  1.00  0.00     0.164 HD
HETATM   22  C1  UNL     1      15.232  16.985  40.782  1.00  0.00     0.059 C
HETATM   23  C3  UNL     1      15.796  15.287  42.440  1.00  0.00     0.059 C
HETATM   24  N11 UNL     1      16.541  15.096  40.147  1.00  0.00    -0.095 NA
HETATM   25  N10 UNL     1      16.954  13.786  40.417  1.00  0.00    -0.132 N
ATOM     26  H10 UNL     1      17.946  13.671  40.625  1.00  0.00     0.201 HD
ENDBRANCH  12  14
ENDBRANCH  10  12
BRANCH   9  27
HETATM   27  C7  UNL     1      18.340   9.186  40.433  1.00  0.00     0.290 C
BRANCH  27  28
HETATM   28  N6  UNL     1      19.151  10.323  40.124  1.00  0.00    -0.074 N
ATOM     29  H63 UNL     1      18.923  11.135  40.699  1.00  0.00     0.274 HD
ATOM     30  H62 UNL     1      20.119  10.207  40.425  1.00  0.00     0.274 HD
ATOM     31  H61 UNL     1      19.072  10.515  39.126  1.00  0.00     0.274 HD
ENDBRANCH  27  28
ENDBRANCH   9  27
ENDBRANCH   1   9
BRANCH   3  32
HETATM   32  C11 UNL     1      17.595   5.719  36.099  1.00  0.00     0.269 C
HETATM   33  O1  UNL     1      18.231   6.291  35.196  1.00  0.00    -0.266 OA
HETATM   34  N7  UNL     1      17.404   4.327  36.060  1.00  0.00    -0.354 N
ATOM     35  H7  UNL     1      16.881   3.872  36.807  1.00  0.00     0.162 HD
BRANCH  34  36
HETATM   36  C12 UNL     1      17.934   3.533  34.982  1.00  0.00     0.149 C
BRANCH  36  37
HETATM   37  C13 UNL     1      18.954   2.568  35.539  1.00  0.00     0.183 C
BRANCH  37  38
HETATM   38  O2  UNL     1      18.228   1.481  36.079  1.00  0.00    -0.399 OA
ATOM     39  H2  UNL     1      17.558   1.854  36.639  1.00  0.00     0.209 HD
ENDBRANCH  37  38
ENDBRANCH  36  37
ENDBRANCH  34  36
ENDBRANCH   3  32
BRANCH   7  40
HETATM   40  O4  UNL     1      13.606   6.288  39.475  1.00  0.00    -0.293 OA
BRANCH  40  41
HETATM   41  C15 UNL     1      13.594   5.082  40.159  1.00  0.00     0.180 C
BRANCH  41  42
HETATM   42  C16 UNL     1      13.458   3.872  39.252  1.00  0.00     0.199 C
BRANCH  42  43
HETATM   43  O5  UNL     1      14.477   3.732  38.359  1.00  0.00    -0.398 OA
ATOM     44  H5  UNL     1      14.436   2.932  37.848  1.00  0.00     0.209 HD
ENDBRANCH  42  43
ENDBRANCH  41  42
BRANCH  41  45
HETATM   45  C17 UNL     1      14.732   4.913  41.138  1.00  0.00     0.199 C
BRANCH  45  46
HETATM   46  O6  UNL     1      15.649   4.031  40.518  1.00  0.00    -0.398 OA
ATOM     47  H6  UNL     1      16.315   4.582  40.124  1.00  0.00     0.209 HD
ENDBRANCH  45  46
ENDBRANCH  41  45
ENDBRANCH  40  41
ENDBRANCH   7  40
TORSDOF 15
ENDMDL