MODEL 3
REMARK VINA RESULT: -0.525625470      0.874      1.526
REMARK  11 active torsions:
REMARK  status: ('A' for Active; 'I' for Inactive)
REMARK       I    between atoms: N1_2  and  C2_4
REMARK    1  A    between atoms: C2_4  and  C3_6
REMARK    2  A    between atoms: C4_8  and  C5_9
REMARK    3  A    between atoms: C5_9  and  N2_10
REMARK    4  A    between atoms: C5_9  and  N7_24
REMARK    5  A    between atoms: N2_10  and  C6_12
REMARK    6  A    between atoms: C9_20  and  N6_21
REMARK    7  A    between atoms: N9_30  and  C12_31
REMARK    8  A    between atoms: C12_31  and  O4_32
REMARK    9  A    between atoms: C14_35  and  N10_36
REMARK       I    between atoms: N10_36  and  C15_38
REMARK       I    between atoms: C15_38  and  N11_39
REMARK       I    between atoms: C15_38  and  N12_43
REMARK   10  A    between atoms: C16_47  and  N13_48
REMARK   11  A    between atoms: N13_48  and  O5_50
ROOT
HETATM    1  C3  UNL     1      17.745  10.157  40.179  1.00  0.00     0.174 A
HETATM    2  O2  UNL     1      17.607   8.933  39.713  1.00  0.00    -0.299 OA
HETATM    3  C4  UNL     1      16.505   8.508  39.125  1.00  0.00     0.124 A
HETATM    4  C13 UNL     1      15.445   9.415  38.999  1.00  0.00     0.073 A
HETATM    5  C14 UNL     1      15.538  10.702  39.467  1.00  0.00     0.065 A
HETATM    6  C16 UNL     1      16.707  11.095  40.071  1.00  0.00     0.120 A
ENDROOT
BRANCH   3   7
HETATM    7  C5  UNL     1      16.433   7.131  38.641  1.00  0.00     0.163 C
BRANCH   7   8
HETATM    8  N2  UNL     1      16.382   6.880  37.252  1.00  0.00    -0.333 N
ATOM      9  H2  UNL     1      15.793   7.477  36.672  1.00  0.00     0.168 HD
BRANCH   8  10
HETATM   10  C6  UNL     1      17.129   5.812  36.609  1.00  0.00     0.119 A
HETATM   11  C7  UNL     1      16.843   4.494  36.715  1.00  0.00     0.148 A
HETATM   12  N3  UNL     1      15.792   4.044  37.545  1.00  0.00    -0.080 NA
HETATM   13  N4  UNL     1      17.549   3.541  36.072  1.00  0.00    -0.339 N
HETATM   14  C8  UNL     1      18.564   3.898  35.306  1.00  0.00     0.183 A
ATOM     15  H4  UNL     1      17.303   2.557  36.178  1.00  0.00     0.167 HD
HETATM   16  N5  UNL     1      18.886   5.213  35.172  1.00  0.00    -0.337 N
HETATM   17  C9  UNL     1      18.209   6.177  35.792  1.00  0.00     0.130 A
ATOM     18  H5  UNL     1      19.673   5.468  34.576  1.00  0.00     0.168 HD
BRANCH  17  19
HETATM   19  N6  UNL     1      18.519   7.402  35.659  1.00  0.00    -0.384 N
ATOM     20  H62 UNL     1      18.827   7.965  36.451  1.00  0.00     0.157 HD
ATOM     21  H61 UNL     1      18.462   7.845  34.742  1.00  0.00     0.157 HD
ENDBRANCH  17  19
ENDBRANCH   8  10
ENDBRANCH   7   8
BRANCH   7  22
HETATM   22  N7  UNL     1      15.552   6.403  39.498  1.00  0.00    -0.224 N
HETATM   23  C10 UNL     1      14.222   6.252  39.227  1.00  0.00     0.213 A
HETATM   24  N8  UNL     1      13.625   5.520  40.144  1.00  0.00    -0.302 N
HETATM   25  C11 UNL     1      14.562   5.184  41.027  1.00  0.00     0.344 A
ATOM     26  H8  UNL     1      12.639   5.261  40.173  1.00  0.00     0.171 HD
HETATM   27  O3  UNL     1      14.373   4.482  42.052  1.00  0.00    -0.245 OA
HETATM   28  N9  UNL     1      15.746   5.746  40.601  1.00  0.00    -0.209 N
BRANCH  28  29
HETATM   29  C12 UNL     1      16.942   5.529  41.356  1.00  0.00     0.319 C
BRANCH  29  30
HETATM   30  O4  UNL     1      16.730   5.581  42.757  1.00  0.00    -0.380 OA
ATOM     31  H4  UNL     1      16.769   4.726  43.170  1.00  0.00     0.211 HD
ENDBRANCH  29  30
ENDBRANCH  28  29
ENDBRANCH   7  22
ENDBRANCH   3   7
BRANCH   1  32
HETATM   32  C2  UNL     1      19.006  10.519  40.811  1.00  0.00     0.277 C
HETATM   33  N1  UNL     1      20.152  10.720  40.031  1.00  0.00    -0.359 N
HETATM   34  C1  UNL     1      21.425  11.082  40.628  1.00  0.00     0.149 C
ATOM     35  H1  UNL     1      20.091  10.608  39.020  1.00  0.00     0.162 HD
HETATM   36  O1  UNL     1      19.038  10.646  42.057  1.00  0.00    -0.265 OA
ENDBRANCH   1  32
BRANCH   5  37
HETATM   37  N10 UNL     1      14.578  11.542  39.360  1.00  0.00    -0.339 N
HETATM   38  C15 UNL     1      13.316  11.307  38.735  1.00  0.00     0.480 C
HETATM   39  N11 UNL     1      13.303  11.727  37.335  1.00  0.00    -0.033 N
HETATM   40  N12 UNL     1      12.320  12.118  39.411  1.00  0.00    -0.033 N
ATOM     41 3H11 UNL     1      13.583  12.703  37.241  1.00  0.00     0.278 HD
ATOM     42 2H11 UNL     1      14.060  11.289  36.811  1.00  0.00     0.278 HD
ATOM     43 1H11 UNL     1      12.401  11.559  36.889  1.00  0.00     0.278 HD
ATOM     44 3H12 UNL     1      12.298  11.956  40.418  1.00  0.00     0.278 HD
ATOM     45 2H12 UNL     1      12.569  13.107  39.436  1.00  0.00     0.278 HD
ATOM     46 1H12 UNL     1      11.419  11.950  38.965  1.00  0.00     0.278 HD
ATOM     47  H10 UNL     1      14.729  12.468  39.759  1.00  0.00     0.163 HD
ENDBRANCH   5  37
BRANCH   6  48
HETATM   48  N13 UNL     1      16.899  12.408  40.589  1.00  0.00    -0.264 N
ATOM     49  H13 UNL     1      17.746  12.929  40.363  1.00  0.00     0.194 HD
BRANCH  48  50
HETATM   50  O5  UNL     1      16.030  12.917  41.319  1.00  0.00    -0.289 OA
ATOM     51  H5  UNL     1      16.177  12.978  42.256  1.00  0.00     0.244 HD
ENDBRANCH  48  50
ENDBRANCH   6  48
TORSDOF 11
ENDMDL