MODEL 4
REMARK VINA RESULT: -2.536190477      0.462      1.369
REMARK  15 active torsions:
REMARK  status: ('A' for Active; 'I' for Inactive)
REMARK    1  A    between atoms: N1_1  and  C1_4
REMARK    2  A    between atoms: C3_6  and  C4_7
REMARK    3  A    between atoms: C5_10  and  C6_11
REMARK    4  A    between atoms: C6_11  and  C7_12
REMARK    5  A    between atoms: C6_11  and  N6_27
REMARK    6  A    between atoms: C7_12  and  N3_13
REMARK    7  A    between atoms: C9_17  and  C10_18
REMARK    8  A    between atoms: C10_18  and  C11_19
REMARK    9  A    between atoms: C11_19  and  O1_20
REMARK   10  A    between atoms: C11_19  and  C12_22
REMARK   11  A    between atoms: C12_22  and  O2_23
REMARK   12  A    between atoms: C14_33  and  C15_34
REMARK   13  A    between atoms: C15_34  and  N9_35
REMARK   14  A    between atoms: C15_34  and  O3_39
REMARK   15  A    between atoms: C17_47  and  N13_48
ROOT
HETATM    1  C6  UNL     1      15.928   7.661  39.039  1.00  0.00     0.182 C
ENDROOT
BRANCH   1   2
HETATM    2  C5  UNL     1      15.005   8.824  39.052  1.00  0.00     0.079 A
HETATM    3  N2  UNL     1      15.266  10.043  39.636  1.00  0.00    -0.339 N
HETATM    4  C4  UNL     1      14.231  10.874  39.483  1.00  0.00     0.135 A
ATOM      5  H2  UNL     1      16.132  10.280  40.120  1.00  0.00     0.167 HD
HETATM    6  N11 UNL     1      13.287  10.200  38.795  1.00  0.00    -0.327 N
HETATM    7  C16 UNL     1      13.740   8.972  38.533  1.00  0.00     0.142 A
ATOM      8  H11 UNL     1      12.377  10.568  38.519  1.00  0.00     0.168 HD
HETATM    9  N10 UNL     1      13.024   7.961  37.825  1.00  0.00    -0.080 NA
BRANCH   4  10
HETATM   10  C3  UNL     1      14.081  12.253  39.950  1.00  0.00     0.097 A
HETATM   11  C2  UNL     1      12.956  12.984  39.651  1.00  0.00     0.082 A
HETATM   12  C1  UNL     1      12.804  14.298  40.111  1.00  0.00     0.117 A
HETATM   13  N14 UNL     1      13.821  14.777  40.850  1.00  0.00    -0.177 N
HETATM   14  C17 UNL     1      14.909  14.046  41.131  1.00  0.00     0.678 A
ATOM     15  H14 UNL     1      13.762  15.730  41.211  1.00  0.00     0.185 HD
HETATM   16  N12 UNL     1      15.066  12.777  40.692  1.00  0.00    -0.188 N
ATOM     17  H12 UNL     1      15.903  12.238  40.917  1.00  0.00     0.184 HD
BRANCH  12  18
HETATM   18  N1  UNL     1      11.756  14.991  39.836  1.00  0.00    -0.385 N
ATOM     19  H12 UNL     1      10.861  14.851  40.305  1.00  0.00     0.157 HD
ATOM     20  H11 UNL     1      11.771  15.724  39.127  1.00  0.00     0.157 HD
ENDBRANCH  12  18
BRANCH  14  21
HETATM   21  N13 UNL     1      15.828  14.563  41.832  1.00  0.00    -0.234 N
ATOM     22 2H13 UNL     1      16.781  14.210  41.733  1.00  0.00     0.174 HD
ATOM     23 1H13 UNL     1      15.586  15.316  42.476  1.00  0.00     0.174 HD
ENDBRANCH  14  21
ENDBRANCH   4  10
ENDBRANCH   1   2
BRANCH   1  24
HETATM   24  C7  UNL     1      17.343   8.041  38.682  1.00  0.00     0.183 C
BRANCH  24  25
HETATM   25  N3  UNL     1      17.757   7.433  37.415  1.00  0.00    -0.284 N
HETATM   26  C8  UNL     1      18.271   8.018  36.317  1.00  0.00     0.201 A
HETATM   27  N4  UNL     1      18.511   7.081  35.368  1.00  0.00    -0.340 N
HETATM   28  C9  UNL     1      18.151   5.907  35.864  1.00  0.00     0.099 A
ATOM     29  H4  UNL     1      18.899   7.249  34.439  1.00  0.00     0.168 HD
HETATM   30  N5  UNL     1      17.698   6.139  37.099  1.00  0.00    -0.286 N
ATOM     31  H5  UNL     1      17.349   5.413  37.725  1.00  0.00     0.188 HD
BRANCH  28  32
HETATM   32  C10 UNL     1      18.192   4.541  35.253  1.00  0.00     0.111 C
BRANCH  32  33
HETATM   33  C11 UNL     1      17.743   3.486  36.226  1.00  0.00     0.148 C
BRANCH  33  34
HETATM   34  O1  UNL     1      16.422   3.631  36.611  1.00  0.00    -0.393 OA
ATOM     35  H1  UNL     1      16.289   3.494  37.542  1.00  0.00     0.210 HD
ENDBRANCH  33  34
BRANCH  33  36
HETATM   36  C12 UNL     1      17.990   2.094  35.633  1.00  0.00     0.196 C
BRANCH  36  37
HETATM   37  O2  UNL     1      19.322   1.894  35.346  1.00  0.00    -0.398 OA
ATOM     38  H2  UNL     1      19.441   1.510  34.485  1.00  0.00     0.209 HD
ENDBRANCH  36  37
ENDBRANCH  33  36
ENDBRANCH  32  33
ENDBRANCH  28  32
ENDBRANCH  24  25
ENDBRANCH   1  24
BRANCH   1  39
HETATM   39  N6  UNL     1      15.844   6.799  40.174  1.00  0.00    -0.263 N
HETATM   40  N7  UNL     1      16.569   6.943  41.268  1.00  0.00    -0.292 N
HETATM   41  C13 UNL     1      16.321   6.004  42.171  1.00  0.00     0.199 A
ATOM     42  H7  UNL     1      17.246   7.693  41.404  1.00  0.00     0.188 HD
HETATM   43  N8  UNL     1      15.393   5.218  41.640  1.00  0.00    -0.336 N
HETATM   44  C14 UNL     1      15.095   5.700  40.415  1.00  0.00     0.157 A
ATOM     45  H8  UNL     1      14.978   4.396  42.080  1.00  0.00     0.168 HD
BRANCH  44  46
HETATM   46  C15 UNL     1      14.097   5.099  39.522  1.00  0.00     0.386 C
BRANCH  46  47
HETATM   47  N9  UNL     1      12.796   4.906  40.102  1.00  0.00    -0.046 N
ATOM     48  H93 UNL     1      12.584   5.665  40.749  1.00  0.00     0.277 HD
ATOM     49  H92 UNL     1      12.073   5.063  39.400  1.00  0.00     0.277 HD
ATOM     50  H91 UNL     1      12.654   4.006  40.558  1.00  0.00     0.277 HD
ENDBRANCH  46  47
BRANCH  46  51
HETATM   51  O3  UNL     1      14.535   3.892  39.006  1.00  0.00    -0.364 OA
ATOM     52  H3  UNL     1      14.534   3.896  38.057  1.00  0.00     0.212 HD
ENDBRANCH  46  51
ENDBRANCH  44  46
ENDBRANCH   1  39
TORSDOF 15
ENDMDL