MODEL 2
REMARK VINA RESULT: -0.342844796      9.770     11.864
REMARK  11 active torsions:
REMARK  status: ('A' for Active; 'I' for Inactive)
REMARK    1  A    between atoms: N1_1  and  C1_4
REMARK    2  A    between atoms: C3_6  and  N2_7
REMARK    3  A    between atoms: C7_19  and  N7_20
REMARK       I    between atoms: N7_20  and  C8_22
REMARK       I    between atoms: C8_22  and  N8_23
REMARK       I    between atoms: C8_22  and  N9_27
REMARK    4  A    between atoms: C9_31  and  O1_32
REMARK    5  A    between atoms: C10_34  and  N10_35
REMARK    6  A    between atoms: N10_35  and  C11_37
REMARK    7  A    between atoms: C11_37  and  C12_38
REMARK    8  A    between atoms: C11_37  and  C13_43
REMARK    9  A    between atoms: C12_38  and  N11_39
REMARK   10  A    between atoms: C13_43  and  N12_44
REMARK   11  A    between atoms: C16_53  and  N16_54
ROOT
HETATM    1  N2  UNL     1      16.154  10.952  40.117  1.00  0.00    -0.277 N
HETATM    2  C4  UNL     1      16.726  12.074  40.596  1.00  0.00     0.091 A
HETATM    3  C5  UNL     1      16.045  13.340  40.679  1.00  0.00     0.165 A
HETATM    4  N3  UNL     1      14.834  13.697  40.327  1.00  0.00    -0.267 N
ATOM      5  H3  UNL     1      14.162  13.054  39.908  1.00  0.00     0.190 HD
HETATM    6  N4  UNL     1      14.568  14.965  40.564  1.00  0.00    -0.227 N
ATOM      7  H4  UNL     1      13.696  15.458  40.371  1.00  0.00     0.210 HD
HETATM    8  N5  UNL     1      15.671  15.471  41.106  1.00  0.00    -0.227 N
ATOM      9  H5  UNL     1      15.797  16.437  41.409  1.00  0.00     0.210 HD
HETATM   10  N6  UNL     1      16.575  14.515  41.187  1.00  0.00    -0.267 N
ATOM     11  H6  UNL     1      17.517  14.624  41.564  1.00  0.00     0.190 HD
HETATM   12  C6  UNL     1      18.071  12.079  41.051  1.00  0.00     0.066 A
HETATM   13  C7  UNL     1      18.752  10.896  40.974  1.00  0.00     0.070 A
HETATM   14  C9  UNL     1      18.144   9.775  40.483  1.00  0.00     0.137 A
HETATM   15  C10 UNL     1      16.793   9.773  40.031  1.00  0.00     0.146 A
ENDROOT
BRANCH  15  16
HETATM   16  N10 UNL     1      16.276   8.546  39.643  1.00  0.00    -0.366 N
ATOM     17  H10 UNL     1      16.593   7.810  40.275  1.00  0.00     0.161 HD
BRANCH  16  18
HETATM   18  C11 UNL     1      15.447   8.010  38.642  1.00  0.00     0.128 C
BRANCH  18  19
HETATM   19  C12 UNL     1      16.167   6.776  37.988  1.00  0.00     0.256 C
BRANCH  19  20
HETATM   20  N11 UNL     1      17.335   7.301  37.341  1.00  0.00    -0.077 N
ATOM     21 3H11 UNL     1      17.194   7.514  36.353  1.00  0.00     0.274 HD
ATOM     22 2H11 UNL     1      17.574   8.247  37.637  1.00  0.00     0.274 HD
ATOM     23 1H11 UNL     1      18.077   6.621  37.510  1.00  0.00     0.274 HD
ENDBRANCH  19  20
ENDBRANCH  18  19
BRANCH  18  24
HETATM   24  C13 UNL     1      14.194   7.437  39.316  1.00  0.00     0.176 C
BRANCH  24  25
HETATM   25  N12 UNL     1      14.442   6.199  40.008  1.00  0.00    -0.285 N
HETATM   26  C14 UNL     1      13.808   5.031  39.787  1.00  0.00     0.201 A
HETATM   27  N13 UNL     1      14.325   4.107  40.617  1.00  0.00    -0.346 N
HETATM   28  C15 UNL     1      15.283   4.682  41.361  1.00  0.00     0.198 A
ATOM     29  H13 UNL     1      14.037   3.130  40.671  1.00  0.00     0.167 HD
HETATM   30  N14 UNL     1      15.328   5.965  40.961  1.00  0.00    -0.293 N
ATOM     31  H14 UNL     1      15.962   6.667  41.342  1.00  0.00     0.188 HD
ENDBRANCH  24  25
ENDBRANCH  18  24
ENDBRANCH  16  18
ENDBRANCH  15  16
BRANCH   1  32
HETATM   32  C3  UNL     1      14.839  11.059  39.612  1.00  0.00     0.133 A
HETATM   33  C2  UNL     1      14.709  11.289  38.223  1.00  0.00     0.098 A
HETATM   34  C1  UNL     1      13.490  11.402  37.607  1.00  0.00     0.118 A
HETATM   35  N17 UNL     1      12.381  11.290  38.357  1.00  0.00    -0.177 N
HETATM   36  C16 UNL     1      12.470  11.072  39.685  1.00  0.00     0.679 A
ATOM     37  H17 UNL     1      11.464  11.370  37.918  1.00  0.00     0.185 HD
HETATM   38  N15 UNL     1      13.695  10.963  40.281  1.00  0.00    -0.176 N
ATOM     39  H15 UNL     1      13.733  10.800  41.288  1.00  0.00     0.186 HD
BRANCH  34  40
HETATM   40  N1  UNL     1      13.349  11.611  36.344  1.00  0.00    -0.385 N
ATOM     41  H12 UNL     1      13.551  12.544  35.986  1.00  0.00     0.157 HD
ATOM     42  H11 UNL     1      13.046  10.893  35.685  1.00  0.00     0.157 HD
ENDBRANCH  34  40
BRANCH  36  43
HETATM   43  N16 UNL     1      11.399  10.971  40.365  1.00  0.00    -0.234 N
ATOM     44 2H16 UNL     1      11.050  10.042  40.603  1.00  0.00     0.174 HD
ATOM     45 1H16 UNL     1      10.890  11.801  40.670  1.00  0.00     0.174 HD
ENDBRANCH  36  43
ENDBRANCH   1  32
BRANCH  14  46
HETATM   46  O1  UNL     1      18.908   8.620  40.441  1.00  0.00    -0.355 OA
ATOM     47  H1  UNL     1      18.458   7.818  40.201  1.00  0.00     0.218 HD
ENDBRANCH  14  46
BRANCH  13  48
HETATM   48  N7  UNL     1      19.982  10.853  41.376  1.00  0.00    -0.339 N
HETATM   49  C8  UNL     1      21.064  11.337  40.569  1.00  0.00     0.480 C
HETATM   50  N8  UNL     1      22.278  11.497  41.381  1.00  0.00    -0.033 N
HETATM   51  N9  UNL     1      21.342  10.384  39.532  1.00  0.00    -0.033 N
ATOM     52  H83 UNL     1      22.115  12.092  42.194  1.00  0.00     0.278 HD
ATOM     53  H82 UNL     1      22.524  10.636  41.871  1.00  0.00     0.278 HD
ATOM     54  H81 UNL     1      23.047  11.842  40.807  1.00  0.00     0.278 HD
ATOM     55  H93 UNL     1      21.522   9.450  39.902  1.00  0.00     0.278 HD
ATOM     56  H92 UNL     1      20.515  10.163  38.978  1.00  0.00     0.278 HD
ATOM     57  H91 UNL     1      22.112  10.729  38.958  1.00  0.00     0.278 HD
ATOM     58  H7  UNL     1      20.188  10.462  42.296  1.00  0.00     0.163 HD
ENDBRANCH  13  48
TORSDOF 11
ENDMDL