MODEL 5
REMARK VINA RESULT: -2.874593491     10.101     14.315
REMARK  12 active torsions:
REMARK  status: ('A' for Active; 'I' for Inactive)
REMARK    1  A    between atoms: N3_7  and  C4_8
REMARK    2  A    between atoms: N5_12  and  C6_14
REMARK    3  A    between atoms: C6_14  and  C7_15
REMARK    4  A    between atoms: C6_14  and  C8_24
REMARK    5  A    between atoms: C8_24  and  O1_25
REMARK    6  A    between atoms: C8_24  and  O2_27
REMARK    7  A    between atoms: C10_33  and  N11_34
REMARK    8  A    between atoms: N12_36  and  N13_38
REMARK       I    between atoms: N13_38  and  C11_40
REMARK       I    between atoms: C11_40  and  N15_45
REMARK    9  A    between atoms: N14_41  and  O4_43
REMARK   10  A    between atoms: N15_45  and  N16_47
REMARK   11  A    between atoms: C12_49  and  C13_50
REMARK   12  A    between atoms: C13_50  and  O5_51
ROOT
HETATM    1  C4  UNL     1      15.535  10.165  38.998  1.00  0.00     0.159 A
HETATM    2  N4  UNL     1      15.820   8.944  38.458  1.00  0.00    -0.174 N
ATOM      3  H4  UNL     1      15.115   8.477  37.886  1.00  0.00     0.186 HD
HETATM    4  C5  UNL     1      16.989   8.348  38.656  1.00  0.00     0.683 A
HETATM    5  N5  UNL     1      17.238   7.216  38.163  1.00  0.00    -0.209 N
ATOM      6  H5  UNL     1      18.173   6.879  38.396  1.00  0.00     0.178 HD
HETATM    7  N10 UNL     1      17.908   9.006  39.428  1.00  0.00    -0.154 N
ATOM      8  H10 UNL     1      18.812   8.563  39.590  1.00  0.00     0.187 HD
HETATM    9  C9  UNL     1      17.677  10.202  39.980  1.00  0.00     0.291 A
HETATM   10  O3  UNL     1      18.540  10.789  40.688  1.00  0.00    -0.265 OA
HETATM   11  C10 UNL     1      16.455  10.825  39.772  1.00  0.00     0.163 A
ENDROOT
BRANCH  11  12
HETATM   12  N11 UNL     1      16.211  12.104  40.358  1.00  0.00    -0.277 N
HETATM   13  N12 UNL     1      15.594  12.231  41.462  1.00  0.00    -0.228 N
ATOM     14  H12 UNL     1      15.247  11.423  41.978  1.00  0.00     0.209 HD
ATOM     15  H11 UNL     1      16.541  12.940  39.877  1.00  0.00     0.189 HD
BRANCH  13  16
HETATM   16  N13 UNL     1      15.417  13.539  41.931  1.00  0.00    -0.115 N
HETATM   17  C11 UNL     1      15.148  14.630  41.082  1.00  0.00     0.732 C
HETATM   18  N14 UNL     1      13.977  14.765  40.576  1.00  0.00    -0.096 N
HETATM   19  N15 UNL     1      16.124  15.607  40.738  1.00  0.00    -0.130 N
ATOM     20  H14 UNL     1      13.768  15.550  39.958  1.00  0.00     0.213 HD
ATOM     21  H15 UNL     1      16.812  15.346  40.032  1.00  0.00     0.205 HD
ATOM     22  H13 UNL     1      15.486  13.710  42.935  1.00  0.00     0.207 HD
BRANCH  18  23
HETATM   23  O4  UNL     1      13.013  13.842  40.876  1.00  0.00    -0.276 OA
ATOM     24  H4  UNL     1      12.224  13.811  40.348  1.00  0.00     0.245 HD
ENDBRANCH  18  23
BRANCH  19  25
HETATM   25  N16 UNL     1      16.224  16.873  41.273  1.00  0.00    -0.299 N
HETATM   26  C12 UNL     1      16.820  17.167  42.365  1.00  0.00     0.106 C
ATOM     27  H16 UNL     1      15.789  17.637  40.755  1.00  0.00     0.186 HD
BRANCH  26  28
HETATM   28  C13 UNL     1      17.492  16.140  43.205  1.00  0.00     0.210 C
BRANCH  28  29
HETATM   29  O5  UNL     1      16.561  15.411  43.916  1.00  0.00    -0.396 OA
ATOM     30  H5  UNL     1      16.940  15.086  44.725  1.00  0.00     0.209 HD
ENDBRANCH  28  29
ENDBRANCH  26  28
ENDBRANCH  19  25
ENDBRANCH  13  16
ENDBRANCH  11  12
BRANCH   1  31
HETATM   31  N3  UNL     1      14.286  10.785  38.775  1.00  0.00    -0.303 N
HETATM   32  C1  UNL     1      13.282  11.087  39.730  1.00  0.00     0.192 C
HETATM   33  N1  UNL     1      13.135  10.539  41.037  1.00  0.00    -0.063 NA
HETATM   34  N2  UNL     1      12.485  11.949  39.254  1.00  0.00    -0.363 N
HETATM   35  C2  UNL     1      12.826  12.358  37.927  1.00  0.00     0.142 C
ATOM     36  H2  UNL     1      11.680  12.313  39.764  1.00  0.00     0.162 HD
HETATM   37  C3  UNL     1      13.792  11.246  37.500  1.00  0.00     0.153 C
ENDBRANCH   1  31
BRANCH   5  38
HETATM   38  C6  UNL     1      16.518   6.318  37.367  1.00  0.00     0.224 C
BRANCH  38  39
HETATM   39  C7  UNL     1      15.586   5.409  38.094  1.00  0.00     0.141 A
HETATM   40  N6  UNL     1      15.379   4.106  37.856  1.00  0.00    -0.270 N
HETATM   41  N7  UNL     1      14.482   3.684  38.732  1.00  0.00    -0.227 N
ATOM     42  H6  UNL     1      15.829   3.544  37.133  1.00  0.00     0.190 HD
HETATM   43  N8  UNL     1      14.119   4.665  39.510  1.00  0.00    -0.227 N
ATOM     44  H7  UNL     1      14.127   2.730  38.790  1.00  0.00     0.210 HD
HETATM   45  N9  UNL     1      14.778   5.726  39.140  1.00  0.00    -0.270 N
ATOM     46  H8  UNL     1      13.441   4.611  40.270  1.00  0.00     0.210 HD
ATOM     47  H9  UNL     1      14.699   6.649  39.568  1.00  0.00     0.190 HD
ENDBRANCH  38  39
BRANCH  38  48
HETATM   48  C8  UNL     1      17.377   5.462  36.456  1.00  0.00     0.284 C
BRANCH  48  49
HETATM   49  O1  UNL     1      18.015   6.280  35.525  1.00  0.00    -0.369 OA
ATOM     50  H1  UNL     1      17.705   7.172  35.630  1.00  0.00     0.212 HD
ENDBRANCH  48  49
BRANCH  48  51
HETATM   51  O2  UNL     1      18.343   4.865  37.272  1.00  0.00    -0.369 OA
ATOM     52  H2  UNL     1      18.880   5.571  37.612  1.00  0.00     0.212 HD
ENDBRANCH  48  51
ENDBRANCH  38  48
ENDBRANCH   5  38
TORSDOF 12
ENDMDL