MODEL 2
REMARK VINA RESULT: -3.236660530      2.630      3.142
REMARK  15 active torsions:
REMARK  status: ('A' for Active; 'I' for Inactive)
REMARK    1  A    between atoms: N1_1  and  C1_4
REMARK    2  A    between atoms: C3_8  and  C4_9
REMARK    3  A    between atoms: C4_9  and  O1_10
REMARK    4  A    between atoms: C4_9  and  C5_12
REMARK    5  A    between atoms: N5_16  and  C6_17
REMARK    6  A    between atoms: C6_17  and  C7_18
REMARK    7  A    between atoms: C10_27  and  N9_28
REMARK    8  A    between atoms: N10_31  and  C11_32
REMARK    9  A    between atoms: C11_32  and  C12_33
REMARK   10  A    between atoms: C12_33  and  C13_34
REMARK   11  A    between atoms: C13_34  and  O2_35
REMARK   12  A    between atoms: C13_34  and  C14_37
REMARK   13  A    between atoms: C14_37  and  N11_38
REMARK   14  A    between atoms: C15_42  and  N12_43
REMARK   15  A    between atoms: C16_50  and  N15_51
ROOT
HETATM    1  C7  UNL     1       6.937   5.297  45.065  1.00  0.00     0.118 C
HETATM    2  N6  UNL     1       7.116   6.329  44.199  1.00  0.00    -0.286 N
ATOM      3  H6  UNL     1       6.682   6.217  43.283  1.00  0.00     0.188 HD
HETATM    4  N7  UNL     1       7.789   7.478  44.386  1.00  0.00    -0.281 N
ATOM      5  H7  UNL     1       8.413   7.801  43.647  1.00  0.00     0.188 HD
HETATM    6  C8  UNL     1       7.678   8.234  45.518  1.00  0.00     0.169 A
HETATM    7  C9  UNL     1       7.362   7.784  46.785  1.00  0.00     0.138 A
HETATM    8  N8  UNL     1       7.357   8.848  47.602  1.00  0.00    -0.184 N
ATOM      9  H8  UNL     1       7.160   8.846  48.602  1.00  0.00     0.184 HD
HETATM   10  C10 UNL     1       7.659   9.912  46.852  1.00  0.00     0.680 A
HETATM   11  N10 UNL     1       7.860   9.568  45.579  1.00  0.00    -0.165 N
HETATM   12  C15 UNL     1       7.090   6.476  47.197  1.00  0.00     0.132 C
HETATM   13  N13 UNL     1       7.204   5.390  46.400  1.00  0.00    -0.328 N
ATOM     14  H13 UNL     1       7.530   4.536  46.852  1.00  0.00     0.169 HD
ENDROOT
BRANCH   1  15
HETATM   15  C6  UNL     1       6.427   4.025  44.521  1.00  0.00     0.245 C
BRANCH  15  16
HETATM   16  N5  UNL     1       6.779   2.950  45.432  1.00  0.00    -0.209 N
HETATM   17  N4  UNL     1       7.343   3.057  46.624  1.00  0.00    -0.003 NA
HETATM   18  N3  UNL     1       7.491   1.820  47.124  1.00  0.00    -0.268 N
HETATM   19  C5  UNL     1       7.016   0.925  46.240  1.00  0.00     0.144 A
ATOM     20  H3  UNL     1       7.899   1.594  48.031  1.00  0.00     0.185 HD
HETATM   21  N14 UNL     1       6.578   1.653  45.193  1.00  0.00    -0.270 N
ATOM     22  H14 UNL     1       6.156   1.270  44.347  1.00  0.00     0.190 HD
BRANCH  19  23
HETATM   23  C4  UNL     1       6.996  -0.554  46.412  1.00  0.00     0.226 C
BRANCH  23  24
HETATM   24  C3  UNL     1       8.343  -1.149  46.391  1.00  0.00     0.038 A
HETATM   25  C2  UNL     1       9.292  -0.754  45.473  1.00  0.00     0.120 A
HETATM   26  N2  UNL     1      10.524  -1.315  45.474  1.00  0.00    -0.201 N
HETATM   27  C1  UNL     1      10.866  -2.269  46.356  1.00  0.00     0.677 A
ATOM     28  H2  UNL     1      11.210  -1.006  44.786  1.00  0.00     0.183 HD
HETATM   29  N16 UNL     1       9.959  -2.673  47.263  1.00  0.00    -0.177 N
HETATM   30  C16 UNL     1       8.717  -2.125  47.284  1.00  0.00     0.125 A
ATOM     31  H16 UNL     1      10.205  -3.396  47.939  1.00  0.00     0.185 HD
BRANCH  27  32
HETATM   32  N1  UNL     1      12.052  -2.788  46.332  1.00  0.00    -0.234 N
ATOM     33  H12 UNL     1      12.231  -3.653  45.823  1.00  0.00     0.174 HD
ATOM     34  H11 UNL     1      12.823  -2.337  46.824  1.00  0.00     0.174 HD
ENDBRANCH  27  32
BRANCH  30  35
HETATM   35  N15 UNL     1       7.850  -2.519  48.157  1.00  0.00    -0.384 N
ATOM     36 2H15 UNL     1       6.872  -2.632  47.891  1.00  0.00     0.157 HD
ATOM     37 1H15 UNL     1       8.173  -2.707  49.106  1.00  0.00     0.157 HD
ENDBRANCH  30  35
ENDBRANCH  23  24
BRANCH  23  38
HETATM   38  O1  UNL     1       6.223  -1.088  45.357  1.00  0.00    -0.383 OA
ATOM     39  H1  UNL     1       6.530  -0.739  44.529  1.00  0.00     0.211 HD
ENDBRANCH  23  38
ENDBRANCH  19  23
ENDBRANCH  15  16
ENDBRANCH   1  15
BRANCH  12  40
HETATM   40  N12 UNL     1       6.718   6.371  48.404  1.00  0.00    -0.383 N
ATOM     41 2H12 UNL     1       7.316   6.675  49.172  1.00  0.00     0.157 HD
ATOM     42 1H12 UNL     1       5.791   5.965  48.526  1.00  0.00     0.157 HD
ENDBRANCH  12  40
BRANCH  11  43
HETATM   43  C11 UNL     1       8.207  10.389  44.427  1.00  0.00     0.152 C
BRANCH  43  44
HETATM   44  C12 UNL     1       6.938  10.914  43.753  1.00  0.00     0.054 C
BRANCH  44  45
HETATM   45  C13 UNL     1       7.052  10.770  42.244  1.00  0.00     0.145 C
BRANCH  45  46
HETATM   46  O2  UNL     1       8.389  10.697  41.869  1.00  0.00    -0.394 OA
ATOM     47  H2  UNL     1       8.885  11.392  42.286  1.00  0.00     0.210 HD
ENDBRANCH  45  46
BRANCH  45  48
HETATM   48  C14 UNL     1       6.346  11.928  41.564  1.00  0.00     0.261 C
BRANCH  48  49
HETATM   49  N11 UNL     1       6.301  11.745  40.140  1.00  0.00    -0.077 N
ATOM     50 3H11 UNL     1       5.709  10.955  39.883  1.00  0.00     0.274 HD
ATOM     51 2H11 UNL     1       5.775  12.490  39.684  1.00  0.00     0.274 HD
ATOM     52 1H11 UNL     1       7.239  11.654  39.749  1.00  0.00     0.274 HD
ENDBRANCH  48  49
ENDBRANCH  45  48
ENDBRANCH  44  45
ENDBRANCH  43  44
ENDBRANCH  11  43
BRANCH  10  53
HETATM   53  N9  UNL     1       7.742  11.103  47.314  1.00  0.00    -0.234 N
ATOM     54  H92 UNL     1       8.516  11.745  47.142  1.00  0.00     0.174 HD
ATOM     55  H91 UNL     1       7.031  11.528  47.908  1.00  0.00     0.174 HD
ENDBRANCH  10  53
TORSDOF 15
ENDMDL