MODEL 4
REMARK VINA RESULT: -0.990264431      1.217      1.626
REMARK  15 active torsions:
REMARK  status: ('A' for Active; 'I' for Inactive)
REMARK       I    between atoms: C2_2  and  N1_4
REMARK    1  A    between atoms: N1_4  and  C3_6
REMARK    2  A    between atoms: C3_6  and  C4_7
REMARK    3  A    between atoms: C4_7  and  O2_8
REMARK    4  A    between atoms: C4_7  and  C5_10
REMARK    5  A    between atoms: C5_10  and  O3_11
REMARK    6  A    between atoms: C5_10  and  C6_13
REMARK    7  A    between atoms: C9_17  and  N2_18
REMARK    8  A    between atoms: N2_18  and  O5_19
REMARK    9  A    between atoms: N2_18  and  O6_21
REMARK   10  A    between atoms: C10_23  and  O7_24
REMARK   11  A    between atoms: C11_26  and  O8_27
REMARK   12  A    between atoms: C13_30  and  N3_31
REMARK   13  A    between atoms: N3_31  and  N4_33
REMARK       I    between atoms: N4_33  and  C14_34
REMARK   14  A    between atoms: N4_33  and  N5_37
REMARK   15  A    between atoms: C16_44  and  N9_45
ROOT
HETATM    1  C6  UNL     1      14.096   8.837  39.292  1.00  0.00     0.137 A
HETATM    2  O4  UNL     1      13.140   9.676  38.997  1.00  0.00    -0.305 OA
HETATM    3  C7  UNL     1      13.346  10.879  39.423  1.00  0.00     0.093 A
HETATM    4  C8  UNL     1      12.622  12.065  39.339  1.00  0.00     0.069 A
HETATM    5  C9  UNL     1      13.049  13.253  39.876  1.00  0.00     0.104 A
HETATM    6  C10 UNL     1      14.260  13.260  40.531  1.00  0.00     0.126 A
HETATM    7  C11 UNL     1      14.993  12.079  40.623  1.00  0.00     0.116 A
HETATM    8  C12 UNL     1      14.564  10.883  40.083  1.00  0.00     0.065 A
HETATM    9  C13 UNL     1      15.040   9.591  40.003  1.00  0.00     0.102 A
ENDROOT
BRANCH   9  10
HETATM   10  N3  UNL     1      16.251   9.124  40.579  1.00  0.00    -0.271 N
ATOM     11  H3  UNL     1      16.250   8.799  41.545  1.00  0.00     0.189 HD
BRANCH  10  12
HETATM   12  N4  UNL     1      17.439   9.100  39.858  1.00  0.00    -0.123 N
HETATM   13  C14 UNL     1      18.568   9.907  40.141  1.00  0.00     0.256 C
HETATM   14  C15 UNL     1      19.802   9.757  39.360  1.00  0.00     0.121 C
HETATM   15  O9  UNL     1      18.564  10.771  41.053  1.00  0.00    -0.270 OA
BRANCH  12  16
HETATM   16  N5  UNL     1      17.559   8.187  38.795  1.00  0.00     0.021 N
HETATM   17  N6  UNL     1      17.446   8.493  37.488  1.00  0.00    -0.189 N
HETATM   18  N7  UNL     1      17.596   7.407  36.768  1.00  0.00    -0.212 N
ATOM     19  H6  UNL     1      17.271   9.426  37.116  1.00  0.00     0.212 HD
HETATM   20  N8  UNL     1      17.804   6.391  37.571  1.00  0.00    -0.114 N
ATOM     21  H7  UNL     1      17.557   7.361  35.750  1.00  0.00     0.210 HD
HETATM   22  C16 UNL     1      17.781   6.876  38.835  1.00  0.00     0.731 A
ATOM     23  H8  UNL     1      17.954   5.420  37.296  1.00  0.00     0.207 HD
BRANCH  22  24
HETATM   24  N9  UNL     1      17.943   6.158  39.894  1.00  0.00    -0.230 N
ATOM     25  H92 UNL     1      18.511   5.312  39.936  1.00  0.00     0.174 HD
ATOM     26  H91 UNL     1      17.528   6.329  40.811  1.00  0.00     0.174 HD
ENDBRANCH  22  24
ENDBRANCH  12  16
ENDBRANCH  10  12
ENDBRANCH   9  10
BRANCH   1  27
HETATM   27  C5  UNL     1      14.197   7.403  38.951  1.00  0.00     0.109 C
BRANCH  27  28
HETATM   28  C4  UNL     1      14.539   6.457  40.028  1.00  0.00     0.195 C
BRANCH  28  29
HETATM   29  C3  UNL     1      13.693   5.196  40.055  1.00  0.00     0.161 C
BRANCH  29  30
HETATM   30  N1  UNL     1      14.192   4.284  39.066  1.00  0.00    -0.359 N
HETATM   31  C2  UNL     1      15.425   3.621  39.201  1.00  0.00     0.213 C
HETATM   32  C1  UNL     1      15.817   2.682  38.081  1.00  0.00     0.117 C
HETATM   33  O1  UNL     1      16.218   3.740  40.163  1.00  0.00    -0.274 OA
ATOM     34  H1  UNL     1      13.631   4.109  38.233  1.00  0.00     0.162 HD
ENDBRANCH  29  30
ENDBRANCH  28  29
BRANCH  28  35
HETATM   35  O2  UNL     1      14.339   7.019  41.321  1.00  0.00    -0.387 OA
ATOM     36  H2  UNL     1      15.223   7.139  41.649  1.00  0.00     0.210 HD
ENDBRANCH  28  35
ENDBRANCH  27  28
BRANCH  27  37
HETATM   37  O3  UNL     1      14.722   7.095  37.735  1.00  0.00    -0.359 OA
ATOM     38  H3  UNL     1      14.988   6.188  37.636  1.00  0.00     0.217 HD
ENDBRANCH  27  37
ENDBRANCH   1  27
BRANCH   7  39
HETATM   39  O8  UNL     1      16.189  12.154  41.288  1.00  0.00    -0.357 OA
ATOM     40  H8  UNL     1      16.831  11.487  41.079  1.00  0.00     0.217 HD
ENDBRANCH   7  39
BRANCH   6  41
HETATM   41  O7  UNL     1      14.693  14.462  41.073  1.00  0.00    -0.356 OA
ATOM     42  H7  UNL     1      15.625  14.642  41.058  1.00  0.00     0.218 HD
ENDBRANCH   6  41
BRANCH   5  43
HETATM   43  N2  UNL     1      12.275  14.457  39.747  1.00  0.00    -0.033 NA
BRANCH  43  44
HETATM   44  O5  UNL     1      11.121  14.343  40.407  1.00  0.00    -0.284 OA
ATOM     45  H5  UNL     1      10.427  14.796  39.943  1.00  0.00     0.240 HD
ENDBRANCH  43  44
BRANCH  43  46
HETATM   46  O6  UNL     1      12.117  14.760  38.428  1.00  0.00    -0.284 OA
ATOM     47  H6  UNL     1      11.927  13.968  37.940  1.00  0.00     0.240 HD
ENDBRANCH  43  46
ENDBRANCH   5  43
TORSDOF 15
ENDMDL