MODEL 2
REMARK VINA RESULT: -2.942623139      2.581      3.243
REMARK  16 active torsions:
REMARK  status: ('A' for Active; 'I' for Inactive)
REMARK    1  A    between atoms: C2_2  and  C17_44
REMARK    2  A    between atoms: N1_3  and  C3_5
REMARK    3  A    between atoms: C3_5  and  O1_6
REMARK    4  A    between atoms: C3_5  and  C4_8
REMARK    5  A    between atoms: C4_8  and  O2_9
REMARK    6  A    between atoms: C4_8  and  C5_11
REMARK    7  A    between atoms: C5_11  and  O3_12
REMARK    8  A    between atoms: C5_11  and  C6_14
REMARK    9  A    between atoms: N2_17  and  C8_19
REMARK   10  A    between atoms: C8_19  and  C9_20
REMARK   11  A    between atoms: C9_20  and  O5_21
REMARK   12  A    between atoms: C11_25  and  O6_26
REMARK   13  A    between atoms: C12_28  and  C13_29
REMARK   14  A    between atoms: C16_38  and  N7_39
REMARK   15  A    between atoms: C17_44  and  O8_45
REMARK   16  A    between atoms: C17_44  and  O9_47
ROOT
HETATM    1  C6  UNL     1       6.845   3.425  43.106  1.00  0.00     0.127 A
HETATM    2  O4  UNL     1       6.648   2.635  42.015  1.00  0.00    -0.288 OA
HETATM    3  C7  UNL     1       6.558   1.347  42.058  1.00  0.00     0.175 A
HETATM    4  N2  UNL     1       6.369   0.641  40.989  1.00  0.00    -0.346 N
ATOM      5  H2  UNL     1       6.316  -0.367  41.132  1.00  0.00     0.167 HD
HETATM    6  C10 UNL     1       6.657   0.683  43.259  1.00  0.00     0.131 A
HETATM    7  N3  UNL     1       6.545  -0.727  43.296  1.00  0.00    -0.095 NA
HETATM    8  C11 UNL     1       6.858   1.440  44.380  1.00  0.00     0.111 A
HETATM    9  C12 UNL     1       6.963   2.860  44.340  1.00  0.00     0.089 A
ENDROOT
BRANCH   1  10
HETATM   10  C5  UNL     1       6.889   4.856  42.877  1.00  0.00     0.111 C
BRANCH  10  11
HETATM   11  C4  UNL     1       7.072   5.832  43.965  1.00  0.00     0.225 C
BRANCH  11  12
HETATM   12  C3  UNL     1       6.441   7.188  43.864  1.00  0.00     0.253 C
BRANCH  12  13
HETATM   13  N1  UNL     1       6.554   7.780  45.163  1.00  0.00    -0.364 N
HETATM   14  C2  UNL     1       6.482   8.947  45.545  1.00  0.00     0.035 C
HETATM   15  C1  UNL     1       6.237  10.128  44.689  1.00  0.00     0.068 C
ATOM     16  H1  UNL     1       6.726   7.108  45.910  1.00  0.00     0.162 HD
BRANCH  14  17
HETATM   17  C17 UNL     1       6.653   9.199  47.027  1.00  0.00     0.300 C
BRANCH  17  18
HETATM   18  O8  UNL     1       7.448   8.234  47.617  1.00  0.00    -0.366 OA
ATOM     19  H8  UNL     1       7.184   8.066  48.514  1.00  0.00     0.213 HD
ENDBRANCH  17  18
BRANCH  17  20
HETATM   20  O9  UNL     1       7.181  10.488  47.125  1.00  0.00    -0.366 OA
ATOM     21  H9  UNL     1       8.083  10.371  47.401  1.00  0.00     0.213 HD
ENDBRANCH  17  20
ENDBRANCH  14  17
ENDBRANCH  12  13
BRANCH  12  22
HETATM   22  O1  UNL     1       7.134   8.034  43.004  1.00  0.00    -0.374 OA
ATOM     23  H1  UNL     1       6.526   8.730  42.783  1.00  0.00     0.212 HD
ENDBRANCH  12  22
ENDBRANCH  11  12
BRANCH  11  24
HETATM   24  O2  UNL     1       8.456   6.113  44.175  1.00  0.00    -0.384 OA
ATOM     25  H2  UNL     1       8.785   6.302  43.303  1.00  0.00     0.210 HD
ENDBRANCH  11  24
ENDBRANCH  10  11
BRANCH  10  26
HETATM   26  O3  UNL     1       6.426   5.411  41.730  1.00  0.00    -0.359 OA
ATOM     27  H3  UNL     1       6.760   4.989  40.947  1.00  0.00     0.217 HD
ENDBRANCH  10  26
ENDBRANCH   1  10
BRANCH   9  28
HETATM   28  C13 UNL     1       7.317   3.542  45.578  1.00  0.00     0.184 A
HETATM   29  N4  UNL     1       6.312   3.952  46.316  1.00  0.00    -0.361 N
HETATM   30  C14 UNL     1       6.391   4.635  47.561  1.00  0.00     0.203 A
ATOM     31  H4  UNL     1       5.376   3.761  45.958  1.00  0.00     0.162 HD
HETATM   32  C15 UNL     1       7.762   4.887  48.014  1.00  0.00     0.161 A
HETATM   33  N5  UNL     1       8.243   5.503  49.124  1.00  0.00    -0.271 N
HETATM   34  N8  UNL     1       8.799   4.478  47.286  1.00  0.00    -0.026 N
HETATM   35  N6  UNL     1       9.558   5.453  49.043  1.00  0.00    -0.129 N
ATOM     36  H5  UNL     1       7.695   5.924  49.874  1.00  0.00     0.189 HD
HETATM   37  C16 UNL     1       9.932   4.830  47.925  1.00  0.00     0.719 A
ATOM     38  H6  UNL     1      10.199   5.837  49.738  1.00  0.00     0.205 HD
HETATM   39  O7  UNL     1       8.529   3.828  46.110  1.00  0.00    -0.196 OA
BRANCH  37  40
HETATM   40  N7  UNL     1      11.119   4.593  47.504  1.00  0.00    -0.231 N
ATOM     41  H72 UNL     1      11.954   4.561  48.090  1.00  0.00     0.174 HD
ATOM     42  H71 UNL     1      11.429   4.402  46.551  1.00  0.00     0.174 HD
ENDBRANCH  37  40
ENDBRANCH   9  28
BRANCH   8  43
HETATM   43  O6  UNL     1       6.968   0.855  45.634  1.00  0.00    -0.358 OA
ATOM     44  H6  UNL     1       7.752   0.963  46.161  1.00  0.00     0.217 HD
ENDBRANCH   8  43
BRANCH   4  45
HETATM   45  C8  UNL     1       6.229   1.070  39.660  1.00  0.00     0.089 C
BRANCH  45  46
HETATM   46  C9  UNL     1       7.438   0.793  38.774  1.00  0.00     0.208 C
BRANCH  46  47
HETATM   47  O5  UNL     1       8.080  -0.312  39.339  1.00  0.00    -0.396 OA
ATOM     48  H5  UNL     1       8.867  -0.447  38.824  1.00  0.00     0.209 HD
ENDBRANCH  46  47
ENDBRANCH  45  46
ENDBRANCH   4  45
TORSDOF 16
ENDMDL