MODEL 4
REMARK VINA RESULT: -10.500487847      1.964      2.780
REMARK  11 active torsions:
REMARK  status: ('A' for Active; 'I' for Inactive)
REMARK    1  A    between atoms: C7_9  and  C8_10
REMARK    2  A    between atoms: C8_10  and  C9_11
REMARK       I    between atoms: C9_11  and  N2_13
REMARK    3  A    between atoms: N4_18  and  C11_19
REMARK    4  A    between atoms: C11_19  and  C12_20
REMARK    5  A    between atoms: C15_23  and  C16_24
REMARK    6  A    between atoms: C16_24  and  C17_25
REMARK    7  A    between atoms: C17_25  and  C18_26
REMARK    8  A    between atoms: C18_26  and  O2_27
REMARK    9  A    between atoms: C22_33  and  C23_34
REMARK   10  A    between atoms: C23_34  and  C24_35
REMARK   11  A    between atoms: C28_39  and  C29_40
ROOT
HETATM    1  C9  UNL     1     -10.803  13.071  26.330  1.00  0.00     0.227 C
HETATM    2  O1  UNL     1      -9.958  12.493  27.054  1.00  0.00    -0.273 OA
HETATM    3  N2  UNL     1     -10.518  14.279  25.721  1.00  0.00    -0.306 N
ATOM      4  H2  UNL     1     -11.206  14.588  25.034  1.00  0.00     0.171 HD
HETATM    5  C10 UNL     1      -9.564  15.040  25.880  1.00  0.00     0.167 C
HETATM    6  N3  UNL     1      -8.483  14.850  26.765  1.00  0.00    -0.274 N
ATOM      7  H3  UNL     1      -8.645  14.313  27.617  1.00  0.00     0.189 HD
HETATM    8  N4  UNL     1      -7.200  15.360  26.536  1.00  0.00    -0.250 N
HETATM    9  C21 UNL     1      -6.809  16.136  25.386  1.00  0.00     0.279 C
HETATM   10  O3  UNL     1      -5.617  16.534  25.283  1.00  0.00    -0.265 OA
HETATM   11  C22 UNL     1      -7.706  16.492  24.324  1.00  0.00     0.078 C
HETATM   12  S1  UNL     1      -9.466  16.569  24.866  1.00  0.00    -0.047 SA
ENDROOT
BRANCH   1  13
HETATM   13  C8  UNL     1     -12.121  12.371  26.175  1.00  0.00     0.144 C
BRANCH  13  14
HETATM   14  C7  UNL     1     -12.868  12.507  27.445  1.00  0.00    -0.021 A
HETATM   15  C6  UNL     1     -13.698  13.540  27.854  1.00  0.00     0.097 A
HETATM   16  N1  UNL     1     -14.182  13.273  29.069  1.00  0.00    -0.365 N
HETATM   17  C5  UNL     1     -13.677  12.086  29.449  1.00  0.00     0.043 A
ATOM     18  H1  UNL     1     -14.816  13.860  29.610  1.00  0.00     0.165 HD
HETATM   19  C4  UNL     1     -13.850  11.354  30.602  1.00  0.00     0.031 A
HETATM   20  C31 UNL     1     -12.844  11.570  28.454  1.00  0.00    -0.001 A
HETATM   21  C3  UNL     1     -13.208  10.138  30.761  1.00  0.00     0.009 A
HETATM   22  C2  UNL     1     -12.381   9.616  29.789  1.00  0.00    -0.061 A
HETATM   23  C1  UNL     1     -11.716   8.317  30.008  1.00  0.00     0.048 C
HETATM   24  C32 UNL     1     -12.217  10.355  28.642  1.00  0.00     0.021 A
ENDBRANCH  13  14
ENDBRANCH   1  13
BRANCH   8  25
HETATM   25  C11 UNL     1      -6.200  15.086  27.559  1.00  0.00     0.191 C
BRANCH  25  26
HETATM   26  C12 UNL     1      -6.811  15.266  28.888  1.00  0.00    -0.038 A
HETATM   27  C13 UNL     1      -6.808  16.480  29.510  1.00  0.00     0.009 A
HETATM   28  C14 UNL     1      -7.393  16.605  30.752  1.00  0.00     0.007 A
HETATM   29  C15 UNL     1      -7.980  15.538  31.384  1.00  0.00    -0.058 A
HETATM   30  C19 UNL     1      -7.965  14.330  30.731  1.00  0.00     0.007 A
HETATM   31  C20 UNL     1      -7.394  14.164  29.494  1.00  0.00     0.009 A
BRANCH  29  32
HETATM   32  C16 UNL     1      -8.612  15.651  32.717  1.00  0.00     0.041 C
BRANCH  32  33
HETATM   33  C17 UNL     1      -8.519  14.285  33.378  1.00  0.00     0.030 C
BRANCH  33  34
HETATM   34  C18 UNL     1      -9.549  14.143  34.482  1.00  0.00     0.164 C
BRANCH  34  35
HETATM   35  O2  UNL     1     -10.358  15.280  34.450  1.00  0.00    -0.401 OA
ATOM     36  H2  UNL     1     -10.783  15.352  35.296  1.00  0.00     0.209 HD
ENDBRANCH  34  35
ENDBRANCH  33  34
ENDBRANCH  32  33
ENDBRANCH  29  32
ENDBRANCH  25  26
ENDBRANCH   8  25
BRANCH  11  37
HETATM   37  C23 UNL     1      -7.473  16.746  23.095  1.00  0.00     0.036 C
BRANCH  37  38
HETATM   38  C24 UNL     1      -7.383  15.933  21.901  1.00  0.00    -0.034 A
HETATM   39  C25 UNL     1      -8.505  15.213  21.487  1.00  0.00     0.011 A
HETATM   40  C26 UNL     1      -8.475  14.492  20.341  1.00  0.00     0.002 A
HETATM   41  C27 UNL     1      -7.366  14.448  19.565  1.00  0.00     0.015 A
HETATM   42  C28 UNL     1      -6.239  15.136  19.925  1.00  0.00     0.005 A
HETATM   43  C30 UNL     1      -6.290  15.876  21.112  1.00  0.00     0.026 A
BRANCH  42  44
HETATM   44  C29 UNL     1      -5.027  15.112  19.113  1.00  0.00     0.120 C
HETATM   45  N5  UNL     1      -3.894  15.023  19.683  1.00  0.00    -0.387 N
ATOM     46  H52 UNL     1      -3.833  14.966  20.700  1.00  0.00     0.157 HD
ATOM     47  H51 UNL     1      -3.047  15.006  19.116  1.00  0.00     0.157 HD
HETATM   48  N6  UNL     1      -5.111  15.189  17.713  1.00  0.00    -0.082 NA
ENDBRANCH  42  44
ENDBRANCH  37  38
ENDBRANCH  11  37
TORSDOF 11
ENDMDL