MODEL 2
REMARK VINA RESULT: -7.800766326     10.648     15.343
REMARK  9 active torsions:
REMARK  status: ('A' for Active; 'I' for Inactive)
REMARK    1  A    between atoms: C2_2  and  C3_3
REMARK    2  A    between atoms: C3_3  and  C4_4
REMARK    3  A    between atoms: C4_4  and  C5_5
REMARK    4  A    between atoms: C7_10  and  C8_11
REMARK    5  A    between atoms: C8_11  and  C9_12
REMARK    6  A    between atoms: C13_19  and  C14_20
REMARK    7  A    between atoms: C20_29  and  C21_30
REMARK    8  A    between atoms: C21_30  and  C23_32
REMARK    9  A    between atoms: C26_38  and  C27_39
ROOT
HETATM    1  C5  UNL     1     -11.123  12.450  33.595  1.00  0.00     0.176 C
HETATM    2  N1  UNL     1     -11.403  13.787  33.112  1.00  0.00    -0.346 N
ATOM      3  H1  UNL     1     -11.090  14.559  33.701  1.00  0.00     0.163 HD
HETATM    4  C6  UNL     1     -12.059  14.133  31.918  1.00  0.00     0.241 C
HETATM    5  O1  UNL     1     -13.111  14.860  32.022  1.00  0.00    -0.271 OA
HETATM    6  C7  UNL     1     -11.658  13.739  30.558  1.00  0.00     0.177 C
HETATM    7  N2  UNL     1     -12.802  13.797  29.644  1.00  0.00    -0.346 N
ATOM      8  H2  UNL     1     -12.895  14.656  29.102  1.00  0.00     0.163 HD
HETATM    9  C12 UNL     1     -13.778  12.830  29.420  1.00  0.00     0.241 C
HETATM   10  O2  UNL     1     -14.991  13.202  29.622  1.00  0.00    -0.271 OA
HETATM   11  C13 UNL     1     -13.610  11.427  28.978  1.00  0.00     0.173 C
HETATM   12  N3  UNL     1     -12.688  10.653  29.681  1.00  0.00    -0.398 N
ATOM     13  H3  UNL     1     -11.694  10.697  29.453  1.00  0.00     0.154 HD
HETATM   14  C17 UNL     1     -13.154   9.795  30.726  1.00  0.00     0.145 C
HETATM   15  C18 UNL     1     -14.576   9.401  30.612  1.00  0.00     0.040 C
HETATM   16  C19 UNL     1     -12.190   8.680  30.915  1.00  0.00     0.171 C
HETATM   17  O3  UNL     1     -11.438   8.416  29.958  1.00  0.00    -0.293 OA
HETATM   18  C20 UNL     1     -12.013   7.849  32.102  1.00  0.00     0.160 C
HETATM   19  N4  UNL     1     -13.080   7.875  33.064  1.00  0.00    -0.347 N
ATOM     20  H4  UNL     1     -13.742   7.100  33.037  1.00  0.00     0.163 HD
HETATM   21  C25 UNL     1     -13.302   8.866  34.041  1.00  0.00     0.241 C
HETATM   22  O4  UNL     1     -14.524   9.139  34.294  1.00  0.00    -0.271 OA
HETATM   23  C26 UNL     1     -12.285   9.612  34.795  1.00  0.00     0.180 C
HETATM   24  N5  UNL     1     -12.773  10.976  34.916  1.00  0.00    -0.346 N
ATOM     25  H5  UNL     1     -13.758  11.083  35.157  1.00  0.00     0.163 HD
HETATM   26  C30 UNL     1     -12.050  12.152  34.742  1.00  0.00     0.241 C
HETATM   27  O5  UNL     1     -12.150  13.073  35.595  1.00  0.00    -0.271 OA
ENDROOT
BRANCH   1  28
HETATM   28  C4  UNL     1      -9.730  12.335  34.180  1.00  0.00     0.035 C
BRANCH  28  29
HETATM   29  C3  UNL     1      -8.950  13.623  34.061  1.00  0.00     0.002 C
BRANCH  29  30
HETATM   30  C2  UNL     1      -7.936  13.558  32.946  1.00  0.00    -0.004 C
HETATM   31  C1  UNL     1      -7.629  14.904  32.350  1.00  0.00     0.005 C
ENDBRANCH  29  30
ENDBRANCH  28  29
ENDBRANCH   1  28
BRANCH   6  32
HETATM   32  C8  UNL     1     -10.496  14.477  30.008  1.00  0.00     0.038 C
BRANCH  32  33
HETATM   33  C9  UNL     1     -10.523  14.850  28.585  1.00  0.00    -0.020 C
HETATM   34  C10 UNL     1      -9.625  13.843  27.778  1.00  0.00     0.009 C
HETATM   35  C11 UNL     1     -10.122  16.214  28.162  1.00  0.00     0.009 C
ENDBRANCH  32  33
ENDBRANCH   6  32
BRANCH  23  36
HETATM   36  C27 UNL     1     -12.316   9.067  36.231  1.00  0.00     0.009 C
HETATM   37  C28 UNL     1     -11.293   9.814  37.033  1.00  0.00     0.012 C
HETATM   38  C29 UNL     1     -12.070   7.595  36.227  1.00  0.00     0.012 C
ENDBRANCH  23  36
BRANCH  11  39
HETATM   39  C14 UNL     1     -13.258  11.380  27.481  1.00  0.00     0.009 C
HETATM   40  C15 UNL     1     -11.867  10.818  27.313  1.00  0.00     0.012 C
HETATM   41  C16 UNL     1     -13.284  12.722  26.832  1.00  0.00     0.012 C
ENDBRANCH  11  39
BRANCH  18  42
HETATM   42  C21 UNL     1     -11.529   6.484  31.728  1.00  0.00     0.011 C
HETATM   43  C22 UNL     1     -10.659   5.883  32.833  1.00  0.00     0.012 C
BRANCH  42  44
HETATM   44  C23 UNL     1     -12.544   5.502  31.273  1.00  0.00     0.002 C
HETATM   45  C24 UNL     1     -12.476   5.055  29.859  1.00  0.00     0.005 C
ENDBRANCH  42  44
ENDBRANCH  18  42
TORSDOF 9
ENDMDL