MODEL 1
REMARK VINA RESULT: -11.528042188      0.000      0.000
REMARK  10 active torsions:
REMARK  status: ('A' for Active; 'I' for Inactive)
REMARK    1  A    between atoms: C3_5  and  O1_6
REMARK    2  A    between atoms: O1_6  and  C4_7
REMARK    3  A    between atoms: C4_7  and  C5_8
REMARK    4  A    between atoms: C7_10  and  C8_11
REMARK    5  A    between atoms: C8_11  and  N2_12
REMARK    6  A    between atoms: C10_17  and  C11_18
REMARK    7  A    between atoms: C14_21  and  C15_22
REMARK    8  A    between atoms: C15_22  and  N4_23
REMARK    9  A    between atoms: C19_30  and  N5_31
REMARK   10  A    between atoms: C22_38  and  C23_39
ROOT
HETATM    1  C5  UNL     1      -8.433  14.566  22.779  1.00  0.00    -0.020 A
HETATM    2  C6  UNL     1      -9.173  14.146  23.862  1.00  0.00     0.023 A
HETATM    3  C7  UNL     1     -10.587  14.028  23.816  1.00  0.00    -0.020 A
HETATM    4  C20 UNL     1     -11.135  14.375  22.613  1.00  0.00     0.014 A
HETATM    5  C21 UNL     1     -10.403  14.790  21.541  1.00  0.00     0.016 A
HETATM    6  C22 UNL     1      -8.997  14.906  21.566  1.00  0.00     0.013 A
ENDROOT
BRANCH   3   7
HETATM    7  C8  UNL     1     -11.280  13.519  24.970  1.00  0.00     0.107 C
BRANCH   7   8
HETATM    8  N2  UNL     1     -11.080  14.090  26.268  1.00  0.00    -0.310 N
HETATM    9  C9  UNL     1     -11.843  13.724  27.419  1.00  0.00     0.176 C
HETATM   10  S1  UNL     1     -13.181  12.827  27.268  1.00  0.00    -0.041 SA
HETATM   11  N3  UNL     1     -11.364  14.166  28.717  1.00  0.00    -0.358 N
HETATM   12  C10 UNL     1      -9.931  14.156  28.897  1.00  0.00     0.120 C
ATOM     13  H3  UNL     1     -12.000  14.465  29.457  1.00  0.00     0.162 HD
HETATM   14  C18 UNL     1      -9.154  14.648  27.726  1.00  0.00     0.078 C
HETATM   15  C19 UNL     1     -10.019  15.033  26.521  1.00  0.00     0.208 C
BRANCH  12  16
HETATM   16  C11 UNL     1      -9.542  14.649  30.232  1.00  0.00    -0.035 A
HETATM   17  C12 UNL     1      -8.363  15.245  30.575  1.00  0.00     0.010 A
HETATM   18  C13 UNL     1      -8.075  15.569  31.891  1.00  0.00     0.009 A
HETATM   19  C14 UNL     1      -8.946  15.318  32.940  1.00  0.00    -0.033 A
HETATM   20  C16 UNL     1     -10.138  14.725  32.598  1.00  0.00     0.009 A
HETATM   21  C17 UNL     1     -10.425  14.402  31.295  1.00  0.00     0.010 A
BRANCH  19  22
HETATM   22  C15 UNL     1      -8.628  15.575  34.355  1.00  0.00     0.268 C
BRANCH  22  23
HETATM   23  N4  UNL     1      -8.848  14.427  35.185  1.00  0.00    -0.075 N
ATOM     24  H43 UNL     1      -9.705  13.942  34.921  1.00  0.00     0.274 HD
ATOM     25  H42 UNL     1      -8.173  13.690  34.978  1.00  0.00     0.274 HD
ATOM     26  H41 UNL     1      -8.847  14.657  36.179  1.00  0.00     0.274 HD
ENDBRANCH  22  23
ENDBRANCH  19  22
ENDBRANCH  12  16
BRANCH  15  27
HETATM   27  N5  UNL     1     -10.375  16.375  26.700  1.00  0.00    -0.319 N
HETATM   28  N6  UNL     1      -9.795  17.421  26.485  1.00  0.00    -0.348 N
ATOM     29  H62 UNL     1      -8.863  17.273  26.096  1.00  0.00     0.176 HD
ATOM     30  H61 UNL     1     -10.055  18.398  26.615  1.00  0.00     0.176 HD
ATOM     31  H5  UNL     1     -11.309  16.500  27.089  1.00  0.00     0.182 HD
ENDBRANCH  15  27
ENDBRANCH   7   8
ENDBRANCH   3   7
BRANCH   1  32
HETATM   32  C4  UNL     1      -6.907  14.604  22.872  1.00  0.00     0.217 C
BRANCH  32  33
HETATM   33  O1  UNL     1      -6.505  15.815  23.385  1.00  0.00    -0.330 OA
BRANCH  33  34
HETATM   34  C3  UNL     1      -5.333  16.221  23.956  1.00  0.00     0.156 A
HETATM   35  N1  UNL     1      -4.215  16.569  23.253  1.00  0.00    -0.326 N
HETATM   36  C2  UNL     1      -3.102  16.956  23.923  1.00  0.00     0.079 A
ATOM     37  H1  UNL     1      -4.218  16.539  22.233  1.00  0.00     0.169 HD
HETATM   38  C1  UNL     1      -1.862  17.319  23.167  1.00  0.00     0.089 C
HETATM   39  N9  UNL     1      -3.046  17.015  25.259  1.00  0.00    -0.345 N
HETATM   40  C30 UNL     1      -4.108  16.687  26.021  1.00  0.00     0.054 A
ATOM     41  H9  UNL     1      -2.182  17.315  25.710  1.00  0.00     0.167 HD
HETATM   42  C24 UNL     1      -5.250  16.290  25.340  1.00  0.00     0.042 A
HETATM   43  C28 UNL     1      -4.059  16.815  27.387  1.00  0.00    -0.034 A
HETATM   44  C25 UNL     1      -6.342  16.025  26.126  1.00  0.00     0.018 A
HETATM   45  C26 UNL     1      -6.342  16.144  27.491  1.00  0.00     0.002 A
HETATM   46  C27 UNL     1      -5.176  16.547  28.152  1.00  0.00     0.009 A
HETATM   47  C29 UNL     1      -2.822  17.255  28.093  1.00  0.00     0.050 C
ENDBRANCH  33  34
ENDBRANCH  32  33
ENDBRANCH   1  32
BRANCH   6  48
HETATM   48  C23 UNL     1      -8.312  15.237  20.337  1.00  0.00     0.120 C
HETATM   49  N7  UNL     1      -7.570  14.522  19.627  1.00  0.00    -0.387 N
ATOM     50  H72 UNL     1      -7.542  13.546  19.919  1.00  0.00     0.157 HD
ATOM     51  H71 UNL     1      -7.086  14.756  18.760  1.00  0.00     0.157 HD
HETATM   52  N8  UNL     1      -8.351  16.624  19.922  1.00  0.00    -0.082 NA
ENDBRANCH   6  48
TORSDOF 10
ENDMDL