MODEL 4
REMARK VINA RESULT: -9.384783885      2.176      5.518
REMARK  11 active torsions:
REMARK  status: ('A' for Active; 'I' for Inactive)
REMARK    1  A    between atoms: C2_2  and  C3_3
REMARK    2  A    between atoms: C3_3  and  C4_4
REMARK    3  A    between atoms: C4_4  and  C5_5
REMARK    4  A    between atoms: C9_13  and  C10_14
REMARK    5  A    between atoms: C10_14  and  C11_15
REMARK    6  A    between atoms: C19_27  and  O3_28
REMARK    7  A    between atoms: C20_30  and  C21_31
REMARK    8  A    between atoms: C21_31  and  C22_32
REMARK    9  A    between atoms: C25_37  and  O4_38
REMARK   10  A    between atoms: C26_40  and  C27_41
REMARK   11  A    between atoms: C27_41  and  C28_42
ROOT
HETATM    1  C5  UNL     1     -13.451  11.144  29.509  1.00  0.00     0.176 C
HETATM    2  N1  UNL     1     -13.098  10.538  28.236  1.00  0.00    -0.347 N
ATOM      3  H1  UNL     1     -13.400   9.573  28.103  1.00  0.00     0.163 HD
HETATM    4  C6  UNL     1     -12.392  11.117  27.162  1.00  0.00     0.225 C
HETATM    5  O1  UNL     1     -12.798  10.895  25.961  1.00  0.00    -0.273 OA
HETATM    6  C7  UNL     1     -11.197  11.983  27.213  1.00  0.00     0.183 C
HETATM    7  C8  UNL     1     -11.416  13.347  26.599  1.00  0.00     0.158 C
HETATM    8  O2  UNL     1     -12.578  13.516  26.188  1.00  0.00    -0.295 OA
HETATM    9  C9  UNL     1     -10.404  14.347  26.494  1.00  0.00     0.158 C
HETATM   10  N3  UNL     1      -9.816  15.026  27.578  1.00  0.00    -0.361 N
ATOM     11  H3  UNL     1      -8.928  15.441  27.293  1.00  0.00     0.162 HD
HETATM   12  C19 UNL     1     -10.065  15.305  28.904  1.00  0.00     0.135 C
HETATM   13  C20 UNL     1     -10.164  14.459  30.136  1.00  0.00     0.158 C
HETATM   14  N4  UNL     1     -11.542  14.176  30.466  1.00  0.00    -0.361 N
ATOM     15  H4  UNL     1     -12.106  14.185  29.615  1.00  0.00     0.162 HD
HETATM   16  C25 UNL     1     -12.338  13.902  31.540  1.00  0.00     0.135 C
HETATM   17  C26 UNL     1     -12.508  12.749  32.445  1.00  0.00     0.159 C
HETATM   18  N5  UNL     1     -12.388  11.436  31.863  1.00  0.00    -0.347 N
ATOM     19  H5  UNL     1     -12.253  10.699  32.555  1.00  0.00     0.163 HD
HETATM   20  C31 UNL     1     -12.420  10.967  30.557  1.00  0.00     0.241 C
HETATM   21  O5  UNL     1     -11.424  10.256  30.133  1.00  0.00    -0.271 OA
ENDROOT
BRANCH   9  22
HETATM   22  C10 UNL     1      -9.274  13.776  25.612  1.00  0.00     0.073 C
BRANCH  22  23
HETATM   23  C11 UNL     1      -8.798  14.809  24.679  1.00  0.00    -0.028 A
HETATM   24  C12 UNL     1      -8.675  16.152  24.835  1.00  0.00     0.096 A
HETATM   25  N2  UNL     1      -8.201  16.728  23.718  1.00  0.00    -0.365 N
HETATM   26  C13 UNL     1      -8.002  15.747  22.791  1.00  0.00     0.042 A
ATOM     27  H2  UNL     1      -8.022  17.723  23.586  1.00  0.00     0.165 HD
HETATM   28  C14 UNL     1      -7.531  15.843  21.500  1.00  0.00     0.030 A
HETATM   29  C18 UNL     1      -8.371  14.538  23.376  1.00  0.00    -0.002 A
HETATM   30  C15 UNL     1      -7.410  14.706  20.730  1.00  0.00     0.002 A
HETATM   31  C16 UNL     1      -7.769  13.502  21.288  1.00  0.00     0.001 A
HETATM   32  C17 UNL     1      -8.244  13.420  22.597  1.00  0.00     0.014 A
ENDBRANCH  22  23
ENDBRANCH   9  22
BRANCH  12  33
HETATM   33  O3  UNL     1     -10.270  16.543  29.244  1.00  0.00    -0.348 OA
ATOM     34  H3  UNL     1     -10.729  16.715  30.058  1.00  0.00     0.219 HD
ENDBRANCH  12  33
BRANCH  13  35
HETATM   35  C21 UNL     1      -9.366  14.987  31.267  1.00  0.00     0.037 C
BRANCH  35  36
HETATM   36  C22 UNL     1      -7.914  14.900  31.240  1.00  0.00    -0.020 C
HETATM   37  C23 UNL     1      -7.063  16.077  31.462  1.00  0.00     0.009 C
HETATM   38  C24 UNL     1      -7.492  13.876  32.316  1.00  0.00     0.009 C
ENDBRANCH  35  36
ENDBRANCH  13  35
BRANCH   1  39
HETATM   39  C4  UNL     1     -14.849  10.893  29.920  1.00  0.00     0.035 C
BRANCH  39  40
HETATM   40  C3  UNL     1     -15.177   9.863  30.900  1.00  0.00     0.002 C
BRANCH  40  41
HETATM   41  C2  UNL     1     -15.339   8.508  30.260  1.00  0.00    -0.004 C
HETATM   42  C1  UNL     1     -14.152   7.645  30.717  1.00  0.00     0.005 C
ENDBRANCH  40  41
ENDBRANCH  39  40
ENDBRANCH   1  39
BRANCH  16  43
HETATM   43  O4  UNL     1     -13.159  14.871  31.874  1.00  0.00    -0.348 OA
ATOM     44  H4  UNL     1     -14.074  14.618  31.913  1.00  0.00     0.219 HD
ENDBRANCH  16  43
BRANCH  17  45
HETATM   45  C27 UNL     1     -11.734  12.843  33.745  1.00  0.00     0.037 C
BRANCH  45  46
HETATM   46  C28 UNL     1     -11.928  11.655  34.653  1.00  0.00    -0.020 C
HETATM   47  C29 UNL     1     -10.657  10.890  34.916  1.00  0.00     0.009 C
HETATM   48  C30 UNL     1     -12.589  12.073  35.958  1.00  0.00     0.009 C
ENDBRANCH  45  46
ENDBRANCH  17  45
TORSDOF 11
ENDMDL