MODEL 2
REMARK VINA RESULT: -6.265540620      1.934      3.106
REMARK  12 active torsions:
REMARK  status: ('A' for Active; 'I' for Inactive)
REMARK    1  A    between atoms: C2_2  and  C3_3
REMARK    2  A    between atoms: C3_3  and  C5_5
REMARK    3  A    between atoms: C6_8  and  O1_9
REMARK    4  A    between atoms: C7_11  and  C8_12
REMARK    5  A    between atoms: C8_12  and  C9_13
REMARK    6  A    between atoms: C12_16  and  C13_17
REMARK    7  A    between atoms: C16_20  and  O2_21
REMARK    8  A    between atoms: C17_23  and  C18_24
REMARK    9  A    between atoms: C18_24  and  C19_25
REMARK   10  A    between atoms: C26_38  and  C27_39
REMARK   11  A    between atoms: C27_39  and  C28_40
REMARK   12  A    between atoms: C31_45  and  O5_46
ROOT
HETATM    1  C5  UNL     1     -11.322  11.943  33.599  1.00  0.00     0.161 C
HETATM    2  N1  UNL     1     -11.359  13.273  33.015  1.00  0.00    -0.358 N
ATOM      3  H1  UNL     1     -10.948  14.003  33.597  1.00  0.00     0.162 HD
HETATM    4  C6  UNL     1     -11.866  13.725  31.784  1.00  0.00     0.139 C
HETATM    5  C7  UNL     1     -11.673  13.169  30.432  1.00  0.00    -0.022 C
HETATM    6  C12 UNL     1     -12.518  12.004  30.120  1.00  0.00     0.053 C
HETATM    7  C16 UNL     1     -11.860  10.750  29.689  1.00  0.00     0.149 C
HETATM    8  C17 UNL     1     -12.380   9.474  30.316  1.00  0.00     0.114 C
HETATM    9  N2  UNL     1     -13.791   9.255  30.152  1.00  0.00    -0.352 N
ATOM     10  H2  UNL     1     -14.083   9.088  29.190  1.00  0.00     0.163 HD
HETATM   11  C22 UNL     1     -14.824   9.232  31.078  1.00  0.00     0.240 C
HETATM   12  O3  UNL     1     -15.793  10.066  30.896  1.00  0.00    -0.271 OA
HETATM   13  C23 UNL     1     -14.988   8.374  32.267  1.00  0.00     0.172 C
HETATM   14  C24 UNL     1     -15.590   7.010  31.843  1.00  0.00     0.042 C
HETATM   15  N3  UNL     1     -13.770   8.061  32.967  1.00  0.00    -0.346 N
ATOM     16  H3  UNL     1     -13.044   7.610  32.410  1.00  0.00     0.163 HD
HETATM   17  C25 UNL     1     -13.449   8.294  34.311  1.00  0.00     0.241 C
HETATM   18  O4  UNL     1     -12.879   7.294  34.893  1.00  0.00    -0.271 OA
HETATM   19  C26 UNL     1     -13.681   9.507  35.106  1.00  0.00     0.175 C
HETATM   20  N4  UNL     1     -13.553  10.748  34.380  1.00  0.00    -0.359 N
ATOM     21  H4  UNL     1     -14.346  10.910  33.759  1.00  0.00     0.162 HD
HETATM   22  C31 UNL     1     -12.631  11.768  34.315  1.00  0.00     0.135 C
ENDROOT
BRANCH   1  23
HETATM   23  C3  UNL     1     -10.233  11.798  34.655  1.00  0.00     0.012 C
HETATM   24  C4  UNL     1      -9.544  13.192  34.787  1.00  0.00     0.012 C
BRANCH  23  25
HETATM   25  C2  UNL     1     -10.671  11.467  36.027  1.00  0.00     0.002 C
HETATM   26  C1  UNL     1     -10.424  10.101  36.563  1.00  0.00     0.005 C
ENDBRANCH  23  25
ENDBRANCH   1  23
BRANCH  22  27
HETATM   27  O5  UNL     1     -12.899  12.852  35.000  1.00  0.00    -0.348 OA
ATOM     28  H5  UNL     1     -13.716  13.226  34.690  1.00  0.00     0.219 HD
ENDBRANCH  22  27
BRANCH   4  29
HETATM   29  O1  UNL     1     -12.621  14.790  31.813  1.00  0.00    -0.346 OA
ATOM     30  H1  UNL     1     -13.057  15.028  31.004  1.00  0.00     0.219 HD
ENDBRANCH   4  29
BRANCH   5  31
HETATM   31  C8  UNL     1     -10.290  13.234  29.885  1.00  0.00     0.043 C
BRANCH  31  32
HETATM   32  C9  UNL     1      -9.362  14.226  30.479  1.00  0.00    -0.019 C
HETATM   33  C10 UNL     1      -9.330  15.502  29.622  1.00  0.00     0.010 C
HETATM   34  C11 UNL     1      -8.010  13.872  30.886  1.00  0.00     0.010 C
ENDBRANCH  31  32
ENDBRANCH   5  31
BRANCH  19  35
HETATM   35  C27 UNL     1     -15.029   9.576  35.784  1.00  0.00     0.038 C
BRANCH  35  36
HETATM   36  C28 UNL     1     -15.129  10.235  37.091  1.00  0.00    -0.020 C
HETATM   37  C29 UNL     1     -15.851  11.566  37.069  1.00  0.00     0.009 C
HETATM   38  C30 UNL     1     -13.867  10.290  37.915  1.00  0.00     0.009 C
ENDBRANCH  35  36
ENDBRANCH  19  35
BRANCH   6  39
HETATM   39  C13 UNL     1     -13.621  12.348  29.117  1.00  0.00    -0.012 C
HETATM   40  C14 UNL     1     -13.165  13.149  27.955  1.00  0.00     0.010 C
HETATM   41  C15 UNL     1     -14.757  13.081  29.805  1.00  0.00     0.010 C
ENDBRANCH   6  39
BRANCH   7  42
HETATM   42  O2  UNL     1     -11.995  10.607  28.311  1.00  0.00    -0.393 OA
ATOM     43  H2  UNL     1     -11.366   9.968  27.996  1.00  0.00     0.210 HD
ENDBRANCH   7  42
BRANCH   8  44
HETATM   44  C18 UNL     1     -11.657   8.331  29.635  1.00  0.00     0.031 C
BRANCH  44  45
HETATM   45  C19 UNL     1     -11.968   6.972  30.145  1.00  0.00    -0.021 C
HETATM   46  C20 UNL     1     -11.121   6.799  31.424  1.00  0.00     0.009 C
HETATM   47  C21 UNL     1     -11.554   5.869  29.197  1.00  0.00     0.009 C
ENDBRANCH  44  45
ENDBRANCH   8  44
TORSDOF 12
ENDMDL