MODEL 2
REMARK VINA RESULT: -8.204570999      2.109      9.711
REMARK  11 active torsions:
REMARK  status: ('A' for Active; 'I' for Inactive)
REMARK       I    between atoms: C2_2  and  N1_4
REMARK    1  A    between atoms: N1_4  and  C3_6
REMARK    2  A    between atoms: C3_6  and  C4_7
REMARK    3  A    between atoms: C5_8  and  C6_9
REMARK    4  A    between atoms: C6_9  and  N2_11
REMARK       I    between atoms: N2_11  and  C8_13
REMARK    5  A    between atoms: C8_13  and  C9_15
REMARK    6  A    between atoms: C9_15  and  C11_17
REMARK    7  A    between atoms: C14_20  and  C15_21
REMARK    8  A    between atoms: N3_39  and  C31_40
REMARK    9  A    between atoms: C31_40  and  C32_41
REMARK   10  A    between atoms: C32_41  and  C33_42
REMARK   11  A    between atoms: C33_42  and  N4_43
ROOT
HETATM    1  C11 UNL     1      -8.504  16.175  28.007  1.00  0.00     0.004 C
HETATM    2  C12 UNL     1      -7.348  15.427  28.577  1.00  0.00     0.007 C
HETATM    3  C13 UNL     1      -6.557  14.918  27.377  1.00  0.00     0.022 C
HETATM    4  C14 UNL     1      -7.625  14.672  26.300  1.00  0.00     0.061 C
HETATM    5  C16 UNL     1      -8.789  15.546  26.664  1.00  0.00     0.010 C
HETATM    6  C17 UNL     1      -9.110  16.615  25.692  1.00  0.00     0.012 C
HETATM    7  C18 UNL     1      -7.939  17.246  24.996  1.00  0.00     0.053 C
HETATM    8  C19 UNL     1      -6.857  16.314  24.578  1.00  0.00    -0.006 C
HETATM    9  C20 UNL     1      -7.111  14.861  24.918  1.00  0.00     0.051 C
HETATM   10  C21 UNL     1      -7.936  14.125  23.916  1.00  0.00     0.013 C
HETATM   11  C22 UNL     1      -7.443  14.230  22.506  1.00  0.00     0.012 C
HETATM   12  C23 UNL     1      -7.911  15.467  21.817  1.00  0.00    -0.016 C
HETATM   13  C24 UNL     1      -9.381  15.533  21.778  1.00  0.00     0.012 C
HETATM   14  C25 UNL     1      -9.681  14.323  20.866  1.00  0.00     0.001 C
HETATM   15  C26 UNL     1      -8.461  14.229  19.933  1.00  0.00     0.005 C
HETATM   16  C27 UNL     1      -7.720  15.400  20.291  1.00  0.00    -0.004 C
HETATM   17  C28 UNL     1      -6.294  15.611  20.171  1.00  0.00     0.007 C
HETATM   18  C29 UNL     1      -6.297  16.957  20.940  1.00  0.00     0.027 C
HETATM   19  C30 UNL     1      -7.113  16.655  22.185  1.00  0.00     0.097 C
HETATM   20  N3  UNL     1      -6.305  16.482  23.289  1.00  0.00    -0.362 N
ENDROOT
BRANCH   1  21
HETATM   21  C9  UNL     1      -9.682  16.366  28.881  1.00  0.00     0.078 C
HETATM   22  C10 UNL     1     -10.988  16.535  28.144  1.00  0.00     0.020 C
BRANCH  21  23
HETATM   23  C8  UNL     1      -9.835  15.301  29.866  1.00  0.00     0.222 C
HETATM   24  N2  UNL     1      -9.424  15.319  31.216  1.00  0.00    -0.353 N
ATOM     25  H2  UNL     1      -8.965  16.160  31.564  1.00  0.00     0.163 HD
HETATM   26  O2  UNL     1     -10.407  14.213  29.495  1.00  0.00    -0.273 OA
BRANCH  24  27
HETATM   27  C6  UNL     1      -9.612  14.224  32.133  1.00  0.00     0.103 C
HETATM   28  C7  UNL     1      -8.318  14.046  32.899  1.00  0.00     0.036 C
BRANCH  27  29
HETATM   29  C5  UNL     1     -10.693  14.497  33.119  1.00  0.00    -0.005 C
HETATM   30  C4  UNL     1     -11.787  13.749  33.070  1.00  0.00    -0.009 C
BRANCH  30  31
HETATM   31  C3  UNL     1     -12.040  12.659  32.122  1.00  0.00     0.149 C
BRANCH  31  32
HETATM   32  N1  UNL     1     -12.671  13.155  30.905  1.00  0.00    -0.358 N
HETATM   33  C2  UNL     1     -13.789  12.509  30.336  1.00  0.00     0.213 C
HETATM   34  C1  UNL     1     -14.390  13.051  29.101  1.00  0.00     0.117 C
HETATM   35  O1  UNL     1     -14.288  11.483  30.852  1.00  0.00    -0.274 OA
ATOM     36  H1  UNL     1     -12.295  13.989  30.454  1.00  0.00     0.162 HD
ENDBRANCH  31  32
ENDBRANCH  30  31
ENDBRANCH  27  29
ENDBRANCH  24  27
ENDBRANCH  21  23
ENDBRANCH   1  21
BRANCH   4  37
HETATM   37  C15 UNL     1      -7.989  13.228  26.460  1.00  0.00     0.183 C
HETATM   38  O3  UNL     1      -7.155  12.315  26.611  1.00  0.00    -0.647 OA
HETATM   39  O4  UNL     1      -9.331  12.859  26.444  1.00  0.00    -0.647 OA
ENDBRANCH   4  37
BRANCH  20  40
HETATM   40  C31 UNL     1      -4.902  16.431  23.222  1.00  0.00     0.066 C
BRANCH  40  41
HETATM   41  C32 UNL     1      -4.184  17.048  24.420  1.00  0.00     0.072 C
BRANCH  41  42
HETATM   42  C33 UNL     1      -3.748  18.436  23.950  1.00  0.00     0.234 C
BRANCH  42  43
HETATM   43  N4  UNL     1      -4.803  19.378  24.155  1.00  0.00    -0.079 N
ATOM     44  H43 UNL     1      -4.575  20.056  24.881  1.00  0.00     0.274 HD
ATOM     45  H42 UNL     1      -4.895  20.024  23.371  1.00  0.00     0.274 HD
ATOM     46  H41 UNL     1      -5.676  18.888  24.350  1.00  0.00     0.274 HD
ENDBRANCH  42  43
ENDBRANCH  41  42
ENDBRANCH  40  41
ENDBRANCH  20  40
TORSDOF 11
ENDMDL