MODEL 1
REMARK VINA RESULT: -8.920590954      0.000      0.000
REMARK  12 active torsions:
REMARK  status: ('A' for Active; 'I' for Inactive)
REMARK    1  A    between atoms: C2_2  and  C3_3
REMARK    2  A    between atoms: C3_3  and  C5_5
REMARK    3  A    between atoms: C7_10  and  C8_11
REMARK    4  A    between atoms: C8_11  and  C9_12
REMARK    5  A    between atoms: C17_24  and  O2_25
REMARK    6  A    between atoms: C18_27  and  C19_28
REMARK    7  A    between atoms: C19_28  and  C20_29
REMARK    8  A    between atoms: C20_29  and  C21_30
REMARK    9  A    between atoms: C21_30  and  C22_31
REMARK   10  A    between atoms: C22_31  and  N4_32
REMARK   11  A    between atoms: C24_40  and  C25_41
REMARK   12  A    between atoms: C25_41  and  C26_42
ROOT
HETATM    1  C5  UNL     1      -7.128  15.977  21.441  1.00  0.00     0.158 C
HETATM    2  N1  UNL     1      -7.030  15.199  22.627  1.00  0.00    -0.347 N
ATOM      3  H1  UNL     1      -6.190  14.628  22.726  1.00  0.00     0.163 HD
HETATM    4  C6  UNL     1      -7.970  15.125  23.691  1.00  0.00     0.241 C
HETATM    5  O1  UNL     1      -8.123  13.983  24.206  1.00  0.00    -0.271 OA
HETATM    6  C7  UNL     1      -8.755  16.244  24.221  1.00  0.00     0.179 C
HETATM    7  N3  UNL     1      -8.224  17.016  25.274  1.00  0.00    -0.359 N
ATOM      8  H3  UNL     1      -8.715  17.901  25.398  1.00  0.00     0.162 HD
HETATM    9  C17 UNL     1      -7.192  16.850  26.177  1.00  0.00     0.135 C
HETATM   10  C18 UNL     1      -6.140  15.824  26.301  1.00  0.00     0.159 C
HETATM   11  N5  UNL     1      -4.877  16.444  26.766  1.00  0.00    -0.347 N
ATOM     12  H5  UNL     1      -4.528  16.177  27.686  1.00  0.00     0.163 HD
HETATM   13  C23 UNL     1      -4.131  17.370  26.032  1.00  0.00     0.241 C
HETATM   14  O3  UNL     1      -3.763  18.449  26.622  1.00  0.00    -0.271 OA
HETATM   15  C24 UNL     1      -3.707  17.248  24.613  1.00  0.00     0.173 C
HETATM   16  N6  UNL     1      -4.501  18.080  23.761  1.00  0.00    -0.383 N
ATOM     17  H6  UNL     1      -4.761  18.977  24.172  1.00  0.00     0.160 HD
HETATM   18  C29 UNL     1      -4.924  17.903  22.616  1.00  0.00    -0.014 C
HETATM   19  C30 UNL     1      -5.749  19.000  21.989  1.00  0.00     0.063 C
HETATM   20  C31 UNL     1      -4.667  16.677  21.835  1.00  0.00     0.132 C
HETATM   21  C32 UNL     1      -5.826  16.454  20.908  1.00  0.00     0.155 C
HETATM   22  O4  UNL     1      -5.651  16.679  19.723  1.00  0.00    -0.295 OA
ENDROOT
BRANCH   6  23
HETATM   23  C8  UNL     1     -10.194  15.860  24.466  1.00  0.00     0.075 C
BRANCH  23  24
HETATM   24  C9  UNL     1     -10.495  15.411  25.818  1.00  0.00    -0.028 A
HETATM   25  C10 UNL     1     -10.396  16.214  26.955  1.00  0.00     0.096 A
HETATM   26  N2  UNL     1     -10.709  15.494  28.028  1.00  0.00    -0.365 N
HETATM   27  C11 UNL     1     -11.010  14.241  27.638  1.00  0.00     0.042 A
ATOM     28  H2  UNL     1     -10.718  15.834  28.990  1.00  0.00     0.165 HD
HETATM   29  C12 UNL     1     -11.408  13.121  28.336  1.00  0.00     0.030 A
HETATM   30  C16 UNL     1     -10.881  14.178  26.256  1.00  0.00    -0.002 A
HETATM   31  C13 UNL     1     -11.682  11.934  27.695  1.00  0.00     0.002 A
HETATM   32  C14 UNL     1     -11.558  11.858  26.310  1.00  0.00     0.001 A
HETATM   33  C15 UNL     1     -11.162  12.980  25.638  1.00  0.00     0.014 A
ENDBRANCH  23  24
ENDBRANCH   6  23
BRANCH   9  34
HETATM   34  O2  UNL     1      -7.090  17.747  27.117  1.00  0.00    -0.348 OA
ATOM     35  H2  UNL     1      -6.653  18.558  26.885  1.00  0.00     0.219 HD
ENDBRANCH   9  34
BRANCH   1  36
HETATM   36  C3  UNL     1      -7.743  15.077  20.360  1.00  0.00     0.011 C
HETATM   37  C4  UNL     1      -9.177  15.430  20.141  1.00  0.00     0.012 C
BRANCH  36  38
HETATM   38  C2  UNL     1      -7.589  13.640  20.870  1.00  0.00     0.002 C
HETATM   39  C1  UNL     1      -8.966  13.013  20.972  1.00  0.00     0.005 C
ENDBRANCH  36  38
ENDBRANCH   1  36
BRANCH  10  40
HETATM   40  C19 UNL     1      -6.563  14.802  27.315  1.00  0.00     0.033 C
BRANCH  40  41
HETATM   41  C20 UNL     1      -6.393  15.214  28.733  1.00  0.00     0.004 C
BRANCH  41  42
HETATM   42  C21 UNL     1      -7.545  14.705  29.584  1.00  0.00     0.027 C
BRANCH  42  43
HETATM   43  C22 UNL     1      -8.179  15.773  30.422  1.00  0.00     0.229 C
BRANCH  43  44
HETATM   44  N4  UNL     1      -7.865  17.083  29.905  1.00  0.00    -0.079 N
ATOM     45  H43 UNL     1      -7.309  17.029  29.051  1.00  0.00     0.274 HD
ATOM     46  H42 UNL     1      -8.689  17.546  29.521  1.00  0.00     0.274 HD
ATOM     47  H41 UNL     1      -7.409  17.654  30.617  1.00  0.00     0.274 HD
ENDBRANCH  43  44
ENDBRANCH  42  43
ENDBRANCH  41  42
ENDBRANCH  40  41
ENDBRANCH  10  40
BRANCH  15  48
HETATM   48  C25 UNL     1      -2.289  17.630  24.342  1.00  0.00     0.038 C
BRANCH  48  49
HETATM   49  C26 UNL     1      -1.386  16.641  23.740  1.00  0.00    -0.020 C
HETATM   50  C27 UNL     1      -1.075  16.729  22.294  1.00  0.00     0.009 C
HETATM   51  C28 UNL     1      -2.045  15.261  23.976  1.00  0.00     0.009 C
ENDBRANCH  48  49
ENDBRANCH  15  48
TORSDOF 12
ENDMDL