MODEL 5
REMARK VINA RESULT: -10.560038380      4.365      9.593
REMARK  11 active torsions:
REMARK  status: ('A' for Active; 'I' for Inactive)
REMARK    1  A    between atoms: C7_7  and  C8_8
REMARK    2  A    between atoms: C8_8  and  N1_9
REMARK    3  A    between atoms: N1_9  and  C9_11
REMARK    4  A    between atoms: N3_15  and  C11_17
REMARK    5  A    between atoms: C11_17  and  C12_18
REMARK    6  A    between atoms: C12_18  and  C13_19
REMARK    7  A    between atoms: C17_23  and  C18_24
REMARK    8  A    between atoms: C21_27  and  S1_28
REMARK    9  A    between atoms: S1_28  and  N4_29
REMARK   10  A    between atoms: N6_40  and  C26_42
REMARK   11  A    between atoms: C26_42  and  C27_43
ROOT
HETATM    1  C9  UNL     1     -10.150  15.158  33.602  1.00  0.00     0.707 A
HETATM    2  N2  UNL     1     -10.866  14.956  32.612  1.00  0.00    -0.022 N
ATOM      3  H2  UNL     1     -10.867  15.710  31.925  1.00  0.00     0.203 HD
HETATM    4  C10 UNL     1     -11.661  13.884  32.289  1.00  0.00     0.707 A
HETATM    5  N3  UNL     1     -12.390  13.847  31.320  1.00  0.00    -0.225 N
ATOM      6  H3  UNL     1     -12.377  14.684  30.738  1.00  0.00     0.177 HD
HETATM    7  N5  UNL     1     -11.561  12.936  33.326  1.00  0.00    -0.022 N
ATOM      8  H5  UNL     1     -12.097  12.074  33.228  1.00  0.00     0.203 HD
HETATM    9  C25 UNL     1     -10.851  13.074  34.382  1.00  0.00     0.707 A
HETATM   10  N6  UNL     1     -10.488  12.092  35.216  1.00  0.00    -0.221 N
ATOM     11  H6  UNL     1      -9.933  12.273  36.051  1.00  0.00     0.178 HD
HETATM   12  N7  UNL     1     -10.090  14.198  34.620  1.00  0.00    -0.022 N
ATOM     13  H7  UNL     1      -9.532  14.322  35.465  1.00  0.00     0.203 HD
ENDROOT
BRANCH   5  14
HETATM   14  C11 UNL     1     -13.284  12.786  30.860  1.00  0.00     0.142 C
BRANCH  14  15
HETATM   15  C12 UNL     1     -14.045  13.303  29.692  1.00  0.00     0.058 C
BRANCH  15  16
HETATM   16  C13 UNL     1     -13.415  12.860  28.391  1.00  0.00    -0.056 A
HETATM   17  C14 UNL     1     -13.443  11.533  27.986  1.00  0.00     0.007 A
HETATM   18  C15 UNL     1     -12.724  11.088  26.913  1.00  0.00     0.001 A
HETATM   19  C16 UNL     1     -11.928  11.982  26.187  1.00  0.00     0.012 A
HETATM   20  C17 UNL     1     -11.892  13.286  26.577  1.00  0.00    -0.025 A
HETATM   21  C24 UNL     1     -12.642  13.729  27.681  1.00  0.00     0.019 A
BRANCH  20  22
HETATM   22  C18 UNL     1     -10.861  14.225  26.091  1.00  0.00    -0.026 A
HETATM   23  C19 UNL     1      -9.971  13.835  25.122  1.00  0.00     0.014 A
HETATM   24  C20 UNL     1      -8.831  14.609  24.870  1.00  0.00     0.026 A
HETATM   25  C21 UNL     1      -8.643  15.737  25.602  1.00  0.00     0.079 A
HETATM   26  C22 UNL     1      -9.533  16.146  26.564  1.00  0.00     0.026 A
HETATM   27  C23 UNL     1     -10.674  15.359  26.807  1.00  0.00     0.014 A
BRANCH  25  28
HETATM   28  S1  UNL     1      -7.091  16.588  25.505  1.00  0.00     0.256 S
HETATM   29  O1  UNL     1      -6.082  15.608  26.159  1.00  0.00    -0.201 OA
HETATM   30  O2  UNL     1      -6.655  16.725  24.100  1.00  0.00    -0.201 OA
BRANCH  28  31
HETATM   31  N4  UNL     1      -7.186  18.028  26.381  1.00  0.00    -0.324 N
ATOM     32  H42 UNL     1      -7.964  18.285  26.988  1.00  0.00     0.169 HD
ATOM     33  H41 UNL     1      -6.351  18.587  26.205  1.00  0.00     0.169 HD
ENDBRANCH  28  31
ENDBRANCH  25  28
ENDBRANCH  20  22
ENDBRANCH  15  16
ENDBRANCH  14  15
ENDBRANCH   5  14
BRANCH   1  34
HETATM   34  N1  UNL     1      -9.156  16.045  33.741  1.00  0.00    -0.221 N
ATOM     35  H1  UNL     1      -9.289  16.995  34.090  1.00  0.00     0.178 HD
BRANCH  34  36
HETATM   36  C8  UNL     1      -7.850  15.499  33.331  1.00  0.00     0.177 C
BRANCH  36  37
HETATM   37  C7  UNL     1      -7.540  15.386  31.924  1.00  0.00    -0.034 A
HETATM   38  C2  UNL     1      -7.572  14.076  31.371  1.00  0.00    -0.054 A
HETATM   39  C1  UNL     1      -7.504  13.015  32.416  1.00  0.00     0.049 C
HETATM   40  C3  UNL     1      -7.557  13.835  30.031  1.00  0.00     0.007 A
HETATM   41  C4  UNL     1      -7.507  14.926  29.157  1.00  0.00     0.001 A
HETATM   42  C5  UNL     1      -7.472  16.201  29.666  1.00  0.00     0.001 A
HETATM   43  C6  UNL     1      -7.488  16.433  31.050  1.00  0.00     0.009 A
ENDBRANCH  36  37
ENDBRANCH  34  36
ENDBRANCH   1  34
BRANCH  10  44
HETATM   44  C26 UNL     1     -10.942  10.720  34.856  1.00  0.00     0.176 C
BRANCH  44  45
HETATM   45  C27 UNL     1     -10.922   9.935  36.088  1.00  0.00    -0.040 A
HETATM   46  C28 UNL     1     -10.925   8.561  36.117  1.00  0.00     0.009 A
HETATM   47  C29 UNL     1     -10.907   7.882  37.303  1.00  0.00     0.001 A
HETATM   48  C30 UNL     1     -10.888   8.516  38.527  1.00  0.00     0.000 A
HETATM   49  C31 UNL     1     -10.890   9.897  38.504  1.00  0.00     0.001 A
HETATM   50  C32 UNL     1     -10.905  10.577  37.315  1.00  0.00     0.009 A
ENDBRANCH  44  45
ENDBRANCH  10  44
TORSDOF 11
ENDMDL