MODEL 2
REMARK VINA RESULT: -10.603086706      1.064      1.490
REMARK  11 active torsions:
REMARK  status: ('A' for Active; 'I' for Inactive)
REMARK       I    between atoms: C1_2  and  N2_4
REMARK    1  A    between atoms: N2_4  and  C2_5
REMARK    2  A    between atoms: C2_5  and  C3_6
REMARK    3  A    between atoms: C2_5  and  C9_15
REMARK    4  A    between atoms: C6_9  and  N3_10
REMARK    5  A    between atoms: C14_20  and  C15_21
REMARK    6  A    between atoms: C18_28  and  C19_29
REMARK    7  A    between atoms: C22_32  and  C23_33
REMARK    8  A    between atoms: C23_33  and  C24_34
REMARK    9  A    between atoms: C24_34  and  C25_35
REMARK   10  A    between atoms: C25_35  and  O4_36
REMARK   11  A    between atoms: C25_35  and  C26_38
ROOT
HETATM    1  C15 UNL     1      -5.983  18.047  25.405  1.00  0.00     0.047 C
HETATM    2  C16 UNL     1      -6.360  17.491  26.530  1.00  0.00     0.101 A
HETATM    3  N4  UNL     1      -7.218  18.106  27.386  1.00  0.00    -0.296 N
ATOM      4  H4  UNL     1      -7.645  19.020  27.233  1.00  0.00     0.187 HD
HETATM    5  N5  UNL     1      -7.416  17.349  28.437  1.00  0.00    -0.296 N
ATOM      6  H5  UNL     1      -8.023  17.598  29.219  1.00  0.00     0.187 HD
HETATM    7  C17 UNL     1      -6.724  16.213  28.357  1.00  0.00     0.101 A
HETATM    8  C18 UNL     1      -6.594  15.223  29.208  1.00  0.00     0.046 C
HETATM    9  C32 UNL     1      -6.046  16.302  27.130  1.00  0.00     0.227 A
HETATM   10  O5  UNL     1      -5.276  15.438  26.652  1.00  0.00    -0.283 OA
ENDROOT
BRANCH   1  11
HETATM   11  C14 UNL     1      -5.059  17.458  24.430  1.00  0.00    -0.024 A
HETATM   12  C9  UNL     1      -5.525  16.900  23.267  1.00  0.00    -0.008 A
HETATM   13  C10 UNL     1      -4.610  16.389  22.372  1.00  0.00     0.011 A
HETATM   14  C11 UNL     1      -3.252  16.416  22.600  1.00  0.00     0.001 A
HETATM   15  C12 UNL     1      -2.830  16.982  23.775  1.00  0.00     0.001 A
HETATM   16  C13 UNL     1      -3.712  17.502  24.691  1.00  0.00     0.012 A
BRANCH  12  17
HETATM   17  C2  UNL     1      -6.987  16.830  22.974  1.00  0.00     0.235 C
BRANCH  17  18
HETATM   18  N2  UNL     1      -7.302  16.551  21.603  1.00  0.00    -0.384 NA
HETATM   19  C1  UNL     1      -7.591  16.298  20.354  1.00  0.00     0.401 C
HETATM   20  N1  UNL     1      -6.780  15.345  19.542  1.00  0.00    -0.025 NA
HETATM   21  O1  UNL     1      -8.526  16.751  19.614  1.00  0.00    -0.234 OA
ENDBRANCH  17  18
BRANCH  17  22
HETATM   22  C3  UNL     1      -7.726  15.933  23.934  1.00  0.00    -0.018 A
HETATM   23  C4  UNL     1      -7.332  14.626  24.149  1.00  0.00     0.013 A
HETATM   24  C5  UNL     1      -7.994  13.794  25.012  1.00  0.00     0.037 A
HETATM   25  C6  UNL     1      -9.104  14.272  25.698  1.00  0.00     0.102 A
HETATM   26  C7  UNL     1      -9.519  15.567  25.503  1.00  0.00     0.037 A
HETATM   27  C8  UNL     1      -8.829  16.370  24.633  1.00  0.00     0.013 A
BRANCH  25  28
HETATM   28  N3  UNL     1      -9.780  13.387  26.584  1.00  0.00    -0.116 N
HETATM   29  O2  UNL     1     -10.447  12.455  26.114  1.00  0.00    -0.532 OA
HETATM   30  O3  UNL     1      -9.718  13.532  27.951  1.00  0.00    -0.532 OA
ENDBRANCH  25  28
ENDBRANCH  17  22
ENDBRANCH  12  17
ENDBRANCH   1  11
BRANCH   8  31
HETATM   31  C19 UNL     1      -7.209  15.137  30.516  1.00  0.00    -0.034 A
HETATM   32  C20 UNL     1      -7.790  13.929  30.923  1.00  0.00     0.012 A
HETATM   33  C21 UNL     1      -8.422  13.818  32.139  1.00  0.00     0.012 A
HETATM   34  C22 UNL     1      -8.507  14.893  33.005  1.00  0.00    -0.036 A
HETATM   35  C30 UNL     1      -7.944  16.073  32.620  1.00  0.00     0.012 A
HETATM   36  C31 UNL     1      -7.297  16.192  31.378  1.00  0.00     0.012 A
BRANCH  34  37
HETATM   37  C23 UNL     1      -9.242  14.700  34.281  1.00  0.00     0.014 C
BRANCH  37  38
HETATM   38  C24 UNL     1      -9.899  13.637  34.596  1.00  0.00     0.040 C
BRANCH  38  39
HETATM   39  C25 UNL     1     -11.235  13.249  34.319  1.00  0.00     0.092 C
BRANCH  39  40
HETATM   40  O4  UNL     1     -12.035  13.112  35.374  1.00  0.00    -0.358 OA
ATOM     41  H4  UNL     1     -12.735  12.475  35.287  1.00  0.00     0.217 HD
ENDBRANCH  39  40
BRANCH  39  42
HETATM   42  C26 UNL     1     -11.883  12.976  33.071  1.00  0.00     0.065 A
HETATM   43  C27 UNL     1     -12.440  14.009  32.262  1.00  0.00     0.034 A
HETATM   44  C28 UNL     1     -12.956  13.417  31.157  1.00  0.00     0.019 A
HETATM   45  C29 UNL     1     -12.742  12.082  31.258  1.00  0.00     0.088 A
HETATM   46  N6  UNL     1     -12.090  11.834  32.425  1.00  0.00    -0.364 N
ATOM     47  H6  UNL     1     -11.803  10.912  32.755  1.00  0.00     0.165 HD
ENDBRANCH  39  42
ENDBRANCH  38  39
ENDBRANCH  37  38
ENDBRANCH  34  37
ENDBRANCH   8  31
TORSDOF 11
ENDMDL