MODEL 5
REMARK VINA RESULT: -9.327956918      2.768      9.577
REMARK  11 active torsions:
REMARK  status: ('A' for Active; 'I' for Inactive)
REMARK    1  A    between atoms: C2_2  and  C3_3
REMARK    2  A    between atoms: C3_3  and  C4_4
REMARK    3  A    between atoms: C4_4  and  C5_5
REMARK    4  A    between atoms: C5_5  and  C6_6
REMARK    5  A    between atoms: C6_6  and  C7_7
REMARK    6  A    between atoms: C9_12  and  C10_13
REMARK    7  A    between atoms: C10_13  and  C11_14
REMARK    8  A    between atoms: C15_21  and  C16_22
REMARK    9  A    between atoms: C16_22  and  C17_23
REMARK   10  A    between atoms: N4_35  and  C27_37
REMARK   11  A    between atoms: C27_37  and  O3_39
ROOT
HETATM    1  C7  UNL     1      -6.476  16.322  27.619  1.00  0.00     0.176 C
HETATM    2  N1  UNL     1      -7.347  15.317  27.081  1.00  0.00    -0.346 N
ATOM      3  H1  UNL     1      -7.621  14.572  27.720  1.00  0.00     0.163 HD
HETATM    4  C8  UNL     1      -7.873  15.236  25.766  1.00  0.00     0.241 C
HETATM    5  O1  UNL     1      -9.158  15.210  25.629  1.00  0.00    -0.271 OA
HETATM    6  C9  UNL     1      -7.129  15.179  24.502  1.00  0.00     0.177 C
HETATM    7  N2  UNL     1      -7.194  16.474  23.907  1.00  0.00    -0.344 N
ATOM      8  H2  UNL     1      -8.134  16.859  23.805  1.00  0.00     0.163 HD
HETATM    9  C14 UNL     1      -6.169  17.287  23.446  1.00  0.00     0.250 C
HETATM   10  O2  UNL     1      -6.400  17.943  22.367  1.00  0.00    -0.268 OA
HETATM   11  C15 UNL     1      -4.802  17.486  24.078  1.00  0.00     0.038 C
HETATM   12  C29 UNL     1      -4.796  18.263  25.296  1.00  0.00     0.058 C
HETATM   13  C30 UNL     1      -6.128  18.942  25.642  1.00  0.00     0.044 C
HETATM   14  C31 UNL     1      -3.833  19.467  25.372  1.00  0.00     0.044 C
HETATM   15  N5  UNL     1      -4.438  17.465  26.494  1.00  0.00    -0.346 N
ATOM     16  H5  UNL     1      -3.585  17.746  26.978  1.00  0.00     0.163 HD
HETATM   17  C32 UNL     1      -5.123  16.375  27.043  1.00  0.00     0.241 C
HETATM   18  O4  UNL     1      -4.508  15.236  27.064  1.00  0.00    -0.271 OA
ENDROOT
BRANCH  11  19
HETATM   19  C16 UNL     1      -3.890  17.533  22.951  1.00  0.00     0.030 C
BRANCH  19  20
HETATM   20  C17 UNL     1      -3.008  16.474  22.543  1.00  0.00     0.009 A
HETATM   21  C18 UNL     1      -1.994  15.947  23.315  1.00  0.00     0.029 A
HETATM   22  C19 UNL     1      -1.158  15.016  22.763  1.00  0.00    -0.009 A
HETATM   23  C20 UNL     1      -0.103  14.446  23.478  1.00  0.00     0.014 A
HETATM   24  C25 UNL     1      -1.296  14.589  21.465  1.00  0.00     0.044 A
HETATM   25  C21 UNL     1       0.743  13.512  22.905  1.00  0.00     0.007 A
HETATM   26  C22 UNL     1       0.573  13.110  21.598  1.00  0.00    -0.060 A
HETATM   27  C23 UNL     1       1.448  12.121  20.918  1.00  0.00     0.048 C
HETATM   28  C24 UNL     1      -0.458  13.657  20.879  1.00  0.00     0.037 A
HETATM   29  N3  UNL     1      -2.284  15.093  20.697  1.00  0.00    -0.341 N
HETATM   30  C26 UNL     1      -3.097  16.000  21.241  1.00  0.00     0.114 A
ATOM     31  H3  UNL     1      -2.405  14.790  19.731  1.00  0.00     0.167 HD
HETATM   32  N4  UNL     1      -4.086  16.386  20.466  1.00  0.00    -0.350 N
ATOM     33  H4  UNL     1      -4.759  17.035  20.872  1.00  0.00     0.163 HD
BRANCH  32  34
HETATM   34  C27 UNL     1      -4.311  15.994  19.126  1.00  0.00     0.214 C
HETATM   35  C28 UNL     1      -5.438  14.950  19.153  1.00  0.00     0.063 C
BRANCH  34  36
HETATM   36  O3  UNL     1      -4.893  17.112  18.473  1.00  0.00    -0.377 OA
ATOM     37  H3  UNL     1      -5.662  17.347  18.978  1.00  0.00     0.212 HD
ENDBRANCH  34  36
ENDBRANCH  32  34
ENDBRANCH  19  20
ENDBRANCH  11  19
BRANCH   6  38
HETATM   38  C10 UNL     1      -7.540  14.030  23.649  1.00  0.00     0.038 C
BRANCH  38  39
HETATM   39  C11 UNL     1      -8.015  14.242  22.275  1.00  0.00    -0.020 C
HETATM   40  C12 UNL     1      -7.674  13.095  21.362  1.00  0.00     0.009 C
HETATM   41  C13 UNL     1      -9.566  14.371  22.263  1.00  0.00     0.009 C
ENDBRANCH  38  39
ENDBRANCH   6  38
BRANCH   1  42
HETATM   42  C6  UNL     1      -6.359  16.073  29.112  1.00  0.00     0.035 C
BRANCH  42  43
HETATM   43  C5  UNL     1      -7.402  16.719  29.957  1.00  0.00     0.002 C
BRANCH  43  44
HETATM   44  C4  UNL     1      -7.215  16.363  31.445  1.00  0.00     0.000 C
BRANCH  44  45
HETATM   45  C3  UNL     1      -8.042  15.078  31.604  1.00  0.00    -0.000 C
BRANCH  45  46
HETATM   46  C2  UNL     1      -7.570  14.225  32.748  1.00  0.00    -0.005 C
HETATM   47  C1  UNL     1      -8.396  14.621  33.980  1.00  0.00     0.005 C
ENDBRANCH  45  46
ENDBRANCH  44  45
ENDBRANCH  43  44
ENDBRANCH  42  43
ENDBRANCH   1  42
TORSDOF 11
ENDMDL