MODEL 3
REMARK VINA RESULT: -10.326368058      2.990      9.509
REMARK  12 active torsions:
REMARK  status: ('A' for Active; 'I' for Inactive)
REMARK    1  A    between atoms: C2_2  and  C3_3
REMARK    2  A    between atoms: C3_3  and  N1_4
REMARK    3  A    between atoms: N1_4  and  C4_6
REMARK    4  A    between atoms: N3_10  and  C6_12
REMARK    5  A    between atoms: C6_12  and  C7_13
REMARK    6  A    between atoms: C7_13  and  C8_14
REMARK    7  A    between atoms: C16_26  and  N6_27
REMARK    8  A    between atoms: N6_27  and  C17_29
REMARK    9  A    between atoms: C17_29  and  C18_30
REMARK   10  A    between atoms: C22_36  and  C23_37
REMARK   11  A    between atoms: C31_48  and  C32_49
REMARK   12  A    between atoms: C32_49  and  C33_50
ROOT
HETATM    1  C4  UNL     1     -10.087  15.698  30.556  1.00  0.00     0.711 A
HETATM    2  N2  UNL     1     -11.004  15.516  29.551  1.00  0.00    -0.021 N
ATOM      3  H2  UNL     1     -11.869  15.016  29.760  1.00  0.00     0.203 HD
HETATM    4  C5  UNL     1     -10.812  15.964  28.325  1.00  0.00     0.707 A
HETATM    5  N3  UNL     1     -11.659  15.809  27.357  1.00  0.00    -0.225 N
ATOM      6  H3  UNL     1     -11.424  16.190  26.440  1.00  0.00     0.177 HD
HETATM    7  N5  UNL     1      -9.643  16.636  28.069  1.00  0.00    -0.022 N
ATOM      8  H5  UNL     1      -9.470  16.993  27.130  1.00  0.00     0.203 HD
HETATM    9  C16 UNL     1      -8.730  16.832  29.015  1.00  0.00     0.707 A
HETATM   10  N9  UNL     1      -8.968  16.358  30.247  1.00  0.00    -0.021 N
ATOM     11  H9  UNL     1      -8.269  16.507  30.974  1.00  0.00     0.203 HD
ENDROOT
BRANCH   9  12
HETATM   12  N6  UNL     1      -7.654  17.450  28.814  1.00  0.00    -0.221 N
ATOM     13  H6  UNL     1      -7.105  17.665  29.647  1.00  0.00     0.178 HD
BRANCH  12  14
HETATM   14  C17 UNL     1      -7.090  17.897  27.554  1.00  0.00     0.179 C
BRANCH  14  15
HETATM   15  C18 UNL     1      -5.783  17.315  27.290  1.00  0.00    -0.012 A
HETATM   16  C19 UNL     1      -4.765  17.634  28.180  1.00  0.00     0.012 A
HETATM   17  C20 UNL     1      -3.503  17.112  28.022  1.00  0.00     0.018 A
HETATM   18  C21 UNL     1      -3.242  16.260  26.966  1.00  0.00     0.088 A
HETATM   19  N7  UNL     1      -4.236  15.969  26.124  1.00  0.00    -0.365 N
HETATM   20  C22 UNL     1      -5.511  16.474  26.253  1.00  0.00     0.051 A
ATOM     21  H7  UNL     1      -4.041  15.340  25.345  1.00  0.00     0.165 HD
BRANCH  20  22
HETATM   22  C23 UNL     1      -6.515  16.099  25.271  1.00  0.00     0.000 A
HETATM   23  C24 UNL     1      -7.400  15.104  25.634  1.00  0.00     0.015 A
HETATM   24  C25 UNL     1      -8.428  14.701  24.826  1.00  0.00     0.014 A
HETATM   25  C26 UNL     1      -8.583  15.312  23.606  1.00  0.00    -0.009 A
HETATM   26  C27 UNL     1      -9.623  14.917  22.748  1.00  0.00     0.019 A
HETATM   27  C30 UNL     1      -7.727  16.317  23.187  1.00  0.00     0.052 A
HETATM   28  C28 UNL     1      -9.819  15.487  21.519  1.00  0.00     0.075 A
HETATM   29  C29 UNL     1      -8.945  16.476  21.146  1.00  0.00     0.245 A
HETATM   30  O1  UNL     1      -9.083  17.035  20.017  1.00  0.00    -0.268 OA
HETATM   31  N8  UNL     1      -7.945  16.851  21.980  1.00  0.00    -0.322 N
ATOM     32  H8  UNL     1      -7.316  17.590  21.666  1.00  0.00     0.169 HD
HETATM   33  C31 UNL     1      -6.698  16.697  24.037  1.00  0.00    -0.015 A
BRANCH  33  34
HETATM   34  C32 UNL     1      -5.790  17.746  23.583  1.00  0.00     0.068 C
BRANCH  34  35
HETATM   35  C33 UNL     1      -4.634  17.304  22.785  1.00  0.00    -0.032 C
HETATM   36  C34 UNL     1      -3.362  17.523  23.055  1.00  0.00     0.007 C
ENDBRANCH  34  35
ENDBRANCH  33  34
ENDBRANCH  20  22
ENDBRANCH  14  15
ENDBRANCH  12  14
ENDBRANCH   9  12
BRANCH   1  37
HETATM   37  N1  UNL     1     -10.354  15.244  31.676  1.00  0.00    -0.201 N
ATOM     38  H1  UNL     1     -11.061  14.517  31.567  1.00  0.00     0.183 HD
BRANCH  37  39
HETATM   39  C3  UNL     1     -10.052  15.356  33.012  1.00  0.00     0.105 C
BRANCH  39  40
HETATM   40  C2  UNL     1      -8.797  14.742  33.516  1.00  0.00     0.007 C
HETATM   41  C1  UNL     1      -8.091  13.862  32.816  1.00  0.00     0.012 C
ENDBRANCH  39  40
ENDBRANCH  37  39
ENDBRANCH   1  37
BRANCH   5  42
HETATM   42  C6  UNL     1     -12.893  15.135  27.511  1.00  0.00     0.142 C
BRANCH  42  43
HETATM   43  C7  UNL     1     -12.846  13.639  27.356  1.00  0.00     0.061 C
BRANCH  43  44
HETATM   44  C8  UNL     1     -13.559  13.027  28.491  1.00  0.00    -0.029 A
HETATM   45  C9  UNL     1     -14.685  13.532  29.141  1.00  0.00     0.096 A
HETATM   46  N4  UNL     1     -15.049  12.714  30.127  1.00  0.00    -0.365 N
HETATM   47  C10 UNL     1     -14.196  11.671  30.157  1.00  0.00     0.042 A
ATOM     48  H4  UNL     1     -15.841  12.854  30.754  1.00  0.00     0.165 HD
HETATM   49  C11 UNL     1     -14.145  10.570  30.980  1.00  0.00     0.030 A
HETATM   50  C15 UNL     1     -13.258  11.856  29.136  1.00  0.00    -0.002 A
HETATM   51  C12 UNL     1     -13.159   9.611  30.822  1.00  0.00     0.002 A
HETATM   52  C13 UNL     1     -12.258   9.811  29.822  1.00  0.00     0.001 A
HETATM   53  C14 UNL     1     -12.281  10.895  28.985  1.00  0.00     0.014 A
ENDBRANCH  43  44
ENDBRANCH  42  43
ENDBRANCH   5  42
TORSDOF 12
ENDMDL