MODEL 3
REMARK VINA RESULT: -10.938189302      1.934      8.896
REMARK  10 active torsions:
REMARK  status: ('A' for Active; 'I' for Inactive)
REMARK    1  A    between atoms: C2_2  and  C3_3
REMARK    2  A    between atoms: C3_3  and  N1_4
REMARK    3  A    between atoms: N1_4  and  C4_6
REMARK    4  A    between atoms: N3_10  and  C6_12
REMARK    5  A    between atoms: C6_12  and  C7_13
REMARK    6  A    between atoms: C6_12  and  C16_22
REMARK    7  A    between atoms: C7_13  and  C8_14
REMARK       I    between atoms: C16_22  and  N4_24
REMARK    8  A    between atoms: N4_24  and  C17_26
REMARK    9  A    between atoms: C17_26  and  C18_27
REMARK   10  A    between atoms: N8_42  and  C26_44
ROOT
HETATM    1  C4  UNL     1      -7.079  16.251  23.674  1.00  0.00     0.680 A
HETATM    2  N2  UNL     1      -7.907  16.228  24.712  1.00  0.00    -0.175 N
ATOM      3  H2  UNL     1      -8.911  16.214  24.536  1.00  0.00     0.186 HD
HETATM    4  C5  UNL     1      -7.465  16.222  26.020  1.00  0.00     0.147 A
HETATM    5  N3  UNL     1      -8.246  16.204  26.948  1.00  0.00    -0.361 N
ATOM      6  H3  UNL     1      -9.135  16.199  26.448  1.00  0.00     0.162 HD
HETATM    7  C23 UNL     1      -6.079  16.242  26.210  1.00  0.00     0.109 A
HETATM    8  N6  UNL     1      -5.555  16.246  27.440  1.00  0.00    -0.347 N
ATOM      9  H6  UNL     1      -6.164  16.229  28.259  1.00  0.00     0.167 HD
HETATM   10  C24 UNL     1      -4.220  16.272  27.588  1.00  0.00     0.182 A
HETATM   11  N7  UNL     1      -3.360  16.295  26.566  1.00  0.00    -0.337 N
ATOM     12  H7  UNL     1      -2.355  16.315  26.739  1.00  0.00     0.168 HD
HETATM   13  C25 UNL     1      -3.826  16.293  25.314  1.00  0.00     0.132 A
HETATM   14  N8  UNL     1      -3.138  16.305  24.251  1.00  0.00    -0.370 N
ATOM     15  H8  UNL     1      -3.671  16.301  23.382  1.00  0.00     0.161 HD
HETATM   16  C31 UNL     1      -5.216  16.266  25.133  1.00  0.00     0.123 A
HETATM   17  N9  UNL     1      -5.752  16.270  23.902  1.00  0.00    -0.186 N
ATOM     18  H9  UNL     1      -5.123  16.287  23.099  1.00  0.00     0.184 HD
ENDROOT
BRANCH   5  19
HETATM   19  C6  UNL     1      -8.678  16.186  28.228  1.00  0.00     0.175 C
BRANCH  19  20
HETATM   20  C7  UNL     1      -8.208  14.930  29.001  1.00  0.00     0.040 C
BRANCH  20  21
HETATM   21  C8  UNL     1      -7.777  15.218  30.386  1.00  0.00    -0.004 C
HETATM   22  C9  UNL     1      -7.426  16.687  30.499  1.00  0.00     0.005 C
HETATM   23  C10 UNL     1      -7.119  16.976  31.939  1.00  0.00     0.000 C
HETATM   24  C11 UNL     1      -8.387  16.907  32.733  1.00  0.00     0.001 C
HETATM   25  C12 UNL     1      -9.331  15.840  32.267  1.00  0.00     0.009 C
HETATM   26  C13 UNL     1      -8.701  14.758  31.452  1.00  0.00    -0.044 C
HETATM   27  C14 UNL     1      -9.862  13.921  30.890  1.00  0.00     0.015 C
HETATM   28  C15 UNL     1      -7.992  13.798  32.414  1.00  0.00     0.015 C
ENDBRANCH  20  21
ENDBRANCH  19  20
BRANCH  19  29
HETATM   29  C16 UNL     1     -10.178  16.256  28.403  1.00  0.00     0.240 C
HETATM   30  O1  UNL     1     -10.702  17.111  29.151  1.00  0.00    -0.271 OA
HETATM   31  N4  UNL     1     -11.018  15.348  27.714  1.00  0.00    -0.359 N
ATOM     32  H4  UNL     1     -10.587  14.649  27.109  1.00  0.00     0.162 HD
BRANCH  31  33
HETATM   33  C17 UNL     1     -12.434  15.368  27.827  1.00  0.00     0.127 C
BRANCH  33  34
HETATM   34  C18 UNL     1     -13.129  14.044  27.684  1.00  0.00     0.006 C
HETATM   35  C19 UNL     1     -13.274  13.337  29.011  1.00  0.00     0.034 C
HETATM   36  C20 UNL     1     -13.724  11.925  28.755  1.00  0.00     0.232 C
HETATM   37  N5  UNL     1     -12.733  11.229  27.953  1.00  0.00    -0.075 N
HETATM   38  C21 UNL     1     -12.679  11.811  26.616  1.00  0.00     0.232 C
ATOM     39  H52 UNL     1     -11.817  11.217  28.401  1.00  0.00     0.277 HD
ATOM     40  H51 UNL     1     -12.899  10.223  27.926  1.00  0.00     0.277 HD
HETATM   41  C22 UNL     1     -12.254  13.237  26.712  1.00  0.00     0.034 C
ENDBRANCH  33  34
ENDBRANCH  31  33
ENDBRANCH  19  29
ENDBRANCH   5  19
BRANCH   1  42
HETATM   42  N1  UNL     1      -7.530  16.254  22.438  1.00  0.00    -0.223 N
ATOM     43  H1  UNL     1      -7.418  17.062  21.826  1.00  0.00     0.178 HD
BRANCH  42  44
HETATM   44  C3  UNL     1      -8.205  15.030  21.988  1.00  0.00     0.164 C
BRANCH  44  45
HETATM   45  C2  UNL     1      -9.642  15.305  21.717  1.00  0.00    -0.017 C
HETATM   46  C1  UNL     1     -10.619  14.947  22.536  1.00  0.00     0.008 C
ENDBRANCH  44  45
ENDBRANCH  42  44
ENDBRANCH   1  42
BRANCH  14  47
HETATM   47  C26 UNL     1      -1.717  16.324  24.104  1.00  0.00     0.083 C
HETATM   48  C27 UNL     1      -1.273  17.012  22.827  1.00  0.00     0.025 C
HETATM   49  C28 UNL     1      -1.315  15.939  21.761  1.00  0.00     0.002 C
HETATM   50  C29 UNL     1      -0.915  14.685  22.495  1.00  0.00     0.002 C
HETATM   51  C30 UNL     1      -1.282  14.870  23.931  1.00  0.00     0.025 C
ENDBRANCH  14  47
TORSDOF 10
ENDMDL