MODEL 3
REMARK VINA RESULT: -11.170791483      5.501     11.274
REMARK  13 active torsions:
REMARK  status: ('A' for Active; 'I' for Inactive)
REMARK    1  A    between atoms: N1_1  and  S1_4
REMARK    2  A    between atoms: S1_4  and  N2_7
REMARK    3  A    between atoms: N2_7  and  C1_9
REMARK    4  A    between atoms: C1_9  and  C2_10
REMARK    5  A    between atoms: C5_13  and  C6_14
REMARK    6  A    between atoms: C6_14  and  N3_15
REMARK    7  A    between atoms: N3_15  and  C7_17
REMARK    8  A    between atoms: C8_20  and  N5_21
REMARK    9  A    between atoms: N5_21  and  C9_23
REMARK   10  A    between atoms: C9_23  and  C10_24
REMARK   11  A    between atoms: C16_32  and  N7_33
REMARK   12  A    between atoms: N7_33  and  C17_35
REMARK   13  A    between atoms: C20_38  and  C21_39
ROOT
HETATM    1  C7  UNL     1      -9.817  16.781  27.376  1.00  0.00     0.707 A
HETATM    2  N4  UNL     1      -9.841  16.439  26.075  1.00  0.00    -0.022 N
ATOM      3  H4  UNL     1      -9.062  16.731  25.486  1.00  0.00     0.203 HD
HETATM    4  C8  UNL     1     -10.835  15.736  25.511  1.00  0.00     0.707 A
HETATM    5  N6  UNL     1     -11.860  15.352  26.287  1.00  0.00    -0.021 N
ATOM      6  H6  UNL     1     -12.628  14.816  25.883  1.00  0.00     0.203 HD
HETATM    7  C16 UNL     1     -11.881  15.669  27.593  1.00  0.00     0.711 A
HETATM    8  N8  UNL     1     -10.861  16.379  28.126  1.00  0.00    -0.021 N
ATOM      9  H8  UNL     1     -10.882  16.616  29.118  1.00  0.00     0.203 HD
ENDROOT
BRANCH   1  10
HETATM   10  N3  UNL     1      -8.854  17.455  27.887  1.00  0.00    -0.221 N
ATOM     11  H3  UNL     1      -8.935  18.469  27.950  1.00  0.00     0.178 HD
BRANCH  10  12
HETATM   12  C6  UNL     1      -7.658  16.809  28.375  1.00  0.00     0.176 C
BRANCH  12  13
HETATM   13  C5  UNL     1      -7.885  16.232  29.719  1.00  0.00    -0.040 A
HETATM   14  C4  UNL     1      -8.253  14.916  29.824  1.00  0.00     0.009 A
HETATM   15  C3  UNL     1      -8.479  14.323  31.054  1.00  0.00     0.009 A
HETATM   16  C2  UNL     1      -8.321  15.107  32.177  1.00  0.00    -0.040 A
HETATM   17  C30 UNL     1      -7.955  16.417  32.094  1.00  0.00     0.009 A
HETATM   18  C29 UNL     1      -7.733  16.993  30.850  1.00  0.00     0.009 A
BRANCH  16  19
HETATM   19  C1  UNL     1      -8.562  14.475  33.490  1.00  0.00     0.172 C
BRANCH  19  20
HETATM   20  N2  UNL     1      -9.788  13.694  33.409  1.00  0.00    -0.299 N
ATOM     21  H2  UNL     1      -9.819  12.690  33.237  1.00  0.00     0.174 HD
BRANCH  20  22
HETATM   22  S1  UNL     1     -11.176  14.678  33.637  1.00  0.00     0.313 S
HETATM   23  O1  UNL     1     -10.818  15.971  34.332  1.00  0.00    -0.183 OA
HETATM   24  O2  UNL     1     -12.154  13.962  34.536  1.00  0.00    -0.183 OA
BRANCH  22  25
HETATM   25  N1  UNL     1     -11.982  15.026  32.168  1.00  0.00    -0.312 N
ATOM     26  H12 UNL     1     -12.963  15.299  32.098  1.00  0.00     0.170 HD
ATOM     27  H11 UNL     1     -11.331  14.918  31.390  1.00  0.00     0.170 HD
ENDBRANCH  22  25
ENDBRANCH  20  22
ENDBRANCH  19  20
ENDBRANCH  16  19
ENDBRANCH  12  13
ENDBRANCH  10  12
ENDBRANCH   1  10
BRANCH   4  28
HETATM   28  N5  UNL     1     -10.843  15.417  24.262  1.00  0.00    -0.221 N
ATOM     29  H5  UNL     1     -11.416  15.961  23.619  1.00  0.00     0.178 HD
BRANCH  28  30
HETATM   30  C9  UNL     1     -10.074  14.321  23.747  1.00  0.00     0.176 C
BRANCH  30  31
HETATM   31  C10 UNL     1      -9.365  14.661  22.495  1.00  0.00    -0.040 A
HETATM   32  C11 UNL     1      -8.172  14.103  22.114  1.00  0.00     0.009 A
HETATM   33  C12 UNL     1      -7.590  14.489  20.924  1.00  0.00     0.001 A
HETATM   34  C13 UNL     1      -8.148  15.422  20.075  1.00  0.00     0.000 A
HETATM   35  C14 UNL     1      -9.357  15.980  20.470  1.00  0.00     0.001 A
HETATM   36  C15 UNL     1      -9.940  15.593  21.665  1.00  0.00     0.009 A
ENDBRANCH  30  31
ENDBRANCH  28  30
ENDBRANCH   4  28
BRANCH   7  37
HETATM   37  N7  UNL     1     -12.872  15.282  28.291  1.00  0.00    -0.191 N
ATOM     38  H7  UNL     1     -13.597  15.971  28.495  1.00  0.00     0.184 HD
BRANCH  37  39
HETATM   39  C17 UNL     1     -13.054  13.975  28.810  1.00  0.00     0.049 A
HETATM   40  C18 UNL     1     -11.966  13.115  28.911  1.00  0.00     0.031 A
HETATM   41  C19 UNL     1     -12.137  11.835  29.416  1.00  0.00     0.014 A
HETATM   42  C20 UNL     1     -13.378  11.388  29.825  1.00  0.00    -0.026 A
HETATM   43  C27 UNL     1     -14.442  12.261  29.714  1.00  0.00     0.014 A
HETATM   44  C28 UNL     1     -14.296  13.538  29.216  1.00  0.00     0.031 A
BRANCH  42  45
HETATM   45  C21 UNL     1     -13.510  10.041  30.347  1.00  0.00    -0.026 A
HETATM   46  C22 UNL     1     -14.737   9.536  30.712  1.00  0.00     0.012 A
HETATM   47  C23 UNL     1     -14.848   8.248  31.208  1.00  0.00     0.001 A
HETATM   48  C24 UNL     1     -13.713   7.453  31.340  1.00  0.00     0.000 A
HETATM   49  C25 UNL     1     -12.480   7.945  30.978  1.00  0.00     0.001 A
HETATM   50  C26 UNL     1     -12.410   9.220  30.493  1.00  0.00     0.012 A
ENDBRANCH  42  45
ENDBRANCH  37  39
ENDBRANCH   7  37
TORSDOF 13
ENDMDL