MODEL 1
REMARK VINA RESULT: -6.149052579      0.000      0.000
REMARK  10 active torsions:
REMARK  status: ('A' for Active; 'I' for Inactive)
REMARK    1  A    between atoms: C3_3  and  C4_4
REMARK    2  A    between atoms: C15_18  and  C16_19
REMARK    3  A    between atoms: C16_19  and  C17_20
REMARK    4  A    between atoms: C17_20  and  C18_21
REMARK    5  A    between atoms: C18_21  and  C19_22
REMARK    6  A    between atoms: C19_22  and  N2_23
REMARK    7  A    between atoms: C21_31  and  C22_32
REMARK    8  A    between atoms: C22_32  and  C23_33
REMARK    9  A    between atoms: C27_40  and  C28_41
REMARK   10  A    between atoms: C28_41  and  C29_42
ROOT
HETATM    1  C4  UNL     1     -11.996   8.748  37.291  1.00  0.00     0.107 C
HETATM    2  C5  UNL     1     -10.899   8.020  36.515  1.00  0.00     0.030 C
HETATM    3  C6  UNL     1     -11.415   6.780  35.861  1.00  0.00     0.010 C
HETATM    4  C7  UNL     1     -10.559   6.444  34.682  1.00  0.00     0.004 C
HETATM    5  C8  UNL     1      -9.444   5.508  35.160  1.00  0.00     0.014 C
HETATM    6  C9  UNL     1     -11.328   5.799  33.571  1.00  0.00    -0.020 C
HETATM    7  C10 UNL     1     -12.067   6.485  32.715  1.00  0.00    -0.087 C
HETATM    8  C11 UNL     1     -12.792   5.758  31.649  1.00  0.00     0.043 C
HETATM    9  C12 UNL     1     -12.188   7.956  32.796  1.00  0.00     0.042 C
HETATM   10  C13 UNL     1     -12.670   8.623  31.551  1.00  0.00     0.107 C
HETATM   11  C14 UNL     1     -13.847   9.444  31.913  1.00  0.00     0.218 C
HETATM   12  O1  UNL     1     -14.968   8.825  31.949  1.00  0.00    -0.274 OA
HETATM   13  N1  UNL     1     -13.871  10.807  32.218  1.00  0.00    -0.348 N
ATOM     14  H1  UNL     1     -14.439  11.106  33.010  1.00  0.00     0.163 HD
HETATM   15  C15 UNL     1     -13.139  11.837  31.480  1.00  0.00     0.176 C
HETATM   16  C20 UNL     1     -13.272  13.183  32.054  1.00  0.00     0.241 C
HETATM   17  O2  UNL     1     -13.858  14.086  31.407  1.00  0.00    -0.271 OA
HETATM   18  N3  UNL     1     -12.766  13.548  33.335  1.00  0.00    -0.346 N
ATOM     19  H3  UNL     1     -13.385  14.089  33.939  1.00  0.00     0.163 HD
HETATM   20  C21 UNL     1     -11.465  13.225  33.855  1.00  0.00     0.177 C
HETATM   21  C26 UNL     1     -11.715  12.003  34.751  1.00  0.00     0.244 C
HETATM   22  O3  UNL     1     -11.059  11.013  34.346  1.00  0.00    -0.271 OA
HETATM   23  N4  UNL     1     -12.564  12.194  35.782  1.00  0.00    -0.324 N
ATOM     24  H4  UNL     1     -13.290  12.795  35.393  1.00  0.00     0.169 HD
HETATM   25  C27 UNL     1     -12.920  12.020  36.948  1.00  0.00     0.080 C
HETATM   26  C32 UNL     1     -12.180  11.227  37.927  1.00  0.00     0.264 C
HETATM   27  O4  UNL     1     -12.147  11.742  39.113  1.00  0.00    -0.266 OA
HETATM   28  N5  UNL     1     -11.518  10.020  37.756  1.00  0.00    -0.348 N
ATOM     29  H5  UNL     1     -10.529  10.039  38.003  1.00  0.00     0.163 HD
ENDROOT
BRANCH  15  30
HETATM   30  C16 UNL     1     -13.440  11.759  30.024  1.00  0.00     0.035 C
BRANCH  30  31
HETATM   31  C17 UNL     1     -12.220  11.575  29.201  1.00  0.00     0.004 C
BRANCH  31  32
HETATM   32  C18 UNL     1     -11.781  12.896  28.542  1.00  0.00     0.027 C
BRANCH  32  33
HETATM   33  C19 UNL     1     -13.069  13.525  27.995  1.00  0.00     0.229 C
BRANCH  33  34
HETATM   34  N2  UNL     1     -13.160  14.915  28.393  1.00  0.00    -0.079 N
ATOM     35  H23 UNL     1     -12.596  15.519  27.796  1.00  0.00     0.274 HD
ATOM     36  H22 UNL     1     -14.077  15.311  28.185  1.00  0.00     0.274 HD
ATOM     37  H21 UNL     1     -12.916  15.019  29.378  1.00  0.00     0.274 HD
ENDBRANCH  33  34
ENDBRANCH  32  33
ENDBRANCH  31  32
ENDBRANCH  30  31
ENDBRANCH  15  30
BRANCH  20  38
HETATM   38  C22 UNL     1     -10.839  14.308  34.658  1.00  0.00     0.038 C
BRANCH  38  39
HETATM   39  C23 UNL     1      -9.460  14.704  34.287  1.00  0.00    -0.020 C
HETATM   40  C24 UNL     1      -9.242  16.129  33.906  1.00  0.00     0.009 C
HETATM   41  C25 UNL     1      -8.943  13.827  33.144  1.00  0.00     0.009 C
ENDBRANCH  38  39
ENDBRANCH  20  38
BRANCH  25  42
HETATM   42  C28 UNL     1     -14.188  12.666  37.448  1.00  0.00     0.067 C
BRANCH  42  43
HETATM   43  C29 UNL     1     -15.396  11.858  37.540  1.00  0.00    -0.017 C
HETATM   44  C30 UNL     1     -15.412  10.471  37.012  1.00  0.00     0.010 C
HETATM   45  C31 UNL     1     -15.712  11.722  39.053  1.00  0.00     0.010 C
ENDBRANCH  42  43
ENDBRANCH  25  42
BRANCH   1  46
HETATM   46  C3  UNL     1     -12.344   7.831  38.421  1.00  0.00    -0.006 C
HETATM   47  C2  UNL     1     -13.581   7.535  38.771  1.00  0.00    -0.033 C
HETATM   48  C1  UNL     1     -13.814   6.614  39.908  1.00  0.00     0.036 C
ENDBRANCH   1  46
TORSDOF 10
ENDMDL