MODEL 1
REMARK VINA RESULT: -10.747220156      0.000      0.000
REMARK  12 active torsions:
REMARK  status: ('A' for Active; 'I' for Inactive)
REMARK    1  A    between atoms: C2_2  and  C3_3
REMARK    2  A    between atoms: C3_3  and  C4_4
REMARK    3  A    between atoms: C6_6  and  N1_7
REMARK    4  A    between atoms: N1_7  and  C7_9
REMARK    5  A    between atoms: C10_12  and  C11_13
REMARK    6  A    between atoms: C11_13  and  C12_14
REMARK    7  A    between atoms: N3_22  and  C16_24
REMARK    8  A    between atoms: C19_27  and  N4_28
REMARK       I    between atoms: N4_28  and  C20_30
REMARK    9  A    between atoms: C20_30  and  C21_32
REMARK   10  A    between atoms: C21_32  and  C22_33
REMARK   11  A    between atoms: C22_33  and  C23_34
REMARK       I    between atoms: C23_34  and  N5_36
REMARK   12  A    between atoms: N5_36  and  C24_38
ROOT
HETATM    1  C4  UNL     1      -5.421  16.794  27.926  1.00  0.00     0.030 A
HETATM    2  C5  UNL     1      -6.092  16.096  26.953  1.00  0.00     0.074 A
HETATM    3  C6  UNL     1      -7.303  15.529  27.265  1.00  0.00     0.123 A
HETATM    4  N2  UNL     1      -7.828  15.668  28.520  1.00  0.00    -0.176 N
ATOM      5  H2  UNL     1      -8.734  15.255  28.744  1.00  0.00     0.186 HD
HETATM    6  C15 UNL     1      -7.109  16.392  29.515  1.00  0.00     0.684 A
HETATM    7  N3  UNL     1      -7.595  16.264  30.627  1.00  0.00    -0.192 N
ATOM      8  H3  UNL     1      -7.008  16.841  31.229  1.00  0.00     0.184 HD
HETATM    9  N7  UNL     1      -5.960  16.900  29.135  1.00  0.00    -0.195 N
ATOM     10  H7  UNL     1      -5.433  17.426  29.832  1.00  0.00     0.184 HD
ENDROOT
BRANCH   7  11
HETATM   11  C16 UNL     1      -8.500  15.751  31.441  1.00  0.00     0.049 A
HETATM   12  C17 UNL     1      -9.842  15.719  31.192  1.00  0.00     0.032 A
HETATM   13  C18 UNL     1     -10.772  14.947  31.933  1.00  0.00     0.032 A
HETATM   14  C19 UNL     1     -10.231  14.179  32.959  1.00  0.00     0.035 A
HETATM   15  C30 UNL     1      -8.939  14.184  33.262  1.00  0.00     0.032 A
HETATM   16  C31 UNL     1      -8.039  14.953  32.533  1.00  0.00     0.032 A
BRANCH  14  17
HETATM   17  N4  UNL     1     -11.116  12.947  33.270  1.00  0.00    -0.323 N
HETATM   18  C20 UNL     1     -11.984  13.093  34.259  1.00  0.00     0.253 C
HETATM   19  O3  UNL     1     -12.173  14.054  35.015  1.00  0.00    -0.268 OA
ATOM     20  H4  UNL     1     -11.035  12.075  32.746  1.00  0.00     0.169 HD
BRANCH  18  21
HETATM   21  C21 UNL     1     -12.897  11.859  34.508  1.00  0.00     0.135 C
BRANCH  21  22
HETATM   22  C22 UNL     1     -13.413  11.297  33.523  1.00  0.00    -0.050 C
BRANCH  22  23
HETATM   23  C23 UNL     1     -14.003  10.663  32.385  1.00  0.00     0.294 C
HETATM   24  O4  UNL     1     -15.158  10.432  32.128  1.00  0.00    -0.258 OA
HETATM   25  N5  UNL     1     -12.961  10.256  31.402  1.00  0.00    -0.303 N
ATOM     26  H5  UNL     1     -12.391   9.413  31.482  1.00  0.00     0.171 HD
BRANCH  25  27
HETATM   27  C24 UNL     1     -12.875  11.112  30.434  1.00  0.00     0.108 A
HETATM   28  C25 UNL     1     -12.223  10.649  29.266  1.00  0.00     0.049 A
HETATM   29  C26 UNL     1     -12.126  11.511  28.202  1.00  0.00     0.012 A
HETATM   30  C27 UNL     1     -12.688  12.792  28.332  1.00  0.00    -0.046 A
HETATM   31  C28 UNL     1     -12.574  13.713  27.168  1.00  0.00     0.049 C
HETATM   32  C29 UNL     1     -13.314  13.216  29.465  1.00  0.00     0.096 A
HETATM   33  N6  UNL     1     -13.385  12.354  30.495  1.00  0.00    -0.352 N
ATOM     34  H6  UNL     1     -13.844  12.654  31.355  1.00  0.00     0.166 HD
ENDBRANCH  25  27
ENDBRANCH  22  23
ENDBRANCH  21  22
ENDBRANCH  18  21
ENDBRANCH  14  17
ENDBRANCH   7  11
BRANCH   3  35
HETATM   35  N1  UNL     1      -7.853  14.688  26.504  1.00  0.00    -0.342 N
ATOM     36  H1  UNL     1      -7.869  13.747  26.899  1.00  0.00     0.167 HD
BRANCH  35  37
HETATM   37  C7  UNL     1      -8.431  14.753  25.275  1.00  0.00     0.033 A
HETATM   38  C8  UNL     1      -9.775  15.093  25.085  1.00  0.00     0.030 A
HETATM   39  C9  UNL     1     -10.299  15.285  23.819  1.00  0.00     0.010 A
HETATM   40  C10 UNL     1      -9.539  15.167  22.690  1.00  0.00    -0.048 A
HETATM   41  C13 UNL     1      -8.197  14.827  22.863  1.00  0.00     0.010 A
HETATM   42  C14 UNL     1      -7.674  14.631  24.103  1.00  0.00     0.030 A
BRANCH  40  43
HETATM   43  C11 UNL     1     -10.095  15.485  21.360  1.00  0.00     0.151 C
BRANCH  43  44
HETATM   44  C12 UNL     1      -9.221  16.097  20.393  1.00  0.00     0.176 C
HETATM   45  O1  UNL     1      -8.771  15.211  19.438  1.00  0.00    -0.648 OA
HETATM   46  O2  UNL     1      -8.751  17.299  20.257  1.00  0.00    -0.648 OA
ENDBRANCH  43  44
ENDBRANCH  40  43
ENDBRANCH  35  37
ENDBRANCH   3  35
BRANCH   1  47
HETATM   47  C3  UNL     1      -4.060  17.335  27.676  1.00  0.00     0.057 C
BRANCH  47  48
HETATM   48  C2  UNL     1      -3.969  17.806  26.235  1.00  0.00     0.002 C
HETATM   49  C1  UNL     1      -4.280  19.273  26.129  1.00  0.00     0.005 C
ENDBRANCH  47  48
ENDBRANCH   1  47
TORSDOF 12
ENDMDL