MODEL 4
REMARK VINA RESULT: -10.038943460      2.541      5.243
REMARK  10 active torsions:
REMARK  status: ('A' for Active; 'I' for Inactive)
REMARK    1  A    between atoms: C2_2  and  C3_3
REMARK    2  A    between atoms: C2_2  and  C33_42
REMARK    3  A    between atoms: C3_3  and  N1_4
REMARK       I    between atoms: N1_4  and  C4_6
REMARK    4  A    between atoms: C4_6  and  C5_8
REMARK    5  A    between atoms: C8_11  and  C10_13
REMARK       I    between atoms: C10_13  and  N2_15
REMARK    6  A    between atoms: N2_15  and  C11_17
REMARK    7  A    between atoms: C11_17  and  C12_18
REMARK    8  A    between atoms: C12_18  and  C13_19
REMARK    9  A    between atoms: C13_19  and  N3_20
REMARK   10  A    between atoms: C23_30  and  O3_31
ROOT
HETATM    1  C5  UNL     1      -8.656  15.729  26.340  1.00  0.00     0.053 C
HETATM    2  C6  UNL     1      -7.263  15.206  26.186  1.00  0.00     0.022 C
HETATM    3  C7  UNL     1      -6.380  15.875  27.200  1.00  0.00     0.020 C
HETATM    4  C8  UNL     1      -7.134  17.095  27.682  1.00  0.00     0.042 C
HETATM    5  C9  UNL     1      -6.954  17.182  29.182  1.00  0.00     0.026 C
HETATM    6  C16 UNL     1      -8.552  16.930  27.254  1.00  0.00     0.021 C
HETATM    7  C17 UNL     1      -9.482  16.942  28.408  1.00  0.00     0.007 C
HETATM    8  C18 UNL     1     -10.853  16.443  28.119  1.00  0.00     0.006 C
HETATM    9  C19 UNL     1     -10.934  15.333  27.129  1.00  0.00    -0.001 C
HETATM   10  C20 UNL     1     -11.936  14.273  27.500  1.00  0.00    -0.004 C
HETATM   11  C21 UNL     1     -13.218  14.910  28.006  1.00  0.00     0.013 C
HETATM   12  C22 UNL     1     -13.431  14.457  29.411  1.00  0.00     0.023 C
HETATM   13  C23 UNL     1     -14.827  13.894  29.610  1.00  0.00     0.123 C
HETATM   14  C24 UNL     1     -14.650  12.554  30.251  1.00  0.00     0.033 C
HETATM   15  C25 UNL     1     -13.307  12.103  29.783  1.00  0.00     0.012 C
HETATM   16  C26 UNL     1     -12.456  13.366  29.687  1.00  0.00    -0.034 C
HETATM   17  C27 UNL     1     -11.798  13.548  31.034  1.00  0.00     0.016 C
HETATM   18  C28 UNL     1     -11.474  13.309  28.538  1.00  0.00    -0.001 C
HETATM   19  C29 UNL     1     -10.084  13.523  29.011  1.00  0.00     0.006 C
HETATM   20  C30 UNL     1      -9.073  13.891  27.986  1.00  0.00     0.011 C
HETATM   21  C31 UNL     1      -9.601  14.694  26.815  1.00  0.00    -0.023 C
HETATM   22  C32 UNL     1      -9.856  13.681  25.721  1.00  0.00     0.017 C
ENDROOT
BRANCH   4  23
HETATM   23  C10 UNL     1      -6.507  18.332  27.121  1.00  0.00     0.226 C
HETATM   24  O2  UNL     1      -7.196  19.378  27.044  1.00  0.00    -0.273 OA
HETATM   25  N2  UNL     1      -5.168  18.362  26.674  1.00  0.00    -0.360 N
ATOM     26  H2  UNL     1      -4.606  17.512  26.735  1.00  0.00     0.162 HD
BRANCH  25  27
HETATM   27  C11 UNL     1      -4.570  19.565  26.132  1.00  0.00     0.124 C
BRANCH  27  28
HETATM   28  C12 UNL     1      -4.588  19.569  24.626  1.00  0.00     0.050 C
BRANCH  28  29
HETATM   29  C13 UNL     1      -3.929  18.361  24.020  1.00  0.00     0.273 C
BRANCH  29  30
HETATM   30  N3  UNL     1      -4.749  17.986  22.865  1.00  0.00     0.080 N
HETATM   31  C14 UNL     1      -5.894  17.201  23.284  1.00  0.00     0.309 C
HETATM   32  C15 UNL     1      -3.953  17.309  21.861  1.00  0.00     0.309 C
ENDBRANCH  29  30
ENDBRANCH  28  29
ENDBRANCH  27  28
ENDBRANCH  25  27
ENDBRANCH   4  23
BRANCH   1  33
HETATM   33  C4  UNL     1      -9.109  16.242  24.988  1.00  0.00     0.231 C
HETATM   34  N1  UNL     1      -9.081  15.486  23.828  1.00  0.00    -0.339 N
ATOM     35  H1  UNL     1      -8.741  14.531  23.939  1.00  0.00     0.167 HD
HETATM   36  O1  UNL     1      -9.520  17.422  24.981  1.00  0.00    -0.272 OA
BRANCH  34  37
HETATM   37  C3  UNL     1      -9.453  15.839  22.522  1.00  0.00     0.077 C
BRANCH  37  38
HETATM   38  C2  UNL     1      -8.891  15.173  21.336  1.00  0.00     0.109 C
HETATM   39  C1  UNL     1      -8.074  13.943  21.496  1.00  0.00     0.025 C
BRANCH  38  40
HETATM   40  C33 UNL     1      -8.098  16.148  20.498  1.00  0.00     0.239 C
HETATM   41  N4  UNL     1      -6.810  15.758  20.024  1.00  0.00    -0.062 NA
HETATM   42  O4  UNL     1      -8.608  17.261  20.256  1.00  0.00    -0.276 OA
ENDBRANCH  38  40
ENDBRANCH  37  38
ENDBRANCH  34  37
ENDBRANCH   1  33
BRANCH  13  43
HETATM   43  O3  UNL     1     -15.606  14.695  30.440  1.00  0.00    -0.395 OA
ATOM     44  H3  UNL     1     -16.511  14.409  30.470  1.00  0.00     0.210 HD
ENDBRANCH  13  43
TORSDOF 10
ENDMDL