MODEL 1
REMARK VINA RESULT: -8.896656081      0.000      0.000
REMARK  11 active torsions:
REMARK  status: ('A' for Active; 'I' for Inactive)
REMARK    1  A    between atoms: C2_2  and  C3_3
REMARK    2  A    between atoms: C3_3  and  C4_4
REMARK    3  A    between atoms: C13_17  and  O1_18
REMARK    4  A    between atoms: C14_20  and  C15_21
REMARK    5  A    between atoms: C15_21  and  C16_22
REMARK    6  A    between atoms: C16_22  and  C17_23
REMARK    7  A    between atoms: C17_23  and  C18_24
REMARK    8  A    between atoms: C18_24  and  N3_25
REMARK       I    between atoms: N3_25  and  C19_27
REMARK       I    between atoms: C19_27  and  N4_29
REMARK    9  A    between atoms: C26_39  and  C27_40
REMARK   10  A    between atoms: C27_40  and  C28_41
REMARK   11  A    between atoms: C31_46  and  O4_47
ROOT
HETATM    1  C4  UNL     1     -13.733  12.744  30.561  1.00  0.00     0.155 C
HETATM    2  N1  UNL     1     -13.464  13.010  29.195  1.00  0.00    -0.390 N
ATOM      3  H1  UNL     1     -12.688  12.546  28.725  1.00  0.00     0.159 HD
HETATM    4  C5  UNL     1     -14.273  13.917  28.493  1.00  0.00     0.056 C
HETATM    5  C6  UNL     1     -13.498  14.943  27.692  1.00  0.00     0.044 C
HETATM    6  C7  UNL     1     -12.496  14.287  26.765  1.00  0.00     0.007 C
HETATM    7  C8  UNL     1     -11.164  14.060  27.461  1.00  0.00     0.031 C
HETATM    8  C9  UNL     1     -10.014  14.658  26.711  1.00  0.00     0.032 C
HETATM    9  C10 UNL     1      -8.837  13.756  26.431  1.00  0.00     0.031 C
HETATM   10  C11 UNL     1      -8.758  14.412  25.045  1.00  0.00     0.005 C
HETATM   11  C12 UNL     1     -10.251  14.630  25.179  1.00  0.00     0.031 C
HETATM   12  N2  UNL     1      -9.590  15.958  27.156  1.00  0.00    -0.363 N
ATOM     13  H2  UNL     1      -9.059  16.476  26.455  1.00  0.00     0.162 HD
HETATM   14  C13 UNL     1      -9.756  16.648  28.343  1.00  0.00     0.135 C
HETATM   15  C14 UNL     1      -9.199  16.434  29.695  1.00  0.00     0.159 C
HETATM   16  N5  UNL     1      -8.652  15.117  29.941  1.00  0.00    -0.349 N
ATOM     17  H5  UNL     1      -7.962  14.798  29.261  1.00  0.00     0.163 HD
HETATM   18  C24 UNL     1      -8.932  14.218  30.977  1.00  0.00     0.220 C
HETATM   19  O3  UNL     1      -7.939  13.929  31.749  1.00  0.00    -0.274 OA
HETATM   20  C25 UNL     1     -10.193  13.538  31.333  1.00  0.00     0.128 C
HETATM   21  C26 UNL     1     -10.992  14.256  32.356  1.00  0.00     0.092 C
HETATM   22  N6  UNL     1     -12.382  14.001  32.438  1.00  0.00    -0.368 N
ATOM     23  H6  UNL     1     -12.707  13.932  33.402  1.00  0.00     0.161 HD
HETATM   24  C31 UNL     1     -13.414  13.821  31.518  1.00  0.00     0.135 C
ENDROOT
BRANCH  15  25
HETATM   25  C15 UNL     1      -8.024  17.397  29.956  1.00  0.00     0.033 C
BRANCH  25  26
HETATM   26  C16 UNL     1      -6.687  16.803  29.790  1.00  0.00     0.004 C
BRANCH  26  27
HETATM   27  C17 UNL     1      -6.068  17.243  28.484  1.00  0.00     0.020 C
BRANCH  27  28
HETATM   28  C18 UNL     1      -6.033  16.130  27.503  1.00  0.00     0.124 C
BRANCH  28  29
HETATM   29  N3  UNL     1      -6.298  16.537  26.141  1.00  0.00    -0.343 N
HETATM   30  C19 UNL     1      -5.256  16.853  25.261  1.00  0.00     0.318 C
HETATM   31  O2  UNL     1      -4.069  16.805  25.602  1.00  0.00    -0.247 OA
HETATM   32  N4  UNL     1      -5.554  17.242  23.926  1.00  0.00    -0.334 N
HETATM   33  C20 UNL     1      -6.896  17.341  23.383  1.00  0.00     0.127 C
HETATM   34  C23 UNL     1      -4.585  17.595  22.920  1.00  0.00     0.127 C
HETATM   35  C21 UNL     1      -6.714  17.757  21.949  1.00  0.00     0.022 C
HETATM   36  C22 UNL     1      -5.291  17.337  21.621  1.00  0.00     0.022 C
ATOM     37  H3  UNL     1      -7.263  16.595  25.815  1.00  0.00     0.164 HD
ENDBRANCH  28  29
ENDBRANCH  27  28
ENDBRANCH  26  27
ENDBRANCH  25  26
ENDBRANCH  15  25
BRANCH  14  38
HETATM   38  O1  UNL     1     -10.545  17.685  28.299  1.00  0.00    -0.348 OA
ATOM     39  H1  UNL     1     -11.471  17.502  28.197  1.00  0.00     0.219 HD
ENDBRANCH  14  38
BRANCH  21  40
HETATM   40  C27 UNL     1     -10.295  14.097  33.681  1.00  0.00     0.029 C
BRANCH  40  41
HETATM   41  C28 UNL     1      -9.886  15.308  34.403  1.00  0.00    -0.021 C
HETATM   42  C29 UNL     1      -8.567  14.940  35.126  1.00  0.00     0.009 C
HETATM   43  C30 UNL     1      -9.498  16.497  33.546  1.00  0.00     0.009 C
ENDBRANCH  40  41
ENDBRANCH  21  40
BRANCH  24  44
HETATM   44  O4  UNL     1     -14.323  14.766  31.436  1.00  0.00    -0.348 OA
ATOM     45  H4  UNL     1     -15.161  14.429  31.731  1.00  0.00     0.219 HD
ENDBRANCH  24  44
BRANCH   1  46
HETATM   46  C3  UNL     1     -13.248  11.369  30.941  1.00  0.00     0.033 C
BRANCH  46  47
HETATM   47  C2  UNL     1     -12.536  10.688  29.775  1.00  0.00    -0.002 C
HETATM   48  C1  UNL     1     -12.231   9.254  30.145  1.00  0.00     0.005 C
ENDBRANCH  46  47
ENDBRANCH   1  46
TORSDOF 11
ENDMDL