MODEL 1
REMARK VINA RESULT: -8.912631424      0.000      0.000
REMARK  11 active torsions:
REMARK  status: ('A' for Active; 'I' for Inactive)
REMARK    1  A    between atoms: C2_2  and  N1_3
REMARK    2  A    between atoms: N1_3  and  C4_5
REMARK    3  A    between atoms: C8_9  and  O1_10
REMARK    4  A    between atoms: C18_21  and  C19_22
REMARK    5  A    between atoms: C23_28  and  N3_29
REMARK       I    between atoms: N3_29  and  C24_31
REMARK    6  A    between atoms: C24_31  and  C25_33
REMARK    7  A    between atoms: C25_33  and  C26_34
REMARK    8  A    between atoms: C26_34  and  C27_35
REMARK    9  A    between atoms: C27_35  and  C28_36
REMARK       I    between atoms: C28_36  and  N4_38
REMARK   10  A    between atoms: N4_38  and  N5_40
REMARK   11  A    between atoms: N5_40  and  C29_42
ROOT
HETATM    1  C4  UNL     1     -10.308  15.930  28.228  1.00  0.00     0.245 C
HETATM    2  C5  UNL     1     -10.296  15.369  29.568  1.00  0.00     0.043 C
HETATM    3  C6  UNL     1      -9.002  14.943  30.186  1.00  0.00    -0.002 C
HETATM    4  C7  UNL     1      -9.454  14.212  31.430  1.00  0.00     0.037 C
HETATM    5  C8  UNL     1      -8.409  13.873  32.409  1.00  0.00     0.118 C
HETATM    6  C9  UNL     1      -7.703  15.187  32.779  1.00  0.00     0.032 C
HETATM    7  C10 UNL     1      -7.043  15.608  31.473  1.00  0.00     0.012 C
HETATM    8  C11 UNL     1      -8.096  16.097  30.470  1.00  0.00    -0.036 C
HETATM    9  C12 UNL     1      -8.836  17.200  31.241  1.00  0.00     0.016 C
HETATM   10  C13 UNL     1      -7.375  16.717  29.372  1.00  0.00     0.001 C
HETATM   11  C14 UNL     1      -6.034  16.075  29.047  1.00  0.00     0.007 C
HETATM   12  C15 UNL     1      -5.157  17.060  28.245  1.00  0.00     0.011 C
HETATM   13  C16 UNL     1      -5.870  17.328  26.996  1.00  0.00    -0.028 C
HETATM   14  C17 UNL     1      -5.755  16.254  26.001  1.00  0.00     0.016 C
HETATM   15  C18 UNL     1      -5.707  18.690  26.338  1.00  0.00     0.084 C
HETATM   16  C20 UNL     1      -7.229  18.492  26.068  1.00  0.00     0.020 C
HETATM   17  C21 UNL     1      -7.207  17.912  27.376  1.00  0.00     0.002 C
HETATM   18  C22 UNL     1      -8.143  17.099  28.116  1.00  0.00     0.020 C
HETATM   19  C23 UNL     1      -8.934  16.024  27.524  1.00  0.00     0.122 C
ENDROOT
BRANCH  19  20
HETATM   20  N3  UNL     1      -9.256  16.082  26.150  1.00  0.00    -0.354 N
HETATM   21  C24 UNL     1      -8.988  15.146  25.127  1.00  0.00     0.217 C
HETATM   22  O3  UNL     1      -8.408  14.043  25.264  1.00  0.00    -0.274 OA
ATOM     23  H3  UNL     1      -9.754  16.921  25.853  1.00  0.00     0.162 HD
BRANCH  21  24
HETATM   24  C25 UNL     1      -9.423  15.460  23.710  1.00  0.00     0.103 C
BRANCH  24  25
HETATM   25  C26 UNL     1      -8.821  14.535  22.723  1.00  0.00     0.019 C
BRANCH  25  26
HETATM   26  C27 UNL     1      -8.901  15.080  21.329  1.00  0.00     0.105 C
BRANCH  26  27
HETATM   27  C28 UNL     1      -8.021  16.223  21.088  1.00  0.00     0.235 C
HETATM   28  O4  UNL     1      -8.409  17.201  20.407  1.00  0.00    -0.272 OA
HETATM   29  N4  UNL     1      -6.698  16.305  21.595  1.00  0.00    -0.269 N
ATOM     30  H4  UNL     1      -6.331  15.534  22.153  1.00  0.00     0.190 HD
BRANCH  29  31
HETATM   31  N5  UNL     1      -5.891  17.410  21.350  1.00  0.00    -0.292 N
ATOM     32  H5  UNL     1      -6.201  18.349  21.601  1.00  0.00     0.187 HD
BRANCH  31  33
HETATM   33  C29 UNL     1      -4.627  17.201  20.743  1.00  0.00     0.088 C
HETATM   34  C30 UNL     1      -4.492  16.978  19.279  1.00  0.00     0.083 C
HETATM   35  S1  UNL     1      -3.237  17.200  21.638  1.00  0.00    -0.064 SA
ENDBRANCH  31  33
ENDBRANCH  29  31
ENDBRANCH  26  27
ENDBRANCH  25  26
ENDBRANCH  24  25
ENDBRANCH  21  24
ENDBRANCH  19  20
BRANCH   1  36
HETATM   36  N1  UNL     1     -11.228  15.157  27.421  1.00  0.00     0.090 N
HETATM   37  C3  UNL     1     -12.558  15.700  27.534  1.00  0.00     0.310 C
BRANCH  36  38
HETATM   38  C2  UNL     1     -11.169  13.747  27.613  1.00  0.00     0.268 C
HETATM   39  C1  UNL     1     -11.714  12.995  26.409  1.00  0.00     0.037 C
ENDBRANCH  36  38
ENDBRANCH   1  36
BRANCH  15  40
HETATM   40  C19 UNL     1      -4.879  18.749  25.139  1.00  0.00     0.236 C
HETATM   41  N2  UNL     1      -3.476  18.706  25.235  1.00  0.00    -0.062 NA
HETATM   42  O2  UNL     1      -5.413  18.842  24.007  1.00  0.00    -0.276 OA
ENDBRANCH  15  40
BRANCH   5  43
HETATM   43  O1  UNL     1      -8.998  13.348  33.538  1.00  0.00    -0.396 OA
ATOM     44  H1  UNL     1      -9.501  14.027  33.973  1.00  0.00     0.210 HD
ENDBRANCH   5  43
TORSDOF 11
ENDMDL