MODEL 1
REMARK VINA RESULT: -10.277026098      0.000      0.000
REMARK  12 active torsions:
REMARK  status: ('A' for Active; 'I' for Inactive)
REMARK       I    between atoms: N2_4  and  C3_6
REMARK    1  A    between atoms: N4_8  and  C4_10
REMARK    2  A    between atoms: C4_10  and  C5_11
REMARK    3  A    between atoms: C5_11  and  C6_12
REMARK    4  A    between atoms: C6_12  and  O1_13
REMARK    5  A    between atoms: O1_13  and  C7_14
REMARK    6  A    between atoms: C11_18  and  N5_19
REMARK    7  A    between atoms: N5_19  and  C12_20
REMARK    8  A    between atoms: C12_20  and  C13_21
REMARK    9  A    between atoms: C13_21  and  N6_22
REMARK   10  A    between atoms: N6_22  and  C14_23
REMARK   11  A    between atoms: C20_31  and  O2_32
REMARK   12  A    between atoms: C27_40  and  C28_41
ROOT
HETATM    1  C7  UNL     1      -9.513  15.530  24.530  1.00  0.00     0.070 A
HETATM    2  C8  UNL     1      -9.952  15.247  25.855  1.00  0.00     0.038 A
HETATM    3  C9  UNL     1      -9.140  15.435  26.921  1.00  0.00     0.020 A
HETATM    4  C10 UNL     1      -7.836  15.913  26.799  1.00  0.00     0.032 A
HETATM    5  C11 UNL     1      -7.039  16.087  27.942  1.00  0.00     0.125 A
HETATM    6  C23 UNL     1      -5.740  16.567  27.741  1.00  0.00     0.032 A
HETATM    7  C24 UNL     1      -4.877  16.781  28.798  1.00  0.00     0.017 A
HETATM    8  C25 UNL     1      -3.602  17.262  28.580  1.00  0.00     0.002 A
HETATM    9  C26 UNL     1      -3.215  17.522  27.279  1.00  0.00     0.010 A
HETATM   10  C27 UNL     1      -4.034  17.325  26.211  1.00  0.00    -0.026 A
HETATM   11  C31 UNL     1      -5.328  16.835  26.453  1.00  0.00     0.053 A
HETATM   12  N8  UNL     1      -6.146  16.645  25.410  1.00  0.00    -0.354 N
ATOM     13  H8  UNL     1      -5.798  16.858  24.475  1.00  0.00     0.166 HD
HETATM   14  C32 UNL     1      -7.422  16.181  25.537  1.00  0.00     0.049 A
HETATM   15  C33 UNL     1      -8.224  16.001  24.424  1.00  0.00     0.067 A
ENDROOT
BRANCH   5  16
HETATM   16  N5  UNL     1      -7.480  15.827  29.036  1.00  0.00    -0.440 NA
BRANCH  16  17
HETATM   17  C12 UNL     1      -7.965  15.894  30.279  1.00  0.00     0.277 C
BRANCH  17  18
HETATM   18  C13 UNL     1      -8.523  14.551  30.783  1.00  0.00     0.188 C
BRANCH  18  19
HETATM   19  N6  UNL     1      -9.844  14.463  30.905  1.00  0.00    -0.418 NA
BRANCH  19  20
HETATM   20  C14 UNL     1     -11.023  14.382  31.013  1.00  0.00     0.120 A
HETATM   21  C15 UNL     1     -11.679  14.874  32.136  1.00  0.00     0.062 A
HETATM   22  C16 UNL     1     -13.022  14.777  32.254  1.00  0.00     0.091 A
HETATM   23  N7  UNL     1     -13.758  14.212  31.311  1.00  0.00    -0.365 N
HETATM   24  C17 UNL     1     -13.183  13.710  30.186  1.00  0.00     0.045 A
ATOM     25  H7  UNL     1     -14.769  14.152  31.429  1.00  0.00     0.165 HD
HETATM   26  C18 UNL     1     -13.955  13.121  29.208  1.00  0.00     0.033 A
HETATM   27  C22 UNL     1     -11.814  13.793  30.034  1.00  0.00     0.034 A
HETATM   28  C19 UNL     1     -13.396  12.608  28.070  1.00  0.00     0.039 A
HETATM   29  C20 UNL     1     -12.034  12.684  27.906  1.00  0.00     0.066 A
HETATM   30  C21 UNL     1     -11.232  13.273  28.878  1.00  0.00     0.053 A
BRANCH  29  31
HETATM   31  O2  UNL     1     -11.434  12.180  26.777  1.00  0.00    -0.361 OA
ATOM     32  H2  UNL     1     -11.308  12.726  26.010  1.00  0.00     0.217 HD
ENDBRANCH  29  31
ENDBRANCH  19  20
ENDBRANCH  18  19
ENDBRANCH  17  18
ENDBRANCH  16  17
ENDBRANCH   5  16
BRANCH  10  33
HETATM   33  C28 UNL     1      -3.651  17.558  24.805  1.00  0.00     0.021 A
HETATM   34  C29 UNL     1      -2.363  18.268  24.545  1.00  0.00     0.010 A
HETATM   35  C30 UNL     1      -3.653  19.000  24.313  1.00  0.00     0.010 A
ENDBRANCH  10  33
BRANCH   1  36
HETATM   36  O1  UNL     1     -10.358  15.328  23.518  1.00  0.00    -0.351 OA
BRANCH  36  37
HETATM   37  C6  UNL     1     -10.484  14.947  22.282  1.00  0.00     0.177 C
BRANCH  37  38
HETATM   38  C5  UNL     1      -9.418  14.338  21.450  1.00  0.00     0.046 C
BRANCH  38  39
HETATM   39  C4  UNL     1      -8.768  15.112  20.387  1.00  0.00     0.124 C
BRANCH  39  40
HETATM   40  N4  UNL     1      -7.359  15.291  20.782  1.00  0.00    -0.364 N
HETATM   41  C3  UNL     1      -6.811  16.456  20.766  1.00  0.00     0.189 C
HETATM   42  N2  UNL     1      -5.462  16.692  21.134  1.00  0.00    -0.323 N
HETATM   43  N3  UNL     1      -7.606  17.560  20.358  1.00  0.00    -0.064 NA
HETATM   44  C2  UNL     1      -4.433  16.193  20.565  1.00  0.00     0.091 C
ATOM     45  H2  UNL     1      -5.299  17.318  21.923  1.00  0.00     0.169 HD
HETATM   46  C1  UNL     1      -3.095  16.586  21.128  1.00  0.00     0.085 C
HETATM   47  N1  UNL     1      -4.428  15.316  19.470  1.00  0.00    -0.088 NA
ATOM     48  H4  UNL     1      -6.811  14.481  21.071  1.00  0.00     0.162 HD
ENDBRANCH  39  40
ENDBRANCH  38  39
ENDBRANCH  37  38
ENDBRANCH  36  37
ENDBRANCH   1  36
TORSDOF 12
ENDMDL