MODEL 1
REMARK VINA RESULT: -5.607509647      0.000      0.000
REMARK  9 active torsions:
REMARK  status: ('A' for Active; 'I' for Inactive)
REMARK    1  A    between atoms: C2_2  and  C3_3
REMARK    2  A    between atoms: C3_3  and  C5_5
REMARK    3  A    between atoms: C8_11  and  C9_12
REMARK    4  A    between atoms: C14_20  and  C15_21
REMARK    5  A    between atoms: C15_21  and  C16_22
REMARK    6  A    between atoms: C20_29  and  C21_30
REMARK    7  A    between atoms: C21_30  and  C23_32
REMARK    8  A    between atoms: C26_38  and  C27_39
REMARK    9  A    between atoms: C27_39  and  C28_40
ROOT
HETATM    1  C5  UNL     1      -2.766  15.661  18.545  1.00  0.00     0.280 C
HETATM    2  N1  UNL     1      -4.038  15.030  18.845  1.00  0.00    -0.062 N
ATOM      3  H11 UNL     1      -3.905  14.244  19.482  1.00  0.00     0.278 HD
ATOM      4  H12 UNL     1      -4.390  14.533  18.027  1.00  0.00     0.278 HD
HETATM    5  C6  UNL     1      -5.034  15.922  19.354  1.00  0.00     0.235 C
HETATM    6  C7  UNL     1      -4.887  15.944  20.886  1.00  0.00     0.053 C
HETATM    7  C8  UNL     1      -5.730  16.965  21.540  1.00  0.00     0.093 C
HETATM    8  N2  UNL     1      -5.164  17.761  22.568  1.00  0.00    -0.351 N
ATOM      9  H2  UNL     1      -5.809  18.455  22.944  1.00  0.00     0.163 HD
HETATM   10  C13 UNL     1      -3.887  17.793  23.181  1.00  0.00     0.264 C
HETATM   11  O1  UNL     1      -3.326  18.947  22.980  1.00  0.00    -0.266 OA
HETATM   12  C14 UNL     1      -3.213  16.751  23.942  1.00  0.00     0.080 C
HETATM   13  N3  UNL     1      -1.791  16.878  24.148  1.00  0.00    -0.324 N
ATOM     14  H3  UNL     1      -1.416  16.107  24.700  1.00  0.00     0.169 HD
HETATM   15  C19 UNL     1      -0.803  17.785  23.784  1.00  0.00     0.245 C
HETATM   16  O2  UNL     1      -0.305  18.515  24.727  1.00  0.00    -0.271 OA
HETATM   17  C20 UNL     1      -0.180  18.092  22.482  1.00  0.00     0.180 C
HETATM   18  N4  UNL     1       0.813  17.048  22.136  1.00  0.00    -0.346 N
ATOM     19  H4  UNL     1       1.658  17.010  22.705  1.00  0.00     0.163 HD
HETATM   20  C25 UNL     1       0.703  16.103  21.102  1.00  0.00     0.241 C
HETATM   21  O3  UNL     1       1.686  15.947  20.295  1.00  0.00    -0.271 OA
HETATM   22  C26 UNL     1      -0.466  15.252  20.844  1.00  0.00     0.177 C
HETATM   23  N5  UNL     1      -0.492  14.841  19.425  1.00  0.00    -0.346 N
ATOM     24  H5  UNL     1       0.393  14.674  18.946  1.00  0.00     0.163 HD
HETATM   25  C31 UNL     1      -1.708  14.669  18.700  1.00  0.00     0.249 C
HETATM   26  O4  UNL     1      -1.847  13.520  18.146  1.00  0.00    -0.271 OA
ENDROOT
BRANCH   1  27
HETATM   27  C3  UNL     1      -2.760  16.501  17.329  1.00  0.00     0.021 C
HETATM   28  C4  UNL     1      -3.744  15.958  16.325  1.00  0.00     0.012 C
BRANCH  27  29
HETATM   29  C2  UNL     1      -2.810  17.972  17.482  1.00  0.00     0.002 C
HETATM   30  C1  UNL     1      -2.017  18.579  18.580  1.00  0.00     0.005 C
ENDBRANCH  27  29
ENDBRANCH   1  27
BRANCH  22  31
HETATM   31  C27 UNL     1      -0.522  14.073  21.741  1.00  0.00     0.038 C
BRANCH  31  32
HETATM   32  C28 UNL     1      -0.017  14.149  23.117  1.00  0.00    -0.020 C
HETATM   33  C29 UNL     1      -0.751  13.428  24.201  1.00  0.00     0.009 C
HETATM   34  C30 UNL     1       1.413  13.555  23.095  1.00  0.00     0.009 C
ENDBRANCH  31  32
ENDBRANCH  22  31
BRANCH   7  35
HETATM   35  C9  UNL     1      -7.108  16.507  21.963  1.00  0.00    -0.031 C
HETATM   36  C10 UNL     1      -7.248  15.038  22.158  1.00  0.00     0.016 C
HETATM   37  C11 UNL     1      -7.467  17.188  23.295  1.00  0.00     0.016 C
HETATM   38  C12 UNL     1      -8.202  16.946  21.011  1.00  0.00     0.016 C
ENDBRANCH   7  35
BRANCH  17  39
HETATM   39  C21 UNL     1       0.553  19.394  22.505  1.00  0.00     0.013 C
HETATM   40  C22 UNL     1       1.978  19.392  22.897  1.00  0.00     0.012 C
BRANCH  39  41
HETATM   41  C23 UNL     1       0.349  20.309  21.351  1.00  0.00     0.002 C
HETATM   42  C24 UNL     1       1.530  20.062  20.394  1.00  0.00     0.005 C
ENDBRANCH  39  41
ENDBRANCH  17  39
BRANCH  12  43
HETATM   43  C15 UNL     1      -3.915  16.292  25.194  1.00  0.00     0.067 C
BRANCH  43  44
HETATM   44  C16 UNL     1      -3.832  17.045  26.439  1.00  0.00    -0.017 C
HETATM   45  C17 UNL     1      -3.687  16.266  27.722  1.00  0.00     0.010 C
HETATM   46  C18 UNL     1      -4.799  18.199  26.587  1.00  0.00     0.010 C
ENDBRANCH  43  44
ENDBRANCH  12  43
TORSDOF 9
ENDMDL