MODEL 3
REMARK VINA RESULT: -7.966210788      1.055      1.189
REMARK  3 active torsions:
REMARK  status: ('A' for Active; 'I' for Inactive)
REMARK    1  A    between atoms: C5_5  and  C6_6
REMARK    2  A    between atoms: N1_9  and  C9_11
REMARK    3  A    between atoms: C9_11  and  C10_12
ROOT
HETATM    1  C6  UNL     1      20.281 -10.222  -3.262  1.00  0.00     0.078 A
HETATM    2  C7  UNL     1      18.976  -9.883  -3.578  1.00  0.00     0.082 A
HETATM    3  C8  UNL     1      18.276  -9.651  -2.415  1.00  0.00     0.118 A
HETATM    4  N1  UNL     1      17.059  -9.320  -2.334  1.00  0.00    -0.370 N
ATOM      5  H1  UNL     1      16.553  -9.216  -3.213  1.00  0.00     0.161 HD
HETATM    6  N3  UNL     1      19.147  -9.846  -1.414  1.00  0.00    -0.285 N
ATOM      7  H3  UNL     1      18.935  -9.751  -0.420  1.00  0.00     0.188 HD
HETATM    8  N4  UNL     1      20.340 -10.187  -1.924  1.00  0.00    -0.297 N
ATOM      9  H4  UNL     1      21.173 -10.390  -1.372  1.00  0.00     0.187 HD
ENDROOT
BRANCH   4  10
HETATM   10  C9  UNL     1      16.321  -9.076  -1.137  1.00  0.00     0.178 C
BRANCH  10  11
HETATM   11  C10 UNL     1      14.850  -9.105  -1.366  1.00  0.00     0.026 A
HETATM   12  C11 UNL     1      13.956  -8.695  -0.396  1.00  0.00     0.027 A
HETATM   13  C12 UNL     1      12.590  -8.722  -0.611  1.00  0.00     0.003 A
HETATM   14  C13 UNL     1      12.131  -9.173  -1.829  1.00  0.00     0.017 A
HETATM   15  C14 UNL     1      13.027  -9.583  -2.801  1.00  0.00     0.088 A
HETATM   16  N2  UNL     1      14.342  -9.534  -2.536  1.00  0.00    -0.368 N
ATOM     17  H2  UNL     1      14.992  -9.838  -3.261  1.00  0.00     0.165 HD
ENDBRANCH  10  11
ENDBRANCH   4  10
BRANCH   1  18
HETATM   18  C5  UNL     1      21.352 -10.545  -4.191  1.00  0.00     0.060 A
HETATM   19  C4  UNL     1      21.312 -10.169  -5.520  1.00  0.00     0.032 A
HETATM   20  C3  UNL     1      22.320 -10.470  -6.405  1.00  0.00     0.010 A
HETATM   21  C2  UNL     1      23.418 -11.173  -5.958  1.00  0.00    -0.047 A
HETATM   22  C1  UNL     1      24.513 -11.506  -6.888  1.00  0.00     0.049 C
HETATM   23  C15 UNL     1      23.456 -11.547  -4.626  1.00  0.00     0.095 A
HETATM   24  N5  UNL     1      22.434 -11.228  -3.782  1.00  0.00    -0.364 N
ATOM     25  H5  UNL     1      22.492 -11.519  -2.806  1.00  0.00     0.165 HD
ENDBRANCH   1  18
TORSDOF 3
ENDMDL