MODEL 3
REMARK VINA RESULT: -8.247036118      1.176      5.925
REMARK  4 active torsions:
REMARK  status: ('A' for Active; 'I' for Inactive)
REMARK    1  A    between atoms: C7_7  and  C8_8
REMARK    2  A    between atoms: C9_11  and  C10_12
REMARK    3  A    between atoms: C10_12  and  N2_13
REMARK    4  A    between atoms: N2_13  and  C11_15
ROOT
HETATM    1  C8  UNL     1      22.821  -8.073  -8.087  1.00  0.00     0.132 A
HETATM    2  N1  UNL     1      23.161  -9.303  -7.590  1.00  0.00    -0.328 N
ATOM      3  H1  UNL     1      22.527  -9.944  -7.111  1.00  0.00     0.169 HD
HETATM    4  C9  UNL     1      24.451  -9.529  -7.833  1.00  0.00     0.115 A
HETATM    5  N4  UNL     1      24.896  -8.449  -8.470  1.00  0.00    -0.286 N
ATOM      6  H4  UNL     1      25.854  -8.319  -8.793  1.00  0.00     0.188 HD
HETATM    7  N5  UNL     1      23.902  -7.553  -8.628  1.00  0.00    -0.283 N
ATOM      8  H5  UNL     1      23.975  -6.642  -9.083  1.00  0.00     0.188 HD
ENDROOT
BRANCH   4   9
HETATM    9  C10 UNL     1      25.227 -10.766  -7.451  1.00  0.00     0.199 C
BRANCH   9  10
HETATM   10  N2  UNL     1      24.397 -11.536  -6.572  1.00  0.00    -0.369 N
ATOM     11  H2  UNL     1      23.829 -12.274  -6.989  1.00  0.00     0.161 HD
BRANCH  10  12
HETATM   12  C11 UNL     1      24.312 -11.369  -5.302  1.00  0.00     0.101 A
HETATM   13  C12 UNL     1      23.095 -11.512  -4.675  1.00  0.00     0.048 A
HETATM   14  C13 UNL     1      22.944 -11.344  -3.306  1.00  0.00     0.005 A
HETATM   15  C14 UNL     1      24.059 -11.025  -2.573  1.00  0.00     0.017 A
HETATM   16  C15 UNL     1      25.272 -10.884  -3.206  1.00  0.00     0.089 A
HETATM   17  N3  UNL     1      25.381 -11.058  -4.556  1.00  0.00    -0.353 N
ATOM     18  H3  UNL     1      26.291 -10.949  -5.003  1.00  0.00     0.166 HD
ENDBRANCH  10  12
ENDBRANCH   9  10
ENDBRANCH   4   9
BRANCH   1  19
HETATM   19  C7  UNL     1      21.467  -7.588  -7.997  1.00  0.00     0.015 A
HETATM   20  C2  UNL     1      20.482  -7.959  -8.864  1.00  0.00    -0.048 A
HETATM   21  C1  UNL     1      20.646  -8.988  -9.921  1.00  0.00     0.049 C
HETATM   22  C3  UNL     1      19.190  -7.399  -8.770  1.00  0.00     0.007 A
HETATM   23  C4  UNL     1      18.911  -6.469  -7.798  1.00  0.00     0.001 A
HETATM   24  C5  UNL     1      19.897  -6.085  -6.913  1.00  0.00     0.001 A
HETATM   25  C6  UNL     1      21.146  -6.630  -7.007  1.00  0.00     0.016 A
ENDBRANCH   1  19
TORSDOF 4
ENDMDL