MODEL 2
REMARK VINA RESULT: -8.322139388      0.015      1.072
REMARK  4 active torsions:
REMARK  status: ('A' for Active; 'I' for Inactive)
REMARK    1  A    between atoms: C3_5  and  C4_6
REMARK    2  A    between atoms: C8_10  and  N2_11
REMARK    3  A    between atoms: N2_11  and  C9_13
REMARK    4  A    between atoms: C9_13  and  C10_14
ROOT
HETATM    1  C4  UNL     1      22.152 -10.838  -3.295  1.00  0.00     0.079 A
HETATM    2  C5  UNL     1      22.758 -11.581  -2.316  1.00  0.00     0.033 A
HETATM    3  C6  UNL     1      24.076 -11.948  -2.490  1.00  0.00     0.006 A
HETATM    4  C7  UNL     1      24.783 -11.583  -3.621  1.00  0.00     0.048 A
HETATM    5  C8  UNL     1      24.115 -10.831  -4.576  1.00  0.00     0.101 A
HETATM    6  N3  UNL     1      22.831 -10.488  -4.377  1.00  0.00    -0.340 N
ATOM      7  H3  UNL     1      22.359  -9.935  -5.092  1.00  0.00     0.167 HD
ENDROOT
BRANCH   1   8
HETATM    8  C3  UNL     1      20.740 -10.453  -3.092  1.00  0.00     0.148 A
HETATM    9  N1  UNL     1      20.114 -10.290  -1.910  1.00  0.00    -0.328 N
HETATM   10  C2  UNL     1      18.841  -9.940  -2.133  1.00  0.00     0.093 A
ATOM     11  H1  UNL     1      20.541 -10.413  -0.991  1.00  0.00     0.169 HD
HETATM   12  C1  UNL     1      17.786  -9.658  -1.110  1.00  0.00     0.090 C
HETATM   13  N5  UNL     1      18.668  -9.884  -3.465  1.00  0.00    -0.288 N
HETATM   14  N4  UNL     1      19.824 -10.197  -4.024  1.00  0.00    -0.282 N
ATOM     15  H5  UNL     1      17.806  -9.645  -3.954  1.00  0.00     0.188 HD
ATOM     16  H4  UNL     1      19.992 -10.236  -5.029  1.00  0.00     0.188 HD
ENDBRANCH   1   8
BRANCH   5  17
HETATM   17  N2  UNL     1      24.748 -10.478  -5.636  1.00  0.00    -0.372 N
ATOM     18  H2  UNL     1      25.556  -9.865  -5.532  1.00  0.00     0.161 HD
BRANCH  17  19
HETATM   19  C9  UNL     1      24.382 -10.899  -6.961  1.00  0.00     0.159 C
BRANCH  19  20
HETATM   20  C10 UNL     1      23.530  -9.864  -7.585  1.00  0.00    -0.041 A
HETATM   21  C11 UNL     1      24.110  -8.778  -8.211  1.00  0.00     0.009 A
HETATM   22  C12 UNL     1      23.366  -7.784  -8.809  1.00  0.00     0.001 A
HETATM   23  C13 UNL     1      21.986  -7.916  -8.757  1.00  0.00     0.000 A
HETATM   24  C14 UNL     1      21.377  -8.988  -8.138  1.00  0.00     0.001 A
HETATM   25  C15 UNL     1      22.161  -9.963  -7.552  1.00  0.00     0.009 A
ENDBRANCH  19  20
ENDBRANCH  17  19
ENDBRANCH   5  17
TORSDOF 4
ENDMDL