MODEL 1
REMARK VINA RESULT: -7.812825279      0.000      0.000
REMARK  5 active torsions:
REMARK  status: ('A' for Active; 'I' for Inactive)
REMARK    1  A    between atoms: C2_2  and  C5_5
REMARK    2  A    between atoms: N1_10  and  C10_12
REMARK    3  A    between atoms: C10_12  and  O1_13
REMARK    4  A    between atoms: C10_12  and  C11_15
REMARK    5  A    between atoms: C11_15  and  C12_16
ROOT
HETATM    1  C5  UNL     1      18.521  -8.719  -2.290  1.00  0.00     0.018 A
HETATM    2  C6  UNL     1      18.507  -8.010  -3.490  1.00  0.00     0.026 A
HETATM    3  C7  UNL     1      19.560  -8.088  -4.363  1.00  0.00     0.006 A
HETATM    4  C8  UNL     1      20.631  -8.877  -4.037  1.00  0.00     0.048 A
HETATM    5  C9  UNL     1      20.644  -9.568  -2.866  1.00  0.00     0.103 A
HETATM    6  N1  UNL     1      21.616 -10.279  -2.526  1.00  0.00    -0.350 N
ATOM      7  H1  UNL     1      21.462 -10.729  -1.624  1.00  0.00     0.163 HD
HETATM    8  N3  UNL     1      19.594  -9.470  -2.035  1.00  0.00    -0.345 N
ATOM      9  H3  UNL     1      19.617  -9.999  -1.162  1.00  0.00     0.167 HD
ENDROOT
BRANCH   6  10
HETATM   10  C10 UNL     1      22.854 -10.612  -3.066  1.00  0.00     0.223 C
BRANCH  10  11
HETATM   11  O1  UNL     1      23.701 -11.064  -2.019  1.00  0.00    -0.377 OA
ATOM     12  H1  UNL     1      23.563 -11.996  -1.898  1.00  0.00     0.212 HD
ENDBRANCH  10  11
BRANCH  10  13
HETATM   13  C11 UNL     1      22.970 -11.574  -4.178  1.00  0.00     0.093 C
BRANCH  13  14
HETATM   14  C12 UNL     1      23.427 -11.031  -5.474  1.00  0.00    -0.039 A
HETATM   15  C13 UNL     1      22.507 -10.589  -6.433  1.00  0.00     0.010 A
HETATM   16  C14 UNL     1      22.937 -10.099  -7.665  1.00  0.00     0.018 A
HETATM   17  C15 UNL     1      24.283 -10.058  -7.908  1.00  0.00     0.087 A
HETATM   18  N2  UNL     1      25.191 -10.474  -7.006  1.00  0.00    -0.375 N
HETATM   19  C16 UNL     1      24.758 -10.949  -5.815  1.00  0.00     0.094 A
ATOM     20  H2  UNL     1      26.188 -10.431  -7.216  1.00  0.00     0.164 HD
ENDBRANCH  13  14
ENDBRANCH  10  13
ENDBRANCH   6  10
BRANCH   1  21
HETATM   21  C2  UNL     1      17.347  -8.524  -1.414  1.00  0.00    -0.009 C
HETATM   22  C1  UNL     1      17.760  -8.653   0.066  1.00  0.00     0.021 C
HETATM   23  C3  UNL     1      16.230  -9.484  -1.632  1.00  0.00     0.021 C
HETATM   24  C4  UNL     1      16.791  -7.120  -1.532  1.00  0.00     0.021 C
ENDBRANCH   1  21
TORSDOF 5
ENDMDL