MODEL 4
REMARK VINA RESULT: -6.782864712      2.040      3.391
REMARK  6 active torsions:
REMARK  status: ('A' for Active; 'I' for Inactive)
REMARK    1  A    between atoms: C2_2  and  C3_3
REMARK    2  A    between atoms: C2_2  and  C4_6
REMARK    3  A    between atoms: C3_3  and  O1_4
REMARK    4  A    between atoms: C4_6  and  N1_7
REMARK    5  A    between atoms: N1_7  and  C5_9
REMARK    6  A    between atoms: N3_18  and  C12_19
ROOT
HETATM    1  C5  UNL     1      19.844  -7.740  -4.736  1.00  0.00     0.113 A
HETATM    2  N2  UNL     1      19.420  -6.613  -5.341  1.00  0.00    -0.352 N
ATOM      3  H2  UNL     1      18.789  -6.006  -4.818  1.00  0.00     0.166 HD
HETATM    4  C6  UNL     1      19.764  -6.233  -6.564  1.00  0.00     0.092 A
HETATM    5  C7  UNL     1      20.622  -7.054  -7.279  1.00  0.00     0.048 A
HETATM    6  C8  UNL     1      21.095  -8.227  -6.717  1.00  0.00     0.050 A
HETATM    7  C9  UNL     1      20.699  -8.564  -5.440  1.00  0.00     0.036 A
HETATM    8  C10 UNL     1      21.331  -9.766  -5.171  1.00  0.00     0.035 A
HETATM    9  C11 UNL     1      22.080 -10.124  -6.271  1.00  0.00     0.093 A
HETATM   10  N3  UNL     1      21.933  -9.186  -7.205  1.00  0.00    -0.347 N
ENDROOT
BRANCH   1  11
HETATM   11  N1  UNL     1      19.487  -8.070  -3.549  1.00  0.00    -0.375 N
ATOM     12  H1  UNL     1      20.067  -7.826  -2.746  1.00  0.00     0.161 HD
BRANCH  11  13
HETATM   13  C4  UNL     1      18.252  -8.789  -3.369  1.00  0.00     0.127 C
BRANCH  13  14
HETATM   14  C2  UNL     1      18.128  -9.433  -2.030  1.00  0.00     0.023 C
HETATM   15  C1  UNL     1      19.387 -10.285  -1.827  1.00  0.00     0.014 C
BRANCH  14  16
HETATM   16  C3  UNL     1      18.119  -8.429  -0.898  1.00  0.00     0.170 C
BRANCH  16  17
HETATM   17  O1  UNL     1      19.408  -7.972  -0.629  1.00  0.00    -0.400 OA
ATOM     18  H1  UNL     1      19.392  -7.069  -0.332  1.00  0.00     0.209 HD
ENDBRANCH  16  17
ENDBRANCH  14  16
ENDBRANCH  13  14
ENDBRANCH  11  13
ENDBRANCH   1  11
BRANCH  10  19
HETATM   19  C12 UNL     1      22.518  -9.108  -8.536  1.00  0.00     0.026 C
HETATM   20  C13 UNL     1      23.221  -7.778  -8.732  1.00  0.00     0.038 C
HETATM   21  C14 UNL     1      21.448  -9.285  -9.605  1.00  0.00     0.038 C
HETATM   22  C15 UNL     1      23.511 -10.236  -8.715  1.00  0.00     0.038 C
ENDBRANCH  10  19
TORSDOF 6
ENDMDL