MODEL 2
REMARK VINA RESULT: -8.108257618      1.159      1.611
REMARK  4 active torsions:
REMARK  status: ('A' for Active; 'I' for Inactive)
REMARK    1  A    between atoms: C10_16  and  N4_17
REMARK    2  A    between atoms: N4_17  and  C11_18
REMARK    3  A    between atoms: C11_18  and  C12_19
REMARK    4  A    between atoms: C12_19  and  N5_20
ROOT
HETATM    1  C1  UNL     1      22.056 -11.610  -1.918  1.00  0.00     0.071 C
HETATM    2  C2  UNL     1      23.265 -11.585  -2.754  1.00  0.00     0.039 A
HETATM    3  N1  UNL     1      24.511 -11.998  -2.371  1.00  0.00    -0.303 N
ATOM      4  H1  UNL     1      24.757 -12.380  -1.458  1.00  0.00     0.186 HD
HETATM    5  N2  UNL     1      25.338 -11.822  -3.376  1.00  0.00    -0.284 N
ATOM      6  H2  UNL     1      26.332 -12.048  -3.359  1.00  0.00     0.188 HD
HETATM    7  C3  UNL     1      24.678 -11.290  -4.448  1.00  0.00     0.136 A
HETATM    8  N3  UNL     1      25.108 -10.943  -5.672  1.00  0.00    -0.340 N
ATOM      9  H3  UNL     1      26.087 -11.068  -5.929  1.00  0.00     0.167 HD
HETATM   10  C4  UNL     1      24.233 -10.430  -6.555  1.00  0.00     0.047 A
HETATM   11  C5  UNL     1      24.668 -10.061  -7.831  1.00  0.00     0.030 A
HETATM   12  C6  UNL     1      23.786  -9.534  -8.740  1.00  0.00     0.002 A
HETATM   13  C7  UNL     1      22.483  -9.373  -8.382  1.00  0.00     0.001 A
HETATM   14  C8  UNL     1      22.034  -9.731  -7.125  1.00  0.00     0.017 A
HETATM   15  C9  UNL     1      22.929 -10.269  -6.197  1.00  0.00     0.032 A
HETATM   16  C10 UNL     1      22.432 -10.619  -4.925  1.00  0.00     0.134 A
HETATM   17  C15 UNL     1      23.395 -11.155  -4.033  1.00  0.00     0.074 A
ENDROOT
BRANCH  16  18
HETATM   18  N4  UNL     1      21.294 -10.469  -4.662  1.00  0.00    -0.418 NA
BRANCH  18  19
HETATM   19  C11 UNL     1      20.031 -10.262  -4.354  1.00  0.00     0.185 C
BRANCH  19  20
HETATM   20  C12 UNL     1      19.648  -8.823  -3.940  1.00  0.00     0.330 C
BRANCH  20  21
HETATM   21  N5  UNL     1      19.477  -7.952  -5.054  1.00  0.00     0.085 N
HETATM   22  C13 UNL     1      18.172  -7.297  -4.877  1.00  0.00     0.309 C
HETATM   23  C14 UNL     1      20.428  -6.896  -5.191  1.00  0.00     0.309 C
ENDBRANCH  20  21
ENDBRANCH  19  20
ENDBRANCH  18  19
ENDBRANCH  16  18
TORSDOF 4
ENDMDL