MODEL 3
REMARK VINA RESULT: -7.173035203      2.842      5.951
REMARK  4 active torsions:
REMARK  status: ('A' for Active; 'I' for Inactive)
REMARK    1  A    between atoms: O1_2  and  C2_3
REMARK    2  A    between atoms: C7_8  and  C8_9
REMARK    3  A    between atoms: C8_9  and  N1_10
REMARK    4  A    between atoms: N1_10  and  C9_12
ROOT
HETATM    1  C9  UNL     1      22.197 -10.287  -3.654  1.00  0.00     0.131 A
HETATM    2  N2  UNL     1      22.609 -10.831  -2.496  1.00  0.00    -0.337 N
ATOM      3  H2  UNL     1      22.099 -10.634  -1.635  1.00  0.00     0.168 HD
HETATM    4  C10 UNL     1      23.702 -11.643  -2.461  1.00  0.00     0.182 A
HETATM    5  N3  UNL     1      24.370 -11.898  -3.598  1.00  0.00    -0.350 N
ATOM      6  H3  UNL     1      25.187 -12.506  -3.565  1.00  0.00     0.166 HD
HETATM    7  C11 UNL     1      23.988 -11.370  -4.788  1.00  0.00     0.065 A
HETATM    8  C12 UNL     1      24.471 -11.458  -6.078  1.00  0.00     0.056 A
HETATM    9  C13 UNL     1      23.675 -10.699  -6.910  1.00  0.00     0.008 A
HETATM   10  C14 UNL     1      23.830 -10.505  -8.394  1.00  0.00     0.068 C
HETATM   11  N4  UNL     1      22.724 -10.163  -6.121  1.00  0.00    -0.355 N
ATOM     12  H4  UNL     1      21.979  -9.548  -6.447  1.00  0.00     0.166 HD
HETATM   13  C15 UNL     1      22.892 -10.551  -4.845  1.00  0.00     0.103 A
ENDROOT
BRANCH   1  14
HETATM   14  N1  UNL     1      21.188  -9.511  -3.791  1.00  0.00    -0.370 N
ATOM     15  H1  UNL     1      21.337  -8.505  -3.865  1.00  0.00     0.161 HD
BRANCH  14  16
HETATM   16  C8  UNL     1      19.853 -10.033  -3.840  1.00  0.00     0.162 C
BRANCH  16  17
HETATM   17  C7  UNL     1      19.067  -9.480  -2.729  1.00  0.00    -0.007 A
HETATM   18  C2  UNL     1      18.546  -8.194  -2.867  1.00  0.00     0.076 A
HETATM   19  C3  UNL     1      17.804  -7.655  -1.848  1.00  0.00     0.037 A
HETATM   20  C4  UNL     1      17.577  -8.382  -0.694  1.00  0.00     0.003 A
HETATM   21  C5  UNL     1      18.088  -9.652  -0.550  1.00  0.00     0.001 A
HETATM   22  C6  UNL     1      18.847 -10.213  -1.583  1.00  0.00     0.011 A
BRANCH  18  23
HETATM   23  O1  UNL     1      18.802  -7.509  -4.039  1.00  0.00    -0.355 OA
HETATM   24  C1  UNL     1      19.118  -6.144  -4.089  1.00  0.00     0.210 C
ENDBRANCH  18  23
ENDBRANCH  16  17
ENDBRANCH  14  16
ENDBRANCH   1  14
TORSDOF 4
ENDMDL