MODEL 4
REMARK VINA RESULT: -7.465967789      1.208      2.713
REMARK  4 active torsions:
REMARK  status: ('A' for Active; 'I' for Inactive)
REMARK    1  A    between atoms: O1_2  and  C2_3
REMARK    2  A    between atoms: C5_6  and  C6_7
REMARK    3  A    between atoms: C6_7  and  N1_8
REMARK    4  A    between atoms: N1_8  and  C7_10
ROOT
HETATM    1  C7  UNL     1      22.245 -10.595  -4.748  1.00  0.00     0.116 A
HETATM    2  N2  UNL     1      23.289 -10.900  -3.960  1.00  0.00    -0.332 N
ATOM      3  H2  UNL     1      23.109 -11.151  -2.987  1.00  0.00     0.168 HD
HETATM    4  C8  UNL     1      24.567 -10.890  -4.396  1.00  0.00     0.080 A
HETATM    5  C9  UNL     1      25.619 -11.257  -3.389  1.00  0.00     0.089 C
HETATM    6  N3  UNL     1      24.858 -10.568  -5.657  1.00  0.00    -0.332 N
ATOM      7  H3  UNL     1      25.828 -10.564  -5.974  1.00  0.00     0.168 HD
HETATM    8  C10 UNL     1      23.855 -10.245  -6.519  1.00  0.00     0.120 A
HETATM    9  N4  UNL     1      23.847  -9.885  -7.827  1.00  0.00    -0.351 N
ATOM     10  H4  UNL     1      24.672  -9.792  -8.420  1.00  0.00     0.166 HD
HETATM   11  C11 UNL     1      22.578  -9.669  -8.216  1.00  0.00     0.091 A
HETATM   12  C12 UNL     1      21.745  -9.899  -7.121  1.00  0.00     0.036 A
HETATM   13  C13 UNL     1      22.551 -10.259  -6.063  1.00  0.00     0.053 A
ENDROOT
BRANCH   1  14
HETATM   14  N1  UNL     1      21.024 -10.601  -4.344  1.00  0.00    -0.371 N
ATOM     15  H1  UNL     1      20.253 -10.761  -4.992  1.00  0.00     0.161 HD
BRANCH  14  16
HETATM   16  C6  UNL     1      20.783 -10.372  -2.931  1.00  0.00     0.160 C
BRANCH  16  17
HETATM   17  C5  UNL     1      19.444  -9.833  -2.665  1.00  0.00    -0.040 A
HETATM   18  C4  UNL     1      18.912  -8.938  -3.569  1.00  0.00     0.011 A
HETATM   19  C3  UNL     1      17.651  -8.449  -3.290  1.00  0.00     0.037 A
HETATM   20  C2  UNL     1      16.923  -8.801  -2.189  1.00  0.00     0.068 A
HETATM   21  C15 UNL     1      17.494  -9.699  -1.311  1.00  0.00     0.037 A
HETATM   22  C14 UNL     1      18.756 -10.221  -1.543  1.00  0.00     0.011 A
BRANCH  20  23
HETATM   23  O1  UNL     1      15.657  -8.281  -1.953  1.00  0.00    -0.356 OA
HETATM   24  C1  UNL     1      14.798  -8.816  -0.973  1.00  0.00     0.210 C
ENDBRANCH  20  23
ENDBRANCH  16  17
ENDBRANCH  14  16
ENDBRANCH   1  14
TORSDOF 4
ENDMDL