MODEL 2
REMARK VINA RESULT: -7.960229285      2.053      4.947
REMARK  3 active torsions:
REMARK  status: ('A' for Active; 'I' for Inactive)
REMARK    1  A    between atoms: N3_10  and  C7_12
REMARK    2  A    between atoms: C7_12  and  C8_13
REMARK    3  A    between atoms: C10_19  and  C11_20
ROOT
HETATM    1  N1  UNL     1      16.484  -7.041  -4.990  1.00  0.00    -0.191 NA
HETATM    2  C1  UNL     1      17.410  -7.616  -4.592  1.00  0.00     0.103 C
HETATM    3  C2  UNL     1      18.578  -8.313  -4.099  1.00  0.00     0.088 A
HETATM    4  C3  UNL     1      18.457  -9.126  -2.987  1.00  0.00     0.028 A
HETATM    5  C4  UNL     1      19.575  -9.776  -2.537  1.00  0.00     0.019 A
HETATM    6  C5  UNL     1      20.751  -9.597  -3.198  1.00  0.00     0.090 A
HETATM    7  N2  UNL     1      20.839  -8.799  -4.279  1.00  0.00    -0.351 N
ATOM      8  H2  UNL     1      21.739  -8.690  -4.746  1.00  0.00     0.166 HD
HETATM    9  C6  UNL     1      19.776  -8.145  -4.753  1.00  0.00     0.122 A
HETATM   10  N3  UNL     1      19.810  -7.372  -5.782  1.00  0.00    -0.369 N
ATOM     11  H3  UNL     1      18.950  -6.911  -6.078  1.00  0.00     0.161 HD
ENDROOT
BRANCH  10  12
HETATM   12  C7  UNL     1      21.030  -7.133  -6.538  1.00  0.00     0.180 C
BRANCH  12  13
HETATM   13  C8  UNL     1      20.981  -7.838  -7.855  1.00  0.00     0.056 A
HETATM   14  N4  UNL     1      20.179  -7.485  -8.879  1.00  0.00    -0.303 N
HETATM   15  N5  UNL     1      20.341  -8.273  -9.923  1.00  0.00    -0.311 N
ATOM     16  H4  UNL     1      19.526  -6.703  -8.849  1.00  0.00     0.186 HD
HETATM   17  C9  UNL     1      21.277  -9.166  -9.568  1.00  0.00     0.121 A
ATOM     18  H5  UNL     1      19.855  -8.216 -10.818  1.00  0.00     0.186 HD
HETATM   19  C10 UNL     1      21.707  -8.925  -8.266  1.00  0.00     0.018 A
BRANCH  19  20
HETATM   20  C11 UNL     1      22.704  -9.670  -7.512  1.00  0.00    -0.007 A
HETATM   21  C12 UNL     1      22.421 -10.597  -6.539  1.00  0.00     0.015 A
HETATM   22  C13 UNL     1      23.446 -11.260  -5.860  1.00  0.00     0.018 A
HETATM   23  C14 UNL     1      24.773 -11.010  -6.138  1.00  0.00     0.087 A
HETATM   24  N6  UNL     1      25.031 -10.099  -7.094  1.00  0.00    -0.374 N
HETATM   25  C15 UNL     1      24.063  -9.446  -7.763  1.00  0.00     0.100 A
ATOM     26  H6  UNL     1      26.003  -9.893  -7.322  1.00  0.00     0.164 HD
ENDBRANCH  19  20
ENDBRANCH  12  13
ENDBRANCH  10  12
TORSDOF 3
ENDMDL