MODEL 2
REMARK VINA RESULT: -6.773989035      1.010      1.021
REMARK  3 active torsions:
REMARK  status: ('A' for Active; 'I' for Inactive)
REMARK    1  A    between atoms: C2_2  and  N1_3
REMARK    2  A    between atoms: C6_10  and  C7_11
REMARK       I    between atoms: C7_11  and  N3_13
REMARK    3  A    between atoms: N3_13  and  C8_15
ROOT
HETATM    1  C7  UNL     1      -3.171   3.370  13.841  1.00  0.00     0.253 C
HETATM    2  O2  UNL     1      -2.864   3.643  15.019  1.00  0.00    -0.270 OA
HETATM    3  N3  UNL     1      -2.283   3.613  12.779  1.00  0.00    -0.304 N
ATOM      4  H3  UNL     1      -2.093   2.862  12.115  1.00  0.00     0.171 HD
ENDROOT
BRANCH   1   5
HETATM    5  C6  UNL     1      -4.483   2.785  13.546  1.00  0.00     0.243 C
HETATM    6  N1  UNL     1      -4.385   1.353  13.527  1.00  0.00    -0.314 N
HETATM    7  C3  UNL     1      -4.781   0.894  14.802  1.00  0.00     0.326 C
HETATM    8  O1  UNL     1      -4.658  -0.264  15.294  1.00  0.00    -0.247 OA
HETATM    9  N2  UNL     1      -5.385   1.965  15.535  1.00  0.00    -0.296 N
HETATM   10  C4  UNL     1      -5.920   1.881  16.893  1.00  0.00     0.162 C
HETATM   11  C5  UNL     1      -5.367   3.109  14.712  1.00  0.00     0.115 C
HETATM   12  S1  UNL     1      -6.133   4.527  14.930  1.00  0.00    -0.062 SA
BRANCH   6  13
HETATM   13  C2  UNL     1      -3.968   0.520  12.437  1.00  0.00     0.124 C
HETATM   14  C1  UNL     1      -4.733   0.780  11.161  1.00  0.00     0.026 C
ENDBRANCH   6  13
ENDBRANCH   1   5
BRANCH   3  15
HETATM   15  C8  UNL     1      -1.689   4.767  12.609  1.00  0.00     0.167 A
HETATM   16  N4  UNL     1      -0.400   5.056  12.424  1.00  0.00    -0.279 N
HETATM   17  N5  UNL     1      -0.059   6.267  12.280  1.00  0.00    -0.296 N
ATOM     18  H4  UNL     1       0.299   4.315  12.398  1.00  0.00     0.189 HD
HETATM   19  C9  UNL     1      -0.964   7.232  12.314  1.00  0.00     0.066 A
ATOM     20  H5  UNL     1       0.923   6.502  12.137  1.00  0.00     0.187 HD
HETATM   21  C10 UNL     1      -0.779   8.717  12.168  1.00  0.00     0.078 C
HETATM   22  S2  UNL     1      -2.404   6.319  12.571  1.00  0.00    -0.038 SA
ENDBRANCH   3  15
TORSDOF 3
ENDMDL