MODEL 1
REMARK VINA RESULT: -5.922739127      0.000      0.000
REMARK  4 active torsions:
REMARK  status: ('A' for Active; 'I' for Inactive)
REMARK    1  A    between atoms: N1_2  and  C3_4
REMARK    2  A    between atoms: C3_4  and  C4_5
REMARK    3  A    between atoms: C4_5  and  O1_6
REMARK       I    between atoms: N2_8  and  C5_10
REMARK    4  A    between atoms: C5_10  and  C6_12
ROOT
HETATM    1  C3  UNL     1      -3.783   6.199  13.256  1.00  0.00     0.105 C
HETATM    2  N2  UNL     1      -4.078   5.755  14.420  1.00  0.00    -0.315 N
ATOM      3  H2  UNL     1      -3.572   6.078  15.244  1.00  0.00     0.170 HD
HETATM    4  C5  UNL     1      -5.127   4.805  14.537  1.00  0.00     0.228 C
HETATM    5  O2  UNL     1      -6.119   4.935  13.777  1.00  0.00    -0.273 OA
ENDROOT
BRANCH   4   6
HETATM    6  C6  UNL     1      -5.101   3.694  15.495  1.00  0.00     0.100 C
HETATM    7  C7  UNL     1      -6.456   3.027  15.636  1.00  0.00     0.038 C
HETATM    8  C8  UNL     1      -6.272   2.041  16.771  1.00  0.00     0.032 C
HETATM    9  C9  UNL     1      -6.147   2.696  18.105  1.00  0.00     0.029 C
HETATM   10  C10 UNL     1      -7.333   0.990  16.808  1.00  0.00     0.029 C
HETATM   11  S1  UNL     1      -4.719   1.289  16.253  1.00  0.00     0.032 S
HETATM   12  O3  UNL     1      -5.076  -0.061  15.343  1.00  0.00    -0.256 OA
HETATM   13  C11 UNL     1      -4.149   2.595  15.150  1.00  0.00     0.043 C
HETATM   14  C12 UNL     1      -2.717   2.978  15.475  1.00  0.00     0.030 C
HETATM   15  C13 UNL     1      -4.190   2.156  13.724  1.00  0.00     0.030 C
ENDBRANCH   4   6
BRANCH   1  16
HETATM   16  N1  UNL     1      -4.409   5.826  12.056  1.00  0.00    -0.378 N
HETATM   17  C1  UNL     1      -5.425   6.695  11.498  1.00  0.00     0.150 C
HETATM   18  C2  UNL     1      -4.099   4.597  11.330  1.00  0.00     0.150 C
ENDBRANCH   1  16
BRANCH   1  19
HETATM   19  C4  UNL     1      -2.676   7.200  13.159  1.00  0.00     0.240 C
BRANCH  19  20
HETATM   20  O1  UNL     1      -2.299   7.538  14.457  1.00  0.00    -0.393 OA
ATOM     21  H1  UNL     1      -1.633   8.212  14.397  1.00  0.00     0.209 HD
ENDBRANCH  19  20
ENDBRANCH   1  19
TORSDOF 4
ENDMDL