MODEL 4
REMARK VINA RESULT: -6.194644539      2.179      3.126
REMARK  3 active torsions:
REMARK  status: ('A' for Active; 'I' for Inactive)
REMARK       I    between atoms: C2_2  and  N1_4
REMARK    1  A    between atoms: N1_4  and  C4_6
REMARK    2  A    between atoms: C7_9  and  N2_10
REMARK    3  A    between atoms: C14_22  and  O2_24
ROOT
HETATM    1  C4  UNL     1      -4.077   6.128  11.982  1.00  0.00     0.146 C
HETATM    2  C5  UNL     1      -4.767   5.956  13.256  1.00  0.00     0.001 C
HETATM    3  C6  UNL     1      -5.049   4.885  13.954  1.00  0.00     0.027 C
HETATM    4  C7  UNL     1      -4.712   3.483  13.603  1.00  0.00     0.330 C
HETATM    5  N4  UNL     1      -3.312   3.485  13.261  1.00  0.00    -0.038 N
ATOM      6  H41 UNL     1      -2.879   2.603  13.535  1.00  0.00     0.281 HD
ATOM      7  H42 UNL     1      -2.800   4.128  13.866  1.00  0.00     0.281 HD
HETATM    8  C11 UNL     1      -3.035   3.766  11.898  1.00  0.00     0.153 C
HETATM    9  C12 UNL     1      -1.505   3.579  11.775  1.00  0.00     0.049 C
HETATM   10  C13 UNL     1      -3.542   2.508  11.149  1.00  0.00     0.049 C
HETATM   11  C14 UNL     1      -3.532   4.982  11.280  1.00  0.00     0.110 C
HETATM   12  C15 UNL     1      -2.410   5.507  10.355  1.00  0.00     0.051 C
ENDROOT
BRANCH   4  13
HETATM   13  N2  UNL     1      -4.859   2.663  14.791  1.00  0.00    -0.269 N
HETATM   14  C8  UNL     1      -5.972   2.684  15.678  1.00  0.00     0.114 A
HETATM   15  C9  UNL     1      -5.747   1.807  16.635  1.00  0.00     0.037 A
HETATM   16  C10 UNL     1      -4.455   1.204  16.356  1.00  0.00     0.108 A
HETATM   17  N3  UNL     1      -3.948   1.713  15.278  1.00  0.00    -0.308 N
ATOM     18  H3  UNL     1      -3.051   1.468  14.860  1.00  0.00     0.186 HD
ENDBRANCH   4  13
BRANCH   1  19
HETATM   19  N1  UNL     1      -3.166   7.246  12.188  1.00  0.00    -0.346 N
HETATM   20  C2  UNL     1      -3.281   8.487  11.476  1.00  0.00     0.216 C
HETATM   21  C1  UNL     1      -2.372   9.610  11.690  1.00  0.00     0.117 C
HETATM   22  O1  UNL     1      -4.240   8.551  10.633  1.00  0.00    -0.274 OA
HETATM   23  C3  UNL     1      -2.078   7.183  13.145  1.00  0.00     0.153 C
ENDBRANCH   1  19
BRANCH  11  24
HETATM   24  O2  UNL     1      -4.500   4.583  10.299  1.00  0.00    -0.385 OA
ATOM     25  H2  UNL     1      -4.116   3.874   9.796  1.00  0.00     0.210 HD
ENDBRANCH  11  24
TORSDOF 3
ENDMDL