MODEL 2
REMARK VINA RESULT: -6.986300435      2.194      6.080
REMARK  2 active torsions:
REMARK  status: ('A' for Active; 'I' for Inactive)
REMARK    1  A    between atoms: C2_2  and  N1_3
REMARK       I    between atoms: N1_3  and  C3_5
REMARK    2  A    between atoms: C3_5  and  C4_7
ROOT
HETATM    1  C4  UNL     1      -4.911   3.425  13.610  1.00  0.00     0.144 C
HETATM    2  C5  UNL     1      -4.285   2.174  13.098  1.00  0.00     0.234 C
HETATM    3  C6  UNL     1      -4.962   1.496  11.952  1.00  0.00     0.044 C
HETATM    4  N2  UNL     1      -3.083   2.889  12.835  1.00  0.00     0.101 N
HETATM    5  C7  UNL     1      -2.765   3.252  11.511  1.00  0.00     0.294 C
HETATM    6  C8  UNL     1      -1.761   4.372  11.540  1.00  0.00     0.145 C
HETATM    7  C9  UNL     1      -1.426   4.686  10.134  1.00  0.00     0.067 C
HETATM    8  N3  UNL     1      -1.165   4.952   9.033  1.00  0.00    -0.197 NA
HETATM    9  C10 UNL     1      -2.231   5.557  12.297  1.00  0.00     0.089 A
HETATM   10  C11 UNL     1      -1.181   6.590  12.485  1.00  0.00     0.072 C
HETATM   11  N4  UNL     1      -0.357   7.387  12.629  1.00  0.00    -0.196 NA
HETATM   12  C12 UNL     1      -3.198   5.300  13.386  1.00  0.00     0.063 A
HETATM   13  C13 UNL     1      -3.464   3.897  13.738  1.00  0.00     0.245 C
HETATM   14  C14 UNL     1      -3.574   6.000  12.204  1.00  0.00     0.057 A
HETATM   15  C15 UNL     1      -4.160   7.268  11.957  1.00  0.00     0.099 A
HETATM   16  C16 UNL     1      -4.603   5.938  11.286  1.00  0.00     0.139 A
HETATM   17  O2  UNL     1      -5.480   5.652  10.454  1.00  0.00    -0.297 OA
ENDROOT
BRANCH   1  18
HETATM   18  C3  UNL     1      -5.595   3.212  14.911  1.00  0.00     0.226 C
HETATM   19  N1  UNL     1      -5.324   2.076  15.729  1.00  0.00    -0.361 N
ATOM     20  H1  UNL     1      -4.647   1.368  15.446  1.00  0.00     0.162 HD
HETATM   21  O1  UNL     1      -6.433   4.074  15.278  1.00  0.00    -0.273 OA
BRANCH  19  22
HETATM   22  C2  UNL     1      -6.047   1.967  16.979  1.00  0.00     0.118 C
HETATM   23  C1  UNL     1      -7.275   1.124  16.867  1.00  0.00     0.026 C
ENDBRANCH  19  22
ENDBRANCH   1  18
TORSDOF 2
ENDMDL