MODEL 3
REMARK VINA RESULT: -7.505641070      2.418      3.943
REMARK  4 active torsions:
REMARK  status: ('A' for Active; 'I' for Inactive)
REMARK    1  A    between atoms: O1_3  and  C3_4
REMARK    2  A    between atoms: C3_4  and  C4_5
REMARK    3  A    between atoms: C3_4  and  C6_8
REMARK       I    between atoms: C6_8  and  N1_10
REMARK    4  A    between atoms: N1_10  and  C7_12
ROOT
HETATM    1  C1  UNL     1      -4.839   1.701  14.914  1.00  0.00     0.044 C
HETATM    2  C2  UNL     1      -4.074   1.979  14.022  1.00  0.00     0.044 C
HETATM    3  O1  UNL     1      -3.215   2.282  13.022  1.00  0.00    -0.281 OA
ENDROOT
BRANCH   3   4
HETATM    4  C3  UNL     1      -3.499   2.153  11.648  1.00  0.00     0.300 C
BRANCH   4   5
HETATM    5  C4  UNL     1      -4.641   1.284  11.402  1.00  0.00     0.162 C
HETATM    6  C5  UNL     1      -4.468  -0.184  11.357  1.00  0.00     0.094 C
HETATM    7  O2  UNL     1      -5.742   1.750  11.233  1.00  0.00    -0.295 OA
ENDBRANCH   4   5
BRANCH   4   8
HETATM    8  C6  UNL     1      -3.613   3.527  11.067  1.00  0.00     0.260 C
HETATM    9  O3  UNL     1      -2.894   3.706  10.012  1.00  0.00    -0.270 OA
HETATM   10  N1  UNL     1      -4.403   4.521  11.589  1.00  0.00    -0.319 N
ATOM     11  H1  UNL     1      -5.323   4.162  11.844  1.00  0.00     0.169 HD
BRANCH  10  12
HETATM   12  C7  UNL     1      -4.314   5.721  11.836  1.00  0.00     0.110 C
HETATM   13  C8  UNL     1      -3.664   6.168  12.956  1.00  0.00    -0.024 C
HETATM   14  C9  UNL     1      -3.924   5.508  14.224  1.00  0.00     0.051 C
HETATM   15  C10 UNL     1      -2.778   7.238  13.007  1.00  0.00    -0.052 C
HETATM   16  C11 UNL     1      -1.829   7.212  14.119  1.00  0.00     0.049 C
HETATM   17  C12 UNL     1      -2.698   8.328  12.128  1.00  0.00     0.032 C
HETATM   18  C13 UNL     1      -3.517   8.619  11.034  1.00  0.00     0.009 C
HETATM   19  C14 UNL     1      -3.159   9.862  10.307  1.00  0.00     0.068 C
HETATM   20  N2  UNL     1      -4.561   7.888  10.603  1.00  0.00    -0.326 N
HETATM   21  C15 UNL     1      -4.892   6.616  10.877  1.00  0.00     0.273 C
ATOM     22  H2  UNL     1      -5.197   8.374   9.971  1.00  0.00     0.169 HD
HETATM   23  O4  UNL     1      -5.830   6.125  10.221  1.00  0.00    -0.266 OA
ENDBRANCH  10  12
ENDBRANCH   4   8
ENDBRANCH   3   4
TORSDOF 4
ENDMDL