MODEL 5
REMARK VINA RESULT: -6.293408070      2.242      2.466
REMARK  2 active torsions:
REMARK  status: ('A' for Active; 'I' for Inactive)
REMARK    1  A    between atoms: N1_5  and  N2_7
REMARK       I    between atoms: N2_7  and  C5_9
REMARK    2  A    between atoms: C5_9  and  C6_11
REMARK       I    between atoms: N3_18  and  C12_19
ROOT
HETATM    1  C1  UNL     1      -4.053   6.047   7.115  1.00  0.00     0.019 C
HETATM    2  C2  UNL     1      -3.118   5.469   7.615  1.00  0.00    -0.063 C
HETATM    3  C3  UNL     1      -1.992   4.802   8.206  1.00  0.00     0.074 C
HETATM    4  C4  UNL     1      -0.734   4.638   7.405  1.00  0.00     0.080 C
HETATM    5  N1  UNL     1      -2.017   4.336   9.406  1.00  0.00    -0.294 N
ATOM      6  H1  UNL     1      -1.205   3.866   9.806  1.00  0.00     0.187 HD
ENDROOT
BRANCH   5   7
HETATM    7  N2  UNL     1      -3.202   4.494  10.149  1.00  0.00    -0.268 N
HETATM    8  C5  UNL     1      -3.201   4.592  11.559  1.00  0.00     0.261 C
HETATM    9  O1  UNL     1      -2.092   4.532  12.148  1.00  0.00    -0.269 OA
ATOM     10  H2  UNL     1      -4.092   4.541   9.653  1.00  0.00     0.190 HD
BRANCH   8  11
HETATM   11  C6  UNL     1      -4.508   4.758  12.253  1.00  0.00     0.206 C
HETATM   12  C7  UNL     1      -4.541   6.165  12.752  1.00  0.00     0.112 C
HETATM   13  S1  UNL     1      -4.085   5.888  14.512  1.00  0.00    -0.140 SA
HETATM   14  C8  UNL     1      -4.684   4.165  14.553  1.00  0.00     0.166 C
HETATM   15  C9  UNL     1      -3.489   3.313  15.005  1.00  0.00     0.064 C
HETATM   16  N4  UNL     1      -4.810   3.812  13.194  1.00  0.00    -0.294 N
HETATM   17  C10 UNL     1      -3.669   2.082  14.132  1.00  0.00     0.110 C
HETATM   18  C11 UNL     1      -4.472   1.077  14.961  1.00  0.00     0.034 C
HETATM   19  N3  UNL     1      -4.457   2.516  13.001  1.00  0.00    -0.257 N
HETATM   20  C12 UNL     1      -4.778   1.689  11.907  1.00  0.00     0.234 C
HETATM   21  C13 UNL     1      -4.329   0.261  11.805  1.00  0.00     0.119 C
HETATM   22  O2  UNL     1      -5.471   2.106  10.933  1.00  0.00    -0.272 OA
ENDBRANCH   8  11
ENDBRANCH   5   7
TORSDOF 2
ENDMDL