MODEL 2
REMARK VINA RESULT: -6.420546793      1.594      3.245
REMARK  7 active torsions:
REMARK  status: ('A' for Active; 'I' for Inactive)
REMARK    1  A    between atoms: O1_2  and  C2_3
REMARK    2  A    between atoms: N1_6  and  O2_7
REMARK    3  A    between atoms: C6_10  and  C7_11
REMARK    4  A    between atoms: C8_12  and  C9_13
REMARK    5  A    between atoms: C10_14  and  C11_15
REMARK    6  A    between atoms: C11_15  and  O3_16
REMARK    7  A    between atoms: N2_21  and  O4_22
ROOT
HETATM    1  C2  UNL     1      -2.747   5.423  11.499  1.00  0.00     0.101 A
HETATM    2  C3  UNL     1      -2.699   6.532  12.305  1.00  0.00     0.059 A
HETATM    3  C4  UNL     1      -3.393   6.509  13.495  1.00  0.00     0.126 A
HETATM    4  N1  UNL     1      -4.102   5.426  13.856  1.00  0.00    -0.232 N
HETATM    5  C5  UNL     1      -4.167   4.329  13.090  1.00  0.00     0.112 A
HETATM    6  C6  UNL     1      -4.892   3.214  13.454  1.00  0.00     0.051 A
HETATM    7  C12 UNL     1      -4.926   2.095  12.613  1.00  0.00     0.050 A
HETATM    8  C13 UNL     1      -4.237   2.107  11.425  1.00  0.00     0.038 A
HETATM    9  C14 UNL     1      -4.260   0.920  10.509  1.00  0.00     0.071 C
HETATM   10  N2  UNL     1      -3.549   3.217  11.120  1.00  0.00    -0.224 N
HETATM   11  C15 UNL     1      -3.473   4.317  11.871  1.00  0.00     0.126 A
ENDROOT
BRANCH   6  12
HETATM   12  C7  UNL     1      -5.627   3.178  14.703  1.00  0.00    -0.060 C
HETATM   13  C8  UNL     1      -6.252   3.109  15.759  1.00  0.00    -0.073 C
BRANCH  13  14
HETATM   14  C9  UNL     1      -6.974   3.006  16.989  1.00  0.00     0.063 C
HETATM   15  C10 UNL     1      -6.722   2.065  17.876  1.00  0.00     0.008 C
BRANCH  15  16
HETATM   16  C11 UNL     1      -5.663   1.055  17.630  1.00  0.00     0.192 C
BRANCH  16  17
HETATM   17  O3  UNL     1      -6.211  -0.164  17.198  1.00  0.00    -0.397 OA
ATOM     18  H3  UNL     1      -5.963  -0.878  17.774  1.00  0.00     0.209 HD
ENDBRANCH  16  17
ENDBRANCH  15  16
ENDBRANCH  13  14
ENDBRANCH   6  12
BRANCH   4  19
HETATM   19  O2  UNL     1      -4.749   5.491  15.034  1.00  0.00    -0.283 OA
ATOM     20  H2  UNL     1      -5.546   4.980  15.113  1.00  0.00     0.245 HD
ENDBRANCH   4  19
BRANCH   1  21
HETATM   21  O1  UNL     1      -2.078   5.357  10.282  1.00  0.00    -0.353 OA
HETATM   22  C1  UNL     1      -1.101   6.262   9.862  1.00  0.00     0.210 C
ENDBRANCH   1  21
BRANCH  10  23
HETATM   23  O4  UNL     1      -2.863   3.222   9.931  1.00  0.00    -0.282 OA
ATOM     24  H4  UNL     1      -3.361   3.040   9.143  1.00  0.00     0.245 HD
ENDBRANCH  10  23
TORSDOF 7
ENDMDL