MODEL 2
REMARK VINA RESULT: -6.214958406      1.863      5.018
REMARK  2 active torsions:
REMARK  status: ('A' for Active; 'I' for Inactive)
REMARK    1  A    between atoms: S1_2  and  C2_3
REMARK    2  A    between atoms: C8_14  and  C9_15
ROOT
HETATM    1  C2  UNL     1      -4.249   2.898  14.291  1.00  0.00     0.160 C
HETATM    2  C3  UNL     1      -3.466   2.621  15.538  1.00  0.00     0.077 C
HETATM    3  N1  UNL     1      -4.449   1.743  13.449  1.00  0.00    -0.319 N
HETATM    4  C4  UNL     1      -4.315   0.325  13.720  1.00  0.00     0.156 C
HETATM    5  C5  UNL     1      -4.838   2.304  12.182  1.00  0.00     0.254 C
HETATM    6  O1  UNL     1      -5.551   1.792  11.284  1.00  0.00    -0.270 OA
HETATM    7  C6  UNL     1      -4.232   3.652  12.106  1.00  0.00     0.274 C
HETATM    8  C7  UNL     1      -3.265   3.712  10.977  1.00  0.00     0.250 C
HETATM    9  O2  UNL     1      -3.634   3.319   9.844  1.00  0.00    -0.271 OA
HETATM   10  N2  UNL     1      -1.964   4.213  11.236  1.00  0.00    -0.345 N
ATOM     11  H2  UNL     1      -1.162   3.893  10.694  1.00  0.00     0.163 HD
HETATM   12  C8  UNL     1      -1.806   5.187  12.289  1.00  0.00     0.180 C
HETATM   13  C12 UNL     1      -2.397   4.639  13.517  1.00  0.00     0.246 C
HETATM   14  O3  UNL     1      -1.969   4.879  14.669  1.00  0.00    -0.271 OA
HETATM   15  N3  UNL     1      -3.522   3.783  13.389  1.00  0.00    -0.292 N
ENDROOT
BRANCH   1  16
HETATM   16  S1  UNL     1      -5.865   3.592  14.724  1.00  0.00    -0.120 SA
HETATM   17  C1  UNL     1      -6.563   2.762  16.182  1.00  0.00     0.094 C
ENDBRANCH   1  16
BRANCH  12  18
HETATM   18  C9  UNL     1      -0.375   5.621  12.459  1.00  0.00     0.009 C
HETATM   19  C10 UNL     1      -0.343   7.134  12.446  1.00  0.00     0.012 C
HETATM   20  C11 UNL     1       0.564   5.109  11.426  1.00  0.00     0.012 C
ENDBRANCH  12  18
TORSDOF 2
ENDMDL