MODEL 5
REMARK VINA RESULT: -6.723124425      3.302      6.626
REMARK  3 active torsions:
REMARK  status: ('A' for Active; 'I' for Inactive)
REMARK    1  A    between atoms: C3_3  and  C4_4
REMARK       I    between atoms: C4_4  and  N1_6
REMARK    2  A    between atoms: N1_6  and  N2_7
REMARK    3  A    between atoms: C5_9  and  C6_10
ROOT
HETATM    1  C1  UNL     1       4.168   6.688  13.206  1.00  0.00     0.112 C
HETATM    2  C2  UNL     1       3.382   5.808  12.347  1.00  0.00    -0.100 C
HETATM    3  C3  UNL     1       2.731   5.069  11.660  1.00  0.00     0.011 C
ENDROOT
BRANCH   3   4
HETATM    4  C4  UNL     1       1.937   4.135  10.829  1.00  0.00     0.390 C
HETATM    5  O1  UNL     1       2.455   3.802   9.738  1.00  0.00    -0.239 OA
HETATM    6  N1  UNL     1       0.723   3.725  11.326  1.00  0.00    -0.273 NA
BRANCH   6   7
HETATM    7  N2  UNL     1      -0.423   3.338  11.797  1.00  0.00    -0.240 N
HETATM    8  C5  UNL     1      -1.640   3.813  11.492  1.00  0.00     0.151 C
ATOM      9  H2  UNL     1      -0.396   2.582  12.481  1.00  0.00     0.201 HD
BRANCH   8  10
HETATM   10  C6  UNL     1      -2.690   3.157  12.196  1.00  0.00     0.066 A
HETATM   11  N3  UNL     1      -2.906   1.820  11.908  1.00  0.00    -0.344 N
HETATM   12  C7  UNL     1      -3.913   1.112  12.404  1.00  0.00     0.079 A
ATOM     13  H3  UNL     1      -2.255   1.352  11.279  1.00  0.00     0.167 HD
HETATM   14  C8  UNL     1      -4.095  -0.344  12.052  1.00  0.00     0.089 C
HETATM   15  N4  UNL     1      -4.756   1.739  13.225  1.00  0.00    -0.331 N
HETATM   16  C9  UNL     1      -4.614   3.046  13.561  1.00  0.00     0.121 A
ATOM     17  H4  UNL     1      -5.539   1.215  13.617  1.00  0.00     0.168 HD
HETATM   18  C10 UNL     1      -3.549   3.779  13.032  1.00  0.00     0.042 A
HETATM   19  N5  UNL     1      -5.487   3.607  14.412  1.00  0.00    -0.341 N
HETATM   20  C11 UNL     1      -3.367   5.108  13.386  1.00  0.00    -0.044 A
HETATM   21  C12 UNL     1      -2.266   5.952  12.952  1.00  0.00     0.049 C
HETATM   22  C13 UNL     1      -4.337   5.590  14.283  1.00  0.00     0.032 A
HETATM   23  C14 UNL     1      -5.366   4.871  14.785  1.00  0.00     0.009 A
HETATM   24  C15 UNL     1      -6.336   5.518  15.742  1.00  0.00     0.068 C
HETATM   25  C16 UNL     1      -6.580   2.813  14.934  1.00  0.00     0.158 C
ENDBRANCH   8  10
ENDBRANCH   6   7
ENDBRANCH   3   4
TORSDOF 3
ENDMDL