MODEL 1
REMARK VINA RESULT: -7.505596464      0.000      0.000
REMARK  8 active torsions:
REMARK  status: ('A' for Active; 'I' for Inactive)
REMARK    1  A    between atoms: C2_3  and  S1_4
REMARK    2  A    between atoms: S1_4  and  C3_5
REMARK    3  A    between atoms: C3_5  and  C4_6
REMARK       I    between atoms: C4_6  and  N2_8
REMARK    4  A    between atoms: C6_15  and  C7_16
REMARK    5  A    between atoms: C7_16  and  C8_17
REMARK    6  A    between atoms: N10_33  and  C11_35
REMARK    7  A    between atoms: C11_35  and  O2_36
REMARK    8  A    between atoms: C11_35  and  O3_38
ROOT
HETATM    1  C4  UNL     1       7.896   2.993 107.960  1.00  0.00     0.233 C
HETATM    2  O1  UNL     1       6.979   3.379 108.724  1.00  0.00    -0.272 OA
HETATM    3  N2  UNL     1       7.647   2.115 106.870  1.00  0.00    -0.305 N
ATOM      4  H2  UNL     1       7.497   1.114 106.995  1.00  0.00     0.171 HD
HETATM    5  C5  UNL     1       7.625   2.692 105.688  1.00  0.00     0.167 A
HETATM    6  N3  UNL     1       7.416   2.113 104.501  1.00  0.00    -0.279 N
ATOM      7  H3  UNL     1       7.248   1.109 104.435  1.00  0.00     0.189 HD
HETATM    8  N4  UNL     1       7.431   2.838 103.459  1.00  0.00    -0.296 N
ATOM      9  H4  UNL     1       7.273   2.412 102.546  1.00  0.00     0.187 HD
HETATM   10  C6  UNL     1       7.648   4.132 103.544  1.00  0.00     0.075 A
HETATM   11  S3  UNL     1       7.846   4.329 105.242  1.00  0.00    -0.037 SA
ENDROOT
BRANCH   1  12
HETATM   12  C3  UNL     1       9.282   3.452 108.183  1.00  0.00     0.185 C
BRANCH  12  13
HETATM   13  S1  UNL     1      10.409   2.051 108.074  1.00  0.00    -0.083 SA
BRANCH  13  14
HETATM   14  C2  UNL     1      11.430   2.221 106.629  1.00  0.00     0.177 A
HETATM   15  N1  UNL     1      12.484   1.397 106.327  1.00  0.00    -0.164 N
HETATM   16  C1  UNL     1      12.889   0.285 107.165  1.00  0.00     0.177 C
HETATM   17  C10 UNL     1      13.040   1.787 105.183  1.00  0.00     0.700 A
HETATM   18  N9  UNL     1      12.305   2.880 104.774  1.00  0.00    -0.130 N
HETATM   19  N10 UNL     1      13.994   1.368 104.523  1.00  0.00    -0.174 N
HETATM   20  N8  UNL     1      11.358   3.119 105.641  1.00  0.00    -0.265 N
ATOM     21  H9  UNL     1      12.474   3.419 103.925  1.00  0.00     0.205 HD
ATOM     22  H8  UNL     1      10.673   3.871 105.575  1.00  0.00     0.189 HD
ATOM     23  H10 UNL     1      14.099   1.952 103.693  1.00  0.00     0.182 HD
BRANCH  19  24
HETATM   24  C11 UNL     1      14.972   0.389 104.506  1.00  0.00     0.381 C
BRANCH  24  25
HETATM   25  O2  UNL     1      16.252   0.862 104.149  1.00  0.00    -0.354 OA
ATOM     26  H2  UNL     1      16.609   1.502 104.752  1.00  0.00     0.214 HD
ENDBRANCH  24  25
BRANCH  24  27
HETATM   27  O3  UNL     1      14.604  -0.694 103.686  1.00  0.00    -0.354 OA
ATOM     28  H3  UNL     1      14.196  -0.398 102.882  1.00  0.00     0.214 HD
ENDBRANCH  24  27
ENDBRANCH  19  24
ENDBRANCH  13  14
ENDBRANCH  12  13
ENDBRANCH   1  12
BRANCH  10  29
HETATM   29  C7  UNL     1       7.712   5.176 102.456  1.00  0.00     0.132 C
BRANCH  29  30
HETATM   30  C8  UNL     1       9.176   5.317 102.121  1.00  0.00     0.075 A
HETATM   31  N5  UNL     1      10.128   4.398 102.163  1.00  0.00    -0.296 N
HETATM   32  N6  UNL     1      11.321   4.693 101.844  1.00  0.00    -0.279 N
ATOM     33  H5  UNL     1       9.901   3.447 102.454  1.00  0.00     0.187 HD
HETATM   34  C9  UNL     1      11.592   5.946 101.467  1.00  0.00     0.158 A
ATOM     35  H6  UNL     1      12.057   3.988 101.874  1.00  0.00     0.189 HD
HETATM   36  N7  UNL     1      12.745   6.439 101.105  1.00  0.00    -0.379 N
HETATM   37  S2  UNL     1      10.055   6.684 101.591  1.00  0.00    -0.038 SA
ATOM     38  H72 UNL     1      13.662   5.999 101.031  1.00  0.00     0.158 HD
ATOM     39  H71 UNL     1      12.952   7.396 100.817  1.00  0.00     0.158 HD
ENDBRANCH  29  30
ENDBRANCH  10  29
TORSDOF 8
ENDMDL