MODEL 4
REMARK VINA RESULT: -7.688086918      2.643      9.182
REMARK  11 active torsions:
REMARK  status: ('A' for Active; 'I' for Inactive)
REMARK    1  A    between atoms: C3_5  and  N2_6
REMARK    2  A    between atoms: N4_11  and  C5_12
REMARK    3  A    between atoms: C5_12  and  C6_13
REMARK    4  A    between atoms: C6_13  and  C7_15
REMARK    5  A    between atoms: C10_18  and  S1_19
REMARK    6  A    between atoms: S1_19  and  N5_22
REMARK    7  A    between atoms: C12_24  and  C13_25
REMARK    8  A    between atoms: C13_25  and  N6_26
REMARK    9  A    between atoms: N6_26  and  O4_27
REMARK   10  A    between atoms: C14_29  and  N7_30
REMARK   11  A    between atoms: C15_35  and  N9_36
ROOT
HETATM    1  C7  UNL     1      10.992   5.363 104.826  1.00  0.00     0.011 A
HETATM    2  C8  UNL     1      10.204   5.852 105.846  1.00  0.00     0.017 A
HETATM    3  C9  UNL     1       9.795   5.097 106.924  1.00  0.00     0.026 A
HETATM    4  C10 UNL     1      10.177   3.792 107.009  1.00  0.00     0.080 A
HETATM    5  C16 UNL     1      10.979   3.268 105.985  1.00  0.00     0.026 A
HETATM    6  C17 UNL     1      11.376   4.035 104.919  1.00  0.00     0.017 A
ENDROOT
BRANCH   4   7
HETATM    7  S1  UNL     1       9.753   2.713 108.289  1.00  0.00     0.282 S
HETATM    8  O2  UNL     1       8.324   2.265 108.064  1.00  0.00    -0.199 OA
HETATM    9  O3  UNL     1       9.721   3.527 109.561  1.00  0.00    -0.199 OA
BRANCH   7  10
HETATM   10  N5  UNL     1      10.794   1.366 108.477  1.00  0.00    -0.077 N
HETATM   11  C11 UNL     1      11.725   1.184 107.490  1.00  0.00     0.146 A
HETATM   12  C12 UNL     1      12.559   0.081 107.508  1.00  0.00     0.057 A
HETATM   13  C14 UNL     1      12.408  -0.802 108.548  1.00  0.00     0.129 A
HETATM   14  N8  UNL     1      11.489  -0.607 109.510  1.00  0.00    -0.175 N
HETATM   15  C15 UNL     1      10.667   0.495 109.479  1.00  0.00     0.693 A
ATOM     16  H8  UNL     1      11.401  -1.281 110.270  1.00  0.00     0.186 HD
BRANCH  12  17
HETATM   17  C13 UNL     1      13.554  -0.137 106.476  1.00  0.00     0.234 C
BRANCH  17  18
HETATM   18  N6  UNL     1      14.267   0.627 105.901  1.00  0.00    -0.296 NA
BRANCH  18  19
HETATM   19  O4  UNL     1      15.192   1.438 105.597  1.00  0.00    -0.219 OA
ATOM     20  H4  UNL     1      15.834   1.957 105.127  1.00  0.00     0.261 HD
ENDBRANCH  18  19
ENDBRANCH  17  18
ENDBRANCH  12  17
BRANCH  13  21
HETATM   21  N7  UNL     1      13.161  -1.843 108.604  1.00  0.00    -0.384 N
ATOM     22  H72 UNL     1      13.918  -1.945 107.928  1.00  0.00     0.157 HD
ATOM     23  H71 UNL     1      12.989  -2.546 109.323  1.00  0.00     0.157 HD
ENDBRANCH  13  21
BRANCH  15  24
HETATM   24  N9  UNL     1       9.859   0.679 110.451  1.00  0.00    -0.233 N
ATOM     25  H92 UNL     1       8.858   0.683 110.258  1.00  0.00     0.174 HD
ATOM     26  H91 UNL     1      10.175   0.765 111.417  1.00  0.00     0.174 HD
ENDBRANCH  15  24
ENDBRANCH   7  10
ENDBRANCH   4   7
BRANCH   1  27
HETATM   27  C6  UNL     1      11.417   6.175 103.691  1.00  0.00     0.179 C
HETATM   28  O1  UNL     1      11.517   7.402 103.813  1.00  0.00    -0.290 OA
BRANCH  27  29
HETATM   29  C5  UNL     1      11.713   5.455 102.418  1.00  0.00     0.235 C
BRANCH  29  30
HETATM   30  N4  UNL     1      11.716   6.434 101.354  1.00  0.00    -0.257 N
HETATM   31  C2  UNL     1      10.603   6.809 100.694  1.00  0.00     0.111 A
HETATM   32  C1  UNL     1       9.208   6.299 100.934  1.00  0.00     0.091 C
HETATM   33  N1  UNL     1      10.965   7.723  99.781  1.00  0.00    -0.178 N
HETATM   34  C3  UNL     1      12.290   7.922  99.863  1.00  0.00     0.693 A
ATOM     35  H1  UNL     1      10.335   8.190  99.129  1.00  0.00     0.185 HD
HETATM   36  N3  UNL     1      12.729   7.113 100.843  1.00  0.00    -0.125 N
HETATM   37  C4  UNL     1      14.098   6.969 101.309  1.00  0.00     0.198 C
BRANCH  34  38
HETATM   38  N2  UNL     1      13.007   8.741  99.134  1.00  0.00    -0.233 N
ATOM     39  H22 UNL     1      12.703   9.255  98.307  1.00  0.00     0.174 HD
ATOM     40  H21 UNL     1      13.985   8.992  99.280  1.00  0.00     0.174 HD
ENDBRANCH  34  38
ENDBRANCH  29  30
ENDBRANCH  27  29
ENDBRANCH   1  27
TORSDOF 11
ENDMDL