MODEL 1
REMARK VINA RESULT: -8.451545490      0.000      0.000
REMARK  8 active torsions:
REMARK  status: ('A' for Active; 'I' for Inactive)
REMARK    1  A    between atoms: C7_14  and  C8_15
REMARK       I    between atoms: C8_15  and  N4_17
REMARK    2  A    between atoms: N4_17  and  N5_19
REMARK    3  A    between atoms: C10_26  and  C11_27
REMARK    4  A    between atoms: C11_27  and  N8_28
REMARK    5  A    between atoms: C11_27  and  C12_32
REMARK    6  A    between atoms: C12_32  and  C14_34
REMARK    7  A    between atoms: C14_34  and  C15_35
REMARK    8  A    between atoms: C15_35  and  O2_36
ROOT
HETATM    1  C8  UNL     1      10.181   3.090 105.244  1.00  0.00     0.276 C
HETATM    2  O1  UNL     1       9.121   2.760 104.602  1.00  0.00    -0.266 OA
HETATM    3  N4  UNL     1      11.003   4.048 104.606  1.00  0.00    -0.264 N
ATOM      4  H4  UNL     1      11.865   4.346 105.064  1.00  0.00     0.190 HD
ENDROOT
BRANCH   3   5
HETATM    5  N5  UNL     1      10.664   4.604 103.354  1.00  0.00    -0.276 N
HETATM    6  C9  UNL     1      11.416   5.582 102.939  1.00  0.00     0.180 A
HETATM    7  N6  UNL     1      12.471   6.145 103.527  1.00  0.00    -0.278 N
HETATM    8  S1  UNL     1      11.314   6.497 101.484  1.00  0.00    -0.034 SA
HETATM    9  N7  UNL     1      13.070   7.099 102.946  1.00  0.00    -0.294 N
ATOM     10  H6  UNL     1      12.793   5.811 104.436  1.00  0.00     0.189 HD
HETATM   11  C10 UNL     1      12.648   7.528 101.766  1.00  0.00     0.100 A
ATOM     12  H7  UNL     1      13.878   7.536 103.388  1.00  0.00     0.187 HD
ATOM     13  H5  UNL     1       9.875   4.259 102.806  1.00  0.00     0.189 HD
BRANCH  11  14
HETATM   14  C11 UNL     1      13.231   8.637 100.923  1.00  0.00     0.245 C
BRANCH  14  15
HETATM   15  N8  UNL     1      12.085   9.408 100.476  1.00  0.00    -0.069 N
ATOM     16  H83 UNL     1      11.347   8.845 100.055  1.00  0.00     0.275 HD
ATOM     17  H82 UNL     1      11.522   9.790 101.235  1.00  0.00     0.275 HD
ATOM     18  H81 UNL     1      12.472  10.116  99.851  1.00  0.00     0.275 HD
ENDBRANCH  14  15
BRANCH  14  19
HETATM   19  C12 UNL     1      13.887   8.081  99.696  1.00  0.00     0.020 C
HETATM   20  C13 UNL     1      12.844   8.160  98.582  1.00  0.00     0.012 C
BRANCH  19  21
HETATM   21  C14 UNL     1      14.253   6.628  99.900  1.00  0.00     0.033 C
BRANCH  21  22
HETATM   22  C15 UNL     1      15.251   6.147  98.890  1.00  0.00     0.164 C
BRANCH  22  23
HETATM   23  O2  UNL     1      15.050   4.825  98.525  1.00  0.00    -0.401 OA
ATOM     24  H2  UNL     1      15.802   4.274  98.710  1.00  0.00     0.209 HD
ENDBRANCH  22  23
ENDBRANCH  21  22
ENDBRANCH  19  21
ENDBRANCH  14  19
ENDBRANCH  11  14
ENDBRANCH   3   5
BRANCH   1  25
HETATM   25  C7  UNL     1      10.546   2.540 106.528  1.00  0.00     0.113 C
HETATM   26  C5  UNL     1       9.744   2.801 107.641  1.00  0.00     0.004 C
HETATM   27  C4  UNL     1      10.030   2.519 108.982  1.00  0.00     0.121 C
HETATM   28  C6  UNL     1       8.440   3.422 107.406  1.00  0.00     0.053 C
HETATM   29  N2  UNL     1      10.812   1.499 109.415  1.00  0.00    -0.174 N
HETATM   30  N3  UNL     1       9.502   3.294 109.864  1.00  0.00    -0.385 N
HETATM   31  C3  UNL     1      11.589   0.639 108.725  1.00  0.00     0.709 A
ATOM     32  H2  UNL     1      10.813   1.361 110.425  1.00  0.00     0.186 HD
HETATM   33  N1  UNL     1      12.099  -0.509 109.163  1.00  0.00    -0.178 N
HETATM   34  N9  UNL     1      11.998   0.784 107.452  1.00  0.00    -0.045 N
HETATM   35  C2  UNL     1      12.827  -1.087 108.169  1.00  0.00     0.109 A
ATOM     36  H1  UNL     1      11.965  -0.896 110.097  1.00  0.00     0.185 HD
HETATM   37  C1  UNL     1      13.564  -2.376 108.239  1.00  0.00     0.091 C
HETATM   38  N10 UNL     1      12.739  -0.251 107.120  1.00  0.00    -0.265 N
ATOM     39  H10 UNL     1      13.178  -0.395 106.210  1.00  0.00     0.189 HD
HETATM   40  C16 UNL     1      11.737   1.804 106.581  1.00  0.00     0.298 C
HETATM   41  O3  UNL     1      12.644   2.096 105.769  1.00  0.00    -0.264 OA
ATOM     42  H32 UNL     1       9.710   3.089 110.841  1.00  0.00     0.157 HD
ATOM     43  H31 UNL     1       8.914   4.061 109.538  1.00  0.00     0.157 HD
ENDBRANCH   1  25
TORSDOF 8
ENDMDL