MODEL 3
REMARK VINA RESULT: -7.097786868      1.531      1.769
REMARK  8 active torsions:
REMARK  status: ('A' for Active; 'I' for Inactive)
REMARK    1  A    between atoms: C3_6  and  N3_7
REMARK       I    between atoms: N3_7  and  C4_9
REMARK    2  A    between atoms: C4_9  and  C5_11
REMARK    3  A    between atoms: N5_14  and  C6_15
REMARK    4  A    between atoms: C9_20  and  N7_21
REMARK    5  A    between atoms: C10_24  and  N8_25
REMARK    6  A    between atoms: C12_29  and  C13_30
REMARK    7  A    between atoms: C14_33  and  C15_34
REMARK       I    between atoms: C15_34  and  N9_36
REMARK    8  A    between atoms: N9_36  and  N10_38
ROOT
HETATM    1  C5  UNL     1      12.003   7.712 101.270  1.00  0.00     0.135 A
HETATM    2  N4  UNL     1      12.164   7.888  99.932  1.00  0.00    -0.288 N
ATOM      3  H4  UNL     1      11.577   7.447  99.223  1.00  0.00     0.188 HD
HETATM    4  N5  UNL     1      13.158   8.687  99.663  1.00  0.00    -0.263 N
HETATM    5  C11 UNL     1      13.676   9.059 100.829  1.00  0.00     0.137 A
HETATM    6  C12 UNL     1      12.954   8.444 101.873  1.00  0.00     0.091 A
ENDROOT
BRANCH   1   7
HETATM    7  C4  UNL     1      10.950   6.813 101.785  1.00  0.00     0.275 C
HETATM    8  N3  UNL     1      10.595   6.700 103.128  1.00  0.00    -0.318 N
ATOM      9  H3  UNL     1      11.087   7.289 103.800  1.00  0.00     0.169 HD
HETATM   10  O1  UNL     1      10.341   6.117 100.924  1.00  0.00    -0.266 OA
BRANCH   8  11
HETATM   11  C3  UNL     1       9.600   5.826 103.625  1.00  0.00     0.086 A
HETATM   12  C2  UNL     1       8.265   6.119 103.776  1.00  0.00     0.139 A
HETATM   13  N2  UNL     1       7.663   5.041 104.283  1.00  0.00    -0.307 N
HETATM   14  N1  UNL     1       8.530   4.078 104.466  1.00  0.00    -0.290 N
ATOM     15  H2  UNL     1       6.668   4.976 104.497  1.00  0.00     0.186 HD
HETATM   16  C1  UNL     1       8.172   2.766 105.008  1.00  0.00     0.178 C
HETATM   17  C14 UNL     1       9.757   4.493 104.078  1.00  0.00     0.148 A
BRANCH  17  18
HETATM   18  C15 UNL     1      11.006   3.770 104.088  1.00  0.00     0.290 C
HETATM   19  O6  UNL     1      11.676   3.684 103.000  1.00  0.00    -0.264 OA
HETATM   20  N9  UNL     1      11.613   3.120 105.173  1.00  0.00    -0.271 N
ATOM     21  H9  UNL     1      11.173   3.120 106.093  1.00  0.00     0.189 HD
BRANCH  20  22
HETATM   22  N10 UNL     1      12.872   2.453 104.958  1.00  0.00    -0.342 N
ATOM     23 2H10 UNL     1      13.717   3.003 104.808  1.00  0.00     0.176 HD
ATOM     24 1H10 UNL     1      12.889   1.432 104.962  1.00  0.00     0.176 HD
ENDBRANCH  20  22
ENDBRANCH  17  18
ENDBRANCH   8  11
ENDBRANCH   1   7
BRANCH   6  25
HETATM   25  C13 UNL     1      13.293   8.549 103.272  1.00  0.00     0.213 C
HETATM   26  O4  UNL     1      13.214   7.639 104.100  1.00  0.00    -0.644 OA
HETATM   27  O5  UNL     1      13.750   9.779 103.737  1.00  0.00    -0.644 OA
ENDBRANCH   6  25
BRANCH   4  28
HETATM   28  C6  UNL     1      13.599   9.080  98.353  1.00  0.00     0.094 A
HETATM   29  C7  UNL     1      13.035  10.119  97.647  1.00  0.00     0.051 A
HETATM   30  C8  UNL     1      13.479  10.481  96.384  1.00  0.00     0.092 A
HETATM   31  N6  UNL     1      14.490   9.780  95.859  1.00  0.00    -0.351 N
HETATM   32  C9  UNL     1      15.070   8.753  96.520  1.00  0.00     0.134 A
ATOM     33  H6  UNL     1      14.833  10.028  94.931  1.00  0.00     0.166 HD
HETATM   34  C10 UNL     1      14.637   8.391  97.764  1.00  0.00     0.174 A
BRANCH  32  35
HETATM   35  N7  UNL     1      16.031   8.122  95.962  1.00  0.00    -0.383 N
ATOM     36  H72 UNL     1      16.902   8.604  95.739  1.00  0.00     0.157 HD
ATOM     37  H71 UNL     1      15.913   7.133  95.746  1.00  0.00     0.157 HD
ENDBRANCH  32  35
BRANCH  34  38
HETATM   38  N8  UNL     1      15.215   7.318  98.497  1.00  0.00    -0.109 N
HETATM   39  O2  UNL     1      16.277   7.421  99.138  1.00  0.00    -0.532 OA
HETATM   40  O3  UNL     1      14.569   6.106  98.499  1.00  0.00    -0.532 OA
ENDBRANCH  34  38
ENDBRANCH   4  28
TORSDOF 8
ENDMDL