MODEL 1
REMARK VINA RESULT: -9.391117507      0.000      0.000
REMARK  8 active torsions:
REMARK  status: ('A' for Active; 'I' for Inactive)
REMARK    1  A    between atoms: N1_1  and  C1_4
REMARK    2  A    between atoms: C5_10  and  C6_11
REMARK    3  A    between atoms: C6_11  and  N3_12
REMARK       I    between atoms: N3_12  and  C7_14
REMARK    4  A    between atoms: C7_14  and  C8_16
REMARK    5  A    between atoms: C8_16  and  N4_17
REMARK    6  A    between atoms: C9_22  and  C10_23
REMARK    7  A    between atoms: N7_25  and  C12_26
REMARK    8  A    between atoms: C13_32  and  N10_33
ROOT
HETATM    1  N4  UNL     1      11.397   5.214 102.768  1.00  0.00    -0.209 N
HETATM    2  N5  UNL     1      12.310   5.834 103.488  1.00  0.00    -0.224 N
ATOM      3  H5  UNL     1      12.425   5.748 104.499  1.00  0.00     0.210 HD
HETATM    4  N6  UNL     1      13.065   6.596 102.681  1.00  0.00    -0.267 N
ATOM      5  H6  UNL     1      13.847   7.185 102.971  1.00  0.00     0.190 HD
HETATM    6  C9  UNL     1      12.618   6.451 101.440  1.00  0.00     0.167 A
HETATM    7  N13 UNL     1      11.581   5.587 101.526  1.00  0.00    -0.264 N
ATOM      8  H13 UNL     1      11.021   5.271 100.735  1.00  0.00     0.190 HD
ENDROOT
BRANCH   1   9
HETATM    9  C8  UNL     1      10.374   4.300 103.211  1.00  0.00     0.273 C
BRANCH   9  10
HETATM   10  C7  UNL     1      10.103   4.401 104.654  1.00  0.00     0.239 C
HETATM   11  N3  UNL     1      10.615   3.433 105.543  1.00  0.00    -0.355 N
ATOM     12  H3  UNL     1      11.174   2.666 105.168  1.00  0.00     0.162 HD
HETATM   13  O1  UNL     1       9.419   5.343 105.106  1.00  0.00    -0.272 OA
BRANCH  11  14
HETATM   14  C6  UNL     1      10.372   3.493 106.983  1.00  0.00     0.161 C
BRANCH  14  15
HETATM   15  C5  UNL     1      10.884   2.235 107.580  1.00  0.00    -0.038 A
HETATM   16  C4  UNL     1      10.449   1.887 108.861  1.00  0.00     0.011 A
HETATM   17  C3  UNL     1      10.901   0.718 109.455  1.00  0.00     0.033 A
HETATM   18  C2  UNL     1      11.779  -0.123 108.804  1.00  0.00     0.076 A
HETATM   19  N2  UNL     1      12.353  -1.300 109.168  1.00  0.00    -0.190 N
HETATM   20  C15 UNL     1      12.216   0.208 107.539  1.00  0.00     0.077 A
HETATM   21  C1  UNL     1      13.143  -1.712 108.151  1.00  0.00     0.676 A
ATOM     22  H2  UNL     1      12.213  -1.786 110.053  1.00  0.00     0.184 HD
HETATM   23  N14 UNL     1      13.042  -0.787 107.185  1.00  0.00    -0.190 N
ATOM     24  H14 UNL     1      13.533  -0.835 106.292  1.00  0.00     0.184 HD
HETATM   25  C14 UNL     1      11.758   1.376 106.961  1.00  0.00     0.041 A
BRANCH  21  26
HETATM   26  N1  UNL     1      13.853  -2.789 108.125  1.00  0.00    -0.234 N
ATOM     27  H12 UNL     1      14.863  -2.862 108.242  1.00  0.00     0.174 HD
ATOM     28  H11 UNL     1      13.505  -3.738 107.984  1.00  0.00     0.174 HD
ENDBRANCH  21  26
ENDBRANCH  14  15
ENDBRANCH  11  14
ENDBRANCH   9  10
ENDBRANCH   1   9
BRANCH   6  29
HETATM   29  C10 UNL     1      13.108   7.071 100.210  1.00  0.00     0.110 A
HETATM   30  C11 UNL     1      12.636   8.199  99.577  1.00  0.00     0.150 A
HETATM   31  N7  UNL     1      13.369   8.429  98.470  1.00  0.00    -0.228 N
HETATM   32  N11 UNL     1      14.280   7.460  98.416  1.00  0.00    -0.013 NA
HETATM   33  N12 UNL     1      14.130   6.641  99.455  1.00  0.00    -0.279 N
ATOM     34  H12 UNL     1      14.702   5.818  99.646  1.00  0.00     0.184 HD
BRANCH  31  35
HETATM   35  C12 UNL     1      13.195   9.506  97.541  1.00  0.00     0.193 A
HETATM   36  N8  UNL     1      12.149  10.330  97.422  1.00  0.00    -0.221 N
HETATM   37  O2  UNL     1      12.401  11.157  96.462  1.00  0.00    -0.153 OA
ATOM     38  H8  UNL     1      11.301  10.310  97.989  1.00  0.00     0.198 HD
HETATM   39  N9  UNL     1      13.565  10.923  95.937  1.00  0.00    -0.222 N
HETATM   40  C13 UNL     1      14.107   9.891  96.582  1.00  0.00     0.169 A
ATOM     41  H9  UNL     1      13.990  11.437  95.166  1.00  0.00     0.198 HD
BRANCH  40  42
HETATM   42  N10 UNL     1      15.273   9.331  96.370  1.00  0.00    -0.381 N
ATOM     43 2H10 UNL     1      16.124   9.425  96.924  1.00  0.00     0.157 HD
ATOM     44 1H10 UNL     1      15.497   8.703  95.598  1.00  0.00     0.157 HD
ENDBRANCH  40  42
ENDBRANCH  31  35
ENDBRANCH   6  29
TORSDOF 8
ENDMDL