MODEL 1
REMARK VINA RESULT: -8.620645530      0.000      0.000
REMARK  8 active torsions:
REMARK  status: ('A' for Active; 'I' for Inactive)
REMARK    1  A    between atoms: O1_2  and  C2_3
REMARK    2  A    between atoms: C5_8  and  N2_9
REMARK    3  A    between atoms: C6_14  and  C7_15
REMARK    4  A    between atoms: N5_16  and  N6_18
REMARK    5  A    between atoms: N10_27  and  N11_29
REMARK    6  A    between atoms: C10_31  and  C11_32
REMARK    7  A    between atoms: C15_36  and  O2_37
REMARK    8  A    between atoms: C16_39  and  O3_40
ROOT
HETATM    1  N6  UNL     1      11.957   3.771 103.996  1.00  0.00    -0.131 N
ATOM      2  H6  UNL     1      12.508   3.918 103.150  1.00  0.00     0.205 HD
HETATM    3  C8  UNL     1      12.313   2.820 104.782  1.00  0.00     0.724 C
HETATM    4  N7  UNL     1      13.428   1.981 104.520  1.00  0.00    -0.114 N
ATOM      5  H7  UNL     1      13.763   1.891 103.561  1.00  0.00     0.203 HD
HETATM    6  N8  UNL     1      14.079   1.272 105.536  1.00  0.00     0.007 NA
HETATM    7  N9  UNL     1      13.148   0.753 106.419  1.00  0.00    -0.114 N
ATOM      8  H9  UNL     1      13.278  -0.186 106.798  1.00  0.00     0.203 HD
HETATM    9  C9  UNL     1      12.023   1.512 106.798  1.00  0.00     0.724 C
HETATM   10  N10 UNL     1      11.399   1.240 107.889  1.00  0.00    -0.131 N
ATOM     11  H10 UNL     1      10.587   1.801 108.143  1.00  0.00     0.205 HD
HETATM   12  N12 UNL     1      11.566   2.590 105.969  1.00  0.00    -0.018 N
ATOM     13  H12 UNL     1      10.755   3.157 106.217  1.00  0.00     0.203 HD
ENDROOT
BRANCH   1  14
HETATM   14  N5  UNL     1      10.883   4.607 104.214  1.00  0.00    -0.294 N
HETATM   15  C7  UNL     1      10.796   5.812 103.776  1.00  0.00     0.159 C
ATOM     16  H5  UNL     1      10.103   4.244 104.763  1.00  0.00     0.186 HD
BRANCH  15  17
HETATM   17  C6  UNL     1      11.839   6.446 102.982  1.00  0.00     0.154 A
HETATM   18  N4  UNL     1      12.719   7.338 103.478  1.00  0.00    -0.267 N
HETATM   19  N3  UNL     1      13.514   7.701 102.480  1.00  0.00    -0.218 N
ATOM     20  H4  UNL     1      12.764   7.673 104.440  1.00  0.00     0.190 HD
HETATM   21  N2  UNL     1      13.177   7.077 101.372  1.00  0.00    -0.161 N
ATOM     22  H3  UNL     1      14.279   8.370 102.560  1.00  0.00     0.210 HD
HETATM   23  N13 UNL     1      12.149   6.313 101.702  1.00  0.00    -0.259 N
ATOM     24  H13 UNL     1      11.658   5.699 101.052  1.00  0.00     0.191 HD
BRANCH  21  25
HETATM   25  C5  UNL     1      13.801   7.212 100.102  1.00  0.00     0.180 A
HETATM   26  C2  UNL     1      13.452   8.017  99.047  1.00  0.00     0.117 A
HETATM   27  C3  UNL     1      14.356   7.794  98.044  1.00  0.00     0.058 A
HETATM   28  C4  UNL     1      15.262   6.851  98.477  1.00  0.00     0.092 A
HETATM   29  N1  UNL     1      14.910   6.515  99.717  1.00  0.00    -0.347 N
ATOM     30  H1  UNL     1      15.399   5.834 100.297  1.00  0.00     0.167 HD
BRANCH  26  31
HETATM   31  O1  UNL     1      12.399   8.902  98.964  1.00  0.00    -0.352 OA
HETATM   32  C1  UNL     1      11.070   8.547  98.752  1.00  0.00     0.210 C
ENDBRANCH  26  31
ENDBRANCH  21  25
ENDBRANCH  15  17
ENDBRANCH   1  14
BRANCH  10  33
HETATM   33  N11 UNL     1      11.770   0.263 108.692  1.00  0.00    -0.297 N
HETATM   34  C10 UNL     1      11.824   0.075 109.904  1.00  0.00     0.122 C
ATOM     35  H11 UNL     1      12.099  -0.549 108.170  1.00  0.00     0.186 HD
BRANCH  34  36
HETATM   36  C11 UNL     1      11.449   0.987 110.968  1.00  0.00     0.017 A
HETATM   37  C12 UNL     1      10.160   1.346 111.220  1.00  0.00     0.016 A
HETATM   38  C13 UNL     1       9.792   2.226 112.244  1.00  0.00     0.004 A
HETATM   39  C14 UNL     1      10.784   2.736 113.017  1.00  0.00     0.039 A
HETATM   40  C15 UNL     1      12.092   2.410 112.809  1.00  0.00     0.099 A
HETATM   41  C16 UNL     1      12.444   1.538 111.790  1.00  0.00     0.110 A
BRANCH  40  42
HETATM   42  O2  UNL     1      13.118   2.927 113.595  1.00  0.00    -0.358 OA
ATOM     43  H2  UNL     1      13.252   3.862 113.701  1.00  0.00     0.217 HD
ENDBRANCH  40  42
BRANCH  41  44
HETATM   44  O3  UNL     1      13.764   1.232 111.609  1.00  0.00    -0.357 OA
ATOM     45  H3  UNL     1      14.450   1.828 111.886  1.00  0.00     0.217 HD
ENDBRANCH  41  44
ENDBRANCH  34  36
ENDBRANCH  10  33
TORSDOF 8
ENDMDL