MODEL 2
REMARK VINA RESULT: -7.849856874      2.909      8.885
REMARK  10 active torsions:
REMARK  status: ('A' for Active; 'I' for Inactive)
REMARK    1  A    between atoms: C2_2  and  O1_4
REMARK    2  A    between atoms: C2_2  and  C4_6
REMARK    3  A    between atoms: C4_6  and  C8_22
REMARK    4  A    between atoms: N1_7  and  O2_9
REMARK    5  A    between atoms: O2_9  and  C5_10
REMARK    6  A    between atoms: C5_10  and  C6_12
REMARK    7  A    between atoms: C7_18  and  N4_19
REMARK       I    between atoms: C8_22  and  N5_24
REMARK    8  A    between atoms: N5_24  and  N6_26
REMARK       I    between atoms: N6_26  and  C9_28
REMARK    9  A    between atoms: C9_28  and  C10_30
REMARK   10  A    between atoms: C12_33  and  N7_34
ROOT
HETATM    1  C4  UNL     1       9.587   3.629 105.723  1.00  0.00     0.135 C
HETATM    2  N1  UNL     1       9.929   2.878 106.650  1.00  0.00    -0.253 N
ATOM      3  H1  UNL     1       9.175   2.384 107.127  1.00  0.00     0.195 HD
ENDROOT
BRANCH   1   4
HETATM    4  C2  UNL     1       8.108   3.709 105.427  1.00  0.00     0.100 C
HETATM    5  C1  UNL     1       7.318   3.928 106.677  1.00  0.00     0.052 C
HETATM    6  C3  UNL     1       7.651   2.414 104.785  1.00  0.00     0.052 C
BRANCH   4   7
HETATM    7  O1  UNL     1       7.923   4.733 104.502  1.00  0.00    -0.384 OA
ATOM      8  H1  UNL     1       8.734   4.981 104.073  1.00  0.00     0.211 HD
ENDBRANCH   4   7
ENDBRANCH   1   4
BRANCH   1   9
HETATM    9  C8  UNL     1      10.471   4.424 104.917  1.00  0.00     0.287 C
HETATM   10  O5  UNL     1      10.777   5.590 105.371  1.00  0.00    -0.264 OA
HETATM   11  N5  UNL     1      11.057   4.110 103.692  1.00  0.00    -0.262 N
ATOM     12  H5  UNL     1      10.866   3.205 103.263  1.00  0.00     0.190 HD
BRANCH  11  13
HETATM   13  N6  UNL     1      11.895   5.008 103.046  1.00  0.00    -0.263 N
HETATM   14  C9  UNL     1      11.474   5.720 101.921  1.00  0.00     0.270 C
HETATM   15  O6  UNL     1      10.316   5.535 101.496  1.00  0.00    -0.266 OA
ATOM     16  H6  UNL     1      12.840   5.152 103.402  1.00  0.00     0.190 HD
BRANCH  14  17
HETATM   17  C10 UNL     1      12.353   6.690 101.210  1.00  0.00     0.043 A
HETATM   18  C11 UNL     1      12.182   8.042 101.360  1.00  0.00     0.069 A
HETATM   19  S1  UNL     1      13.410   8.694 100.370  1.00  0.00    -0.077 SA
HETATM   20  C12 UNL     1      14.103   7.252  99.793  1.00  0.00     0.144 A
HETATM   21  C13 UNL     1      13.349   6.287 100.398  1.00  0.00     0.061 A
BRANCH  20  22
HETATM   22  N7  UNL     1      15.200   7.089  98.902  1.00  0.00    -0.108 N
HETATM   23  O7  UNL     1      15.046   6.614  97.766  1.00  0.00    -0.531 OA
HETATM   24  O8  UNL     1      16.463   7.454  99.279  1.00  0.00    -0.531 OA
ENDBRANCH  20  22
ENDBRANCH  14  17
ENDBRANCH  11  13
ENDBRANCH   1   9
BRANCH   2  25
HETATM   25  O2  UNL     1      11.156   2.639 107.098  1.00  0.00    -0.193 OA
BRANCH  25  26
HETATM   26  C5  UNL     1      12.041   1.696 106.585  1.00  0.00     0.337 C
HETATM   27  O3  UNL     1      12.498   1.924 105.446  1.00  0.00    -0.255 OA
BRANCH  26  28
HETATM   28  C6  UNL     1      12.358   0.539 107.399  1.00  0.00     0.178 A
HETATM   29  N2  UNL     1      13.159  -0.488 107.050  1.00  0.00    -0.232 N
HETATM   30  O4  UNL     1      13.216  -1.335 108.005  1.00  0.00    -0.155 OA
ATOM     31  H2  UNL     1      13.646  -0.576 106.157  1.00  0.00     0.197 HD
HETATM   32  N3  UNL     1      12.495  -0.957 109.010  1.00  0.00    -0.224 N
HETATM   33  C7  UNL     1      11.933   0.222 108.673  1.00  0.00     0.156 A
ATOM     34  H3  UNL     1      12.374  -1.456 109.892  1.00  0.00     0.198 HD
BRANCH  33  35
HETATM   35  N4  UNL     1      11.156   0.894 109.418  1.00  0.00    -0.382 N
ATOM     36  H42 UNL     1      10.275   1.309 109.117  1.00  0.00     0.157 HD
ATOM     37  H41 UNL     1      11.284   1.120 110.405  1.00  0.00     0.157 HD
ENDBRANCH  33  35
ENDBRANCH  26  28
ENDBRANCH  25  26
ENDBRANCH   2  25
TORSDOF 10
ENDMDL