MODEL 5
REMARK VINA RESULT: -5.863071332      3.765      5.808
REMARK  9 active torsions:
REMARK  status: ('A' for Active; 'I' for Inactive)
REMARK    1  A    between atoms: O1_2  and  C2_3
REMARK    2  A    between atoms: C2_3  and  C3_5
REMARK    3  A    between atoms: C3_5  and  O3_6
REMARK    4  A    between atoms: C5_9  and  O5_10
REMARK    5  A    between atoms: C5_9  and  C13_24
REMARK    6  A    between atoms: O5_10  and  C6_11
REMARK    7  A    between atoms: C8_13  and  C9_14
REMARK    8  A    between atoms: N1_16  and  O6_18
REMARK    9  A    between atoms: C17_35  and  O7_36
ROOT
HETATM    1  C3  UNL     1       9.490   6.563 103.010  1.00  0.00     0.292 C
HETATM    2  O4  UNL     1       9.741   6.963 104.324  1.00  0.00    -0.298 OA
HETATM    3  C5  UNL     1       9.523   5.927 105.182  1.00  0.00     0.263 C
HETATM    4  C14 UNL     1       8.948   4.783 104.430  1.00  0.00     0.296 C
HETATM    5  N5  UNL     1       7.762   4.220 105.019  1.00  0.00    -0.062 N
ATOM      6  H51 UNL     1       7.694   4.399 106.021  1.00  0.00     0.277 HD
ATOM      7  H52 UNL     1       7.789   3.202 105.067  1.00  0.00     0.277 HD
HETATM    8  C15 UNL     1       6.631   4.715 104.285  1.00  0.00     0.236 C
HETATM    9  C16 UNL     1       7.125   5.835 103.396  1.00  0.00     0.074 C
HETATM   10  C17 UNL     1       8.541   5.390 103.110  1.00  0.00     0.162 C
ENDROOT
BRANCH   3  11
HETATM   11  O5  UNL     1      10.779   5.468 105.725  1.00  0.00    -0.289 OA
BRANCH  11  12
HETATM   12  C6  UNL     1      11.093   4.116 105.755  1.00  0.00     0.138 C
HETATM   13  C7  UNL     1      10.768   3.324 106.761  1.00  0.00     0.039 C
HETATM   14  C8  UNL     1      11.116   1.880 106.767  1.00  0.00     0.061 C
HETATM   15  C11 UNL     1      12.439   1.614 106.090  1.00  0.00     0.034 C
HETATM   16  C12 UNL     1      12.708   2.457 104.897  1.00  0.00     0.122 C
HETATM   17  N2  UNL     1      11.794   3.533 104.666  1.00  0.00    -0.371 N
ATOM     18  H2  UNL     1      11.646   3.882 103.719  1.00  0.00     0.161 HD
BRANCH  14  19
HETATM   19  C9  UNL     1      11.228   1.397 108.158  1.00  0.00     0.014 C
HETATM   20  C10 UNL     1      10.278   1.821 109.210  1.00  0.00     0.066 C
HETATM   21  N1  UNL     1      12.174   0.588 108.459  1.00  0.00    -0.277 N
ATOM     22  H1  UNL     1      12.822   0.304 107.724  1.00  0.00     0.193 HD
BRANCH  21  23
HETATM   23  O6  UNL     1      12.359   0.088 109.709  1.00  0.00    -0.290 OA
ATOM     24  H6  UNL     1      13.070   0.358 110.279  1.00  0.00     0.244 HD
ENDBRANCH  21  23
ENDBRANCH  14  19
ENDBRANCH  11  12
ENDBRANCH   3  11
BRANCH   3  25
HETATM   25  C13 UNL     1       8.722   6.407 106.327  1.00  0.00     0.152 C
HETATM   26  N3  UNL     1       8.244   7.603 106.333  1.00  0.00    -0.387 N
ATOM     27  H32 UNL     1       8.445   8.174 105.512  1.00  0.00     0.157 HD
ATOM     28  H31 UNL     1       7.691   7.934 107.123  1.00  0.00     0.157 HD
HETATM   29  N4  UNL     1       8.440   5.607 107.474  1.00  0.00    -0.082 NA
ENDBRANCH   3  25
BRANCH   1  30
HETATM   30  C2  UNL     1      10.757   6.110 102.426  1.00  0.00     0.325 C
HETATM   31  O2  UNL     1      10.786   5.827 101.171  1.00  0.00    -0.259 OA
BRANCH  30  32
HETATM   32  O1  UNL     1      11.963   5.940 103.060  1.00  0.00    -0.322 OA
HETATM   33  C1  UNL     1      13.115   6.697 102.753  1.00  0.00     0.213 C
ENDBRANCH  30  32
ENDBRANCH   1  30
BRANCH   1  34
HETATM   34  O3  UNL     1       8.871   7.613 102.389  1.00  0.00    -0.350 OA
HETATM   35  C4  UNL     1       9.295   8.871 102.684  1.00  0.00     0.206 C
ENDBRANCH   1  34
BRANCH  10  36
HETATM   36  O7  UNL     1       8.606   4.483 102.101  1.00  0.00    -0.376 OA
HETATM   37  C18 UNL     1       7.659   4.526 101.125  1.00  0.00     0.202 C
ENDBRANCH  10  36
TORSDOF 9
ENDMDL