MODEL 2
REMARK VINA RESULT: -6.940243257      0.427      1.020
REMARK  12 active torsions:
REMARK  status: ('A' for Active; 'I' for Inactive)
REMARK    1  A    between atoms: C2_2  and  O1_4
REMARK    2  A    between atoms: C2_2  and  C4_6
REMARK    3  A    between atoms: C4_6  and  C5_7
REMARK    4  A    between atoms: C5_7  and  O2_8
REMARK    5  A    between atoms: C5_7  and  C6_10
REMARK    6  A    between atoms: C6_10  and  N1_11
REMARK    7  A    between atoms: C7_12  and  N2_13
REMARK    8  A    between atoms: C16_23  and  N4_24
REMARK    9  A    between atoms: C17_28  and  C18_29
REMARK   10  A    between atoms: C18_29  and  N7_30
REMARK   11  A    between atoms: C18_29  and  N8_34
REMARK   12  A    between atoms: C19_40  and  N10_41
ROOT
HETATM    1  N1  UNL     1      10.496   4.590 104.269  1.00  0.00    -0.293 N
HETATM    2  C7  UNL     1       9.587   5.216 105.105  1.00  0.00     0.132 A
HETATM    3  C13 UNL     1       9.443   4.748 106.402  1.00  0.00     0.091 A
HETATM    4  C14 UNL     1       8.503   5.351 107.331  1.00  0.00     0.103 C
HETATM    5  N3  UNL     1       7.748   5.811 108.101  1.00  0.00    -0.191 NA
HETATM    6  C15 UNL     1      10.157   3.693 106.896  1.00  0.00     0.063 A
HETATM    7  C16 UNL     1      11.048   3.083 106.053  1.00  0.00     0.118 A
HETATM    8  C19 UNL     1      11.202   3.543 104.749  1.00  0.00     0.137 A
ENDROOT
BRANCH   2   9
HETATM    9  N2  UNL     1       8.679   6.212 104.716  1.00  0.00    -0.366 N
HETATM   10  C8  UNL     1       9.138   7.593 104.935  1.00  0.00     0.124 C
HETATM   11  C9  UNL     1       8.990   8.416 103.681  1.00  0.00     0.020 C
HETATM   12  C10 UNL     1       7.725   8.086 102.926  1.00  0.00     0.003 C
HETATM   13  C11 UNL     1       6.771   7.335 103.821  1.00  0.00     0.020 C
HETATM   14  C12 UNL     1       7.428   5.965 104.089  1.00  0.00     0.124 C
ENDBRANCH   2   9
BRANCH   1  15
HETATM   15  C6  UNL     1      10.691   5.122 102.970  1.00  0.00     0.105 C
BRANCH  15  16
HETATM   16  C5  UNL     1      11.942   5.776 102.546  1.00  0.00     0.160 C
BRANCH  16  17
HETATM   17  C4  UNL     1      12.056   7.188 102.145  1.00  0.00     0.074 C
BRANCH  17  18
HETATM   18  C2  UNL     1      13.320   7.912 102.344  1.00  0.00     0.053 C
HETATM   19  C1  UNL     1      13.590   8.801 103.463  1.00  0.00     0.045 C
HETATM   20  C3  UNL     1      13.545   8.743 101.056  1.00  0.00     0.045 C
BRANCH  18  21
HETATM   21  O1  UNL     1      14.404   6.965 102.278  1.00  0.00    -0.391 OA
ATOM     22  H1  UNL     1      14.629   6.857 101.362  1.00  0.00     0.210 HD
ENDBRANCH  18  21
ENDBRANCH  17  18
ENDBRANCH  16  17
BRANCH  16  23
HETATM   23  O2  UNL     1      11.993   5.193 101.133  1.00  0.00    -0.390 OA
ATOM     24  H2  UNL     1      12.591   4.483 101.333  1.00  0.00     0.210 HD
ENDBRANCH  16  23
ENDBRANCH  15  16
ENDBRANCH   1  15
BRANCH   7  25
HETATM   25  N4  UNL     1      11.840   1.971 106.476  1.00  0.00    -0.175 N
HETATM   26  N5  UNL     1      12.983   1.652 105.890  1.00  0.00     0.003 NA
HETATM   27  N6  UNL     1      13.494   0.586 106.485  1.00  0.00    -0.267 N
HETATM   28  C17 UNL     1      12.667   0.209 107.475  1.00  0.00     0.169 A
ATOM     29  H6  UNL     1      14.370   0.128 106.234  1.00  0.00     0.185 HD
HETATM   30  N9  UNL     1      11.652   1.098 107.434  1.00  0.00    -0.265 N
ATOM     31  H9  UNL     1      10.848   1.091 108.063  1.00  0.00     0.190 HD
BRANCH  28  32
HETATM   32  C18 UNL     1      12.801  -0.931 108.430  1.00  0.00     0.447 C
BRANCH  32  33
HETATM   33  N7  UNL     1      12.838  -2.198 107.750  1.00  0.00    -0.043 N
ATOM     34  H73 UNL     1      11.899  -2.528 107.528  1.00  0.00     0.277 HD
ATOM     35  H72 UNL     1      13.200  -2.099 106.801  1.00  0.00     0.277 HD
ATOM     36  H71 UNL     1      13.363  -2.896 108.277  1.00  0.00     0.277 HD
ENDBRANCH  32  33
BRANCH  32  37
HETATM   37  N8  UNL     1      11.747  -0.912 109.407  1.00  0.00    -0.043 N
ATOM     38  H83 UNL     1      11.574   0.030 109.755  1.00  0.00     0.277 HD
ATOM     39  H82 UNL     1      10.837  -1.090 108.982  1.00  0.00     0.277 HD
ATOM     40  H81 UNL     1      11.940  -1.564 110.167  1.00  0.00     0.277 HD
ENDBRANCH  32  37
ENDBRANCH  28  32
ENDBRANCH   7  25
BRANCH   8  41
HETATM   41  N10 UNL     1      12.008   2.866 104.029  1.00  0.00    -0.383 N
ATOM     42 2H10 UNL     1      12.626   3.419 103.436  1.00  0.00     0.157 HD
ATOM     43 1H10 UNL     1      12.068   1.848 104.076  1.00  0.00     0.157 HD
ENDBRANCH   8  41
TORSDOF 12
ENDMDL