MODEL 5
REMARK VINA RESULT: -6.786030917      2.893      3.893
REMARK  10 active torsions:
REMARK  status: ('A' for Active; 'I' for Inactive)
REMARK    1  A    between atoms: N1_2  and  C3_4
REMARK    2  A    between atoms: C3_4  and  C4_5
REMARK       I    between atoms: C4_5  and  N2_7
REMARK    3  A    between atoms: N2_7  and  N3_9
REMARK    4  A    between atoms: C5_11  and  C6_12
REMARK    5  A    between atoms: C7_17  and  N6_18
REMARK    6  A    between atoms: N7_21  and  C10_22
REMARK    7  A    between atoms: C11_23  and  O2_24
REMARK    8  A    between atoms: C12_26  and  O3_27
REMARK    9  A    between atoms: C14_31  and  O4_32
REMARK   10  A    between atoms: C17_38  and  N10_39
ROOT
HETATM    1  C6  UNL     1       9.471   5.805 107.172  1.00  0.00     0.109 A
HETATM    2  N4  UNL     1       8.991   6.990 106.810  1.00  0.00    -0.281 N
ATOM      3  H4  UNL     1       8.522   7.570 107.506  1.00  0.00     0.187 HD
HETATM    4  N5  UNL     1       9.106   7.438 105.569  1.00  0.00    -0.131 N
ATOM      5  H5  UNL     1       8.723   8.353 105.330  1.00  0.00     0.205 HD
HETATM    6  C7  UNL     1       9.710   6.716 104.628  1.00  0.00     0.696 A
HETATM    7  N9  UNL     1      10.201   5.521 104.966  1.00  0.00    -0.173 N
ATOM      8  H9  UNL     1      10.666   4.958 104.253  1.00  0.00     0.186 HD
HETATM    9  C17 UNL     1      10.103   5.035 106.209  1.00  0.00     0.144 A
ENDROOT
BRANCH   6  10
HETATM   10  N6  UNL     1       9.820   7.212 103.312  1.00  0.00    -0.213 N
HETATM   11  C8  UNL     1       9.601   6.404 102.139  1.00  0.00     0.161 C
HETATM   12  C9  UNL     1      10.650   6.577 101.094  1.00  0.00     0.143 C
HETATM   13  N7  UNL     1      11.660   7.574 101.373  1.00  0.00    -0.372 N
HETATM   14  C15 UNL     1      11.539   8.580 102.382  1.00  0.00     0.143 C
HETATM   15  C16 UNL     1      10.163   8.610 103.023  1.00  0.00     0.161 C
BRANCH  13  16
HETATM   16  C10 UNL     1      12.841   7.539 100.537  1.00  0.00     0.120 A
HETATM   17  C11 UNL     1      14.130   7.173 100.869  1.00  0.00     0.148 A
HETATM   18  C12 UNL     1      14.900   7.361  99.696  1.00  0.00     0.180 A
HETATM   19  N8  UNL     1      14.146   7.810  98.709  1.00  0.00    -0.309 N
HETATM   20  C13 UNL     1      14.584   8.125  97.339  1.00  0.00     0.161 C
HETATM   21  C14 UNL     1      12.905   7.921  99.201  1.00  0.00     0.174 A
BRANCH  17  22
HETATM   22  O2  UNL     1      14.640   6.716 102.045  1.00  0.00    -0.355 OA
ATOM     23  H2  UNL     1      14.802   5.828 102.342  1.00  0.00     0.218 HD
ENDBRANCH  17  22
BRANCH  18  24
HETATM   24  O3  UNL     1      16.248   7.095  99.652  1.00  0.00    -0.344 OA
ATOM     25  H3  UNL     1      16.640   6.382 100.142  1.00  0.00     0.219 HD
ENDBRANCH  18  24
BRANCH  21  26
HETATM   26  O4  UNL     1      11.841   8.376  98.411  1.00  0.00    -0.344 OA
ATOM     27  H4  UNL     1      10.950   8.046  98.417  1.00  0.00     0.219 HD
ENDBRANCH  21  26
ENDBRANCH  13  16
ENDBRANCH   6  10
BRANCH   9  28
HETATM   28  N10 UNL     1      10.556   3.897 106.581  1.00  0.00    -0.383 N
ATOM     29 2H10 UNL     1       9.991   3.052 106.670  1.00  0.00     0.157 HD
ATOM     30 1H10 UNL     1      11.551   3.842 106.799  1.00  0.00     0.157 HD
ENDBRANCH   9  28
BRANCH   1  31
HETATM   31  C5  UNL     1       9.321   5.357 108.536  1.00  0.00     0.142 C
HETATM   32  N3  UNL     1       8.374   4.659 108.965  1.00  0.00    -0.307 N
ATOM     33  H3  UNL     1       8.424   4.431 109.958  1.00  0.00     0.186 HD
BRANCH  32  34
HETATM   34  N2  UNL     1       7.271   4.147 108.308  1.00  0.00    -0.269 N
HETATM   35  C4  UNL     1       7.297   2.824 107.802  1.00  0.00     0.253 C
HETATM   36  O1  UNL     1       8.392   2.178 108.020  1.00  0.00    -0.270 OA
ATOM     37  H2  UNL     1       6.439   4.723 108.187  1.00  0.00     0.190 HD
BRANCH  35  38
HETATM   38  C3  UNL     1       6.217   2.156 107.072  1.00  0.00     0.220 C
BRANCH  38  39
HETATM   39  N1  UNL     1       5.920   2.673 105.788  1.00  0.00    -0.413 N
HETATM   40  C1  UNL     1       4.999   3.739 105.790  1.00  0.00     0.143 C
HETATM   41  C2  UNL     1       7.065   2.777 104.958  1.00  0.00     0.143 C
ENDBRANCH  38  39
ENDBRANCH  35  38
ENDBRANCH  32  34
ENDBRANCH   1  31
TORSDOF 10
ENDMDL