MODEL 4
REMARK VINA RESULT: -5.028712456      2.991      4.985
REMARK  1 active torsions:
REMARK  status: ('A' for Active; 'I' for Inactive)
REMARK    1  A    between atoms: C3_4  and  O1_5
ROOT
HETATM    1  C1  UNL     1      16.766   7.379   9.852  1.00  0.00     0.312 C
HETATM    2  N1  UNL     1      16.411   6.652  11.069  1.00  0.00     0.120 N
HETATM    3  C2  UNL     1      16.985   5.318  10.917  1.00  0.00     0.308 C
HETATM    4  C3  UNL     1      16.626   4.530  12.127  1.00  0.00     0.179 C
HETATM    5  C4  UNL     1      16.937   5.239  13.428  1.00  0.00     0.256 C
HETATM    6  C5  UNL     1      15.887   4.781  14.420  1.00  0.00     0.038 C
HETATM    7  C6  UNL     1      14.805   5.779  14.636  1.00  0.00     0.004 C
HETATM    8  C7  UNL     1      15.300   7.177  14.859  1.00  0.00     0.036 C
HETATM    9  C8  UNL     1      16.518   7.535  14.118  1.00  0.00     0.230 C
HETATM   10  C9  UNL     1      16.186   8.324  12.845  1.00  0.00     0.104 C
HETATM   11  C10 UNL     1      17.076   7.291  12.153  1.00  0.00     0.459 C
HETATM   12  N2  UNL     1      17.172   6.592  13.355  1.00  0.00     0.134 N
ENDROOT
BRANCH   4  13
HETATM   13  O1  UNL     1      15.245   4.237  12.039  1.00  0.00    -0.392 OA
ATOM     14  H1  UNL     1      14.866   4.854  11.424  1.00  0.00     0.210 HD
ENDBRANCH   4  13
TORSDOF 1
ENDMDL