MODEL 1
REMARK VINA RESULT: -5.650708387      0.000      0.000
REMARK  1 active torsions:
REMARK  status: ('A' for Active; 'I' for Inactive)
REMARK    1  A    between atoms: C9_11  and  O2_12
ROOT
HETATM    1  C1  UNL     1      15.619   8.467  12.090  1.00  0.00     0.154 C
HETATM    2  N1  UNL     1      16.138   7.674  13.132  1.00  0.00    -0.375 N
HETATM    3  C2  UNL     1      17.305   6.948  12.909  1.00  0.00     0.065 C
HETATM    4  C3  UNL     1      17.319   5.525  13.345  1.00  0.00     0.080 C
HETATM    5  C4  UNL     1      16.608   5.272  14.634  1.00  0.00     0.165 C
HETATM    6  O1  UNL     1      16.304   3.907  14.762  1.00  0.00    -0.382 OA
HETATM    7  C5  UNL     1      16.349   3.507  16.075  1.00  0.00     0.168 C
HETATM    8  C6  UNL     1      15.048   3.513  16.787  1.00  0.00     0.026 C
HETATM    9  C7  UNL     1      14.170   4.676  16.527  1.00  0.00     0.006 C
HETATM   10  C8  UNL     1      14.872   5.946  16.184  1.00  0.00     0.046 C
HETATM   11  C9  UNL     1      15.273   5.990  14.706  1.00  0.00     0.116 C
HETATM   12  C10 UNL     1      15.331   7.399  14.233  1.00  0.00     0.102 C
ENDROOT
BRANCH  11  13
HETATM   13  O2  UNL     1      14.307   5.281  13.984  1.00  0.00    -0.382 OA
ATOM     14  H2  UNL     1      14.116   4.459  14.418  1.00  0.00     0.211 HD
ENDBRANCH  11  13
TORSDOF 1
ENDMDL