MODEL 5
REMARK VINA RESULT: -5.582254623      3.761      6.116
REMARK  1 active torsions:
REMARK  status: ('A' for Active; 'I' for Inactive)
REMARK    1  A    between atoms: C9_11  and  O2_12
ROOT
HETATM    1  C1  UNL     1      16.304   5.380  13.462  1.00  0.00     0.046 C
HETATM    2  C2  UNL     1      15.635   4.554  14.569  1.00  0.00     0.175 C
HETATM    3  C3  UNL     1      14.726   5.465  15.305  1.00  0.00     0.278 C
HETATM    4  N1  UNL     1      14.292   5.043  16.578  1.00  0.00     0.040 N
HETATM    5  O1  UNL     1      13.039   4.507  16.572  1.00  0.00    -0.060 OA
HETATM    6  C4  UNL     1      14.210   6.218  17.447  1.00  0.00     0.318 C
HETATM    7  C5  UNL     1      14.415   5.733  18.850  1.00  0.00     0.039 C
HETATM    8  C6  UNL     1      14.534   4.220  18.694  1.00  0.00     0.045 C
HETATM    9  C7  UNL     1      15.144   4.155  17.287  1.00  0.00     0.265 C
HETATM   10  C8  UNL     1      15.168   2.762  16.750  1.00  0.00     0.103 C
HETATM   11  C9  UNL     1      16.216   2.691  15.663  1.00  0.00     0.260 C
HETATM   12  O3  UNL     1      16.636   3.984  15.304  1.00  0.00    -0.351 OA
ENDROOT
BRANCH  11  13
HETATM   13  O2  UNL     1      17.332   1.970  16.037  1.00  0.00    -0.371 OA
ATOM     14  H2  UNL     1      17.380   1.117  15.621  1.00  0.00     0.212 HD
ENDBRANCH  11  13
TORSDOF 1
ENDMDL