MODEL 1
REMARK VINA RESULT: -5.594772807      0.000      0.000
REMARK  1 active torsions:
REMARK  status: ('A' for Active; 'I' for Inactive)
REMARK    1  A    between atoms: O1_1  and  C1_3
ROOT
HETATM    1  C1  UNL     1      16.646   1.683  11.250  1.00  0.00     0.141 C
HETATM    2  C2  UNL     1      17.989   1.493  10.622  1.00  0.00     0.049 C
HETATM    3  C3  UNL     1      18.852   2.589  11.148  1.00  0.00     0.111 C
HETATM    4  N1  UNL     1      18.103   3.368  12.078  1.00  0.00    -0.239 NA
HETATM    5  C4  UNL     1      16.875   2.623  12.374  1.00  0.00     0.132 C
HETATM    6  C5  UNL     1      16.138   3.949  12.117  1.00  0.00     0.157 C
HETATM    7  S1  UNL     1      15.859   4.787  13.658  1.00  0.00    -0.146 SA
HETATM    8  C6  UNL     1      16.972   6.172  13.779  1.00  0.00     0.077 C
HETATM    9  C7  UNL     1      17.610   6.604  12.503  1.00  0.00     0.026 C
HETATM   10  C8  UNL     1      17.732   5.653  11.405  1.00  0.00     0.110 C
HETATM   11  N2  UNL     1      17.319   4.331  11.526  1.00  0.00    -0.233 NA
ENDROOT
BRANCH   1  12
HETATM   12  O1  UNL     1      15.756   2.184  10.291  1.00  0.00    -0.394 OA
ATOM     13  H1  UNL     1      15.080   2.689  10.726  1.00  0.00     0.210 HD
ENDBRANCH   1  12
TORSDOF 1
ENDMDL