MODEL 2
REMARK VINA RESULT: -5.192649422      1.316      1.710
REMARK  1 active torsions:
REMARK  status: ('A' for Active; 'I' for Inactive)
REMARK    1  A    between atoms: O1_1  and  C1_3
ROOT
HETATM    1  C1  UNL     1      16.173   3.632  12.155  1.00  0.00     0.142 C
HETATM    2  C2  UNL     1      16.984   2.429  11.742  1.00  0.00     0.199 C
HETATM    3  O2  UNL     1      17.934   2.707  10.800  1.00  0.00    -0.388 OA
HETATM    4  C3  UNL     1      18.838   3.674  11.166  1.00  0.00     0.179 C
HETATM    5  C4  UNL     1      18.251   4.965  11.606  1.00  0.00     0.015 C
HETATM    6  C5  UNL     1      16.942   4.882  12.293  1.00  0.00     0.047 C
HETATM    7  C6  UNL     1      18.256   5.988  10.463  1.00  0.00     0.284 C
HETATM    8  N1  UNL     1      19.399   6.854  10.698  1.00  0.00     0.089 N
HETATM    9  C7  UNL     1      19.044   7.878  11.699  1.00  0.00     0.273 C
HETATM   10  C8  UNL     1      18.627   7.000  12.877  1.00  0.00     0.037 C
HETATM   11  C9  UNL     1      19.220   5.662  12.560  1.00  0.00     0.028 C
HETATM   12  C10 UNL     1      20.305   6.068  11.559  1.00  0.00     0.278 C
ENDROOT
BRANCH   1  13
HETATM   13  O1  UNL     1      15.081   3.784  11.272  1.00  0.00    -0.393 OA
ATOM     14  H1  UNL     1      15.319   3.446  10.417  1.00  0.00     0.210 HD
ENDBRANCH   1  13
TORSDOF 1
ENDMDL