MODEL 2
REMARK VINA RESULT: -5.732973021      3.859      5.957
REMARK  1 active torsions:
REMARK  status: ('A' for Active; 'I' for Inactive)
REMARK    1  A    between atoms: C5_7  and  O2_8
ROOT
HETATM    1  C1  UNL     1      15.440   5.028  13.995  1.00  0.00     0.310 C
HETATM    2  N1  UNL     1      16.372   5.445  12.935  1.00  0.00     0.094 N
HETATM    3  C2  UNL     1      17.262   6.413  13.449  1.00  0.00     0.307 C
HETATM    4  C3  UNL     1      18.586   6.523  12.811  1.00  0.00     0.182 A
HETATM    5  O1  UNL     1      19.497   5.469  13.332  1.00  0.00    -0.370 OA
HETATM    6  C4  UNL     1      19.105   5.500  12.016  1.00  0.00     0.189 A
HETATM    7  C5  UNL     1      18.122   4.493  11.495  1.00  0.00     0.117 C
HETATM    8  C6  UNL     1      18.735   3.175  11.139  1.00  0.00     0.043 C
HETATM    9  C7  UNL     1      17.892   1.991  11.434  1.00  0.00     0.003 C
HETATM   10  C8  UNL     1      16.431   2.169  11.287  1.00  0.00     0.002 C
HETATM   11  C9  UNL     1      15.911   3.533  11.578  1.00  0.00     0.039 C
HETATM   12  C10 UNL     1      16.967   4.260  12.411  1.00  0.00     0.259 C
ENDROOT
BRANCH   7  13
HETATM   13  O2  UNL     1      17.595   5.032  10.297  1.00  0.00    -0.385 OA
ATOM     14  H2  UNL     1      18.161   4.731   9.595  1.00  0.00     0.210 HD
ENDBRANCH   7  13
TORSDOF 1
ENDMDL