MODEL 5
REMARK VINA RESULT: -5.739090343      1.433      5.536
REMARK  3 active torsions:
REMARK  status: ('A' for Active; 'I' for Inactive)
REMARK    1  A    between atoms: O1_1  and  C1_3
REMARK    2  A    between atoms: C1_3  and  C2_4
REMARK    3  A    between atoms: C3_5  and  C4_6
ROOT
HETATM    1  C2  UNL     1      15.173   4.671  15.845  1.00  0.00    -0.038 C
HETATM    2  C3  UNL     1      15.580   4.840  14.719  1.00  0.00    -0.096 C
ENDROOT
BRANCH   1   3
HETATM    3  C1  UNL     1      14.659   4.476  17.200  1.00  0.00     0.231 C
HETATM    4  C9  UNL     1      13.592   3.399  17.226  1.00  0.00     0.109 C
HETATM    5  C10 UNL     1      14.848   2.553  17.226  1.00  0.00     0.178 C
HETATM    6  O3  UNL     1      15.460   3.595  17.964  1.00  0.00    -0.345 OA
BRANCH   3   7
HETATM    7  O1  UNL     1      14.306   5.634  17.874  1.00  0.00    -0.355 OA
ATOM      8  H1  UNL     1      14.623   5.698  18.768  1.00  0.00     0.214 HD
ENDBRANCH   3   7
ENDBRANCH   1   3
BRANCH   2   9
HETATM    9  C4  UNL     1      16.047   5.044  13.356  1.00  0.00     0.069 C
HETATM   10  C5  UNL     1      17.389   5.764  13.429  1.00  0.00     0.043 C
HETATM   11  C6  UNL     1      18.167   5.496  12.141  1.00  0.00     0.169 C
HETATM   12  O2  UNL     1      17.223   5.294  11.126  1.00  0.00    -0.391 OA
HETATM   13  C7  UNL     1      16.691   4.004  11.232  1.00  0.00     0.169 C
HETATM   14  C8  UNL     1      16.255   3.716  12.655  1.00  0.00     0.043 C
ENDBRANCH   2   9
TORSDOF 3
ENDMDL