MODEL 4
REMARK VINA RESULT: -4.521031884      1.740      2.407
REMARK  1 active torsions:
REMARK  status: ('A' for Active; 'I' for Inactive)
REMARK    1  A    between atoms: O1_1  and  C1_3
ROOT
HETATM    1  C1  UNL     1      19.460   6.027  10.315  1.00  0.00     0.150 C
HETATM    2  C2  UNL     1      17.964   6.155  10.275  1.00  0.00     0.305 C
HETATM    3  N1  UNL     1      17.360   5.588  11.486  1.00  0.00     0.102 N
HETATM    4  C3  UNL     1      17.934   6.269  12.599  1.00  0.00     0.274 C
HETATM    5  C4  UNL     1      19.431   6.013  12.748  1.00  0.00     0.037 C
HETATM    6  C5  UNL     1      19.869   5.240  11.537  1.00  0.00     0.020 C
HETATM    7  C6  UNL     1      19.099   3.929  11.532  1.00  0.00     0.051 C
HETATM    8  C7  UNL     1      17.599   4.173  11.536  1.00  0.00     0.183 C
HETATM    9  C8  UNL     1      17.019   3.452  10.362  1.00  0.00     0.070 C
HETATM   10  C9  UNL     1      16.157   2.374  11.028  1.00  0.00     0.170 C
HETATM   11  O2  UNL     1      15.710   3.065  12.157  1.00  0.00    -0.388 OA
HETATM   12  C10 UNL     1      16.914   3.553  12.703  1.00  0.00     0.209 C
ENDROOT
BRANCH   1  13
HETATM   13  O1  UNL     1      19.924   5.343   9.180  1.00  0.00    -0.393 OA
ATOM     14  H1  UNL     1      19.195   4.993   8.681  1.00  0.00     0.210 HD
ENDBRANCH   1  13
TORSDOF 1
ENDMDL