MODEL 4
REMARK VINA RESULT: -4.931925832      1.593      3.643
REMARK  1 active torsions:
REMARK  status: ('A' for Active; 'I' for Inactive)
REMARK    1  A    between atoms: O1_1  and  C1_3
ROOT
HETATM    1  C1  UNL     1      16.057   4.365  12.896  1.00  0.00     0.364 C
HETATM    2  C2  UNL     1      15.954   4.210  11.391  1.00  0.00     0.055 C
HETATM    3  C3  UNL     1      16.282   2.734  11.110  1.00  0.00     0.036 C
HETATM    4  C4  UNL     1      17.584   2.426  11.752  1.00  0.00     0.171 C
HETATM    5  O2  UNL     1      18.493   3.378  11.922  1.00  0.00    -0.357 OA
HETATM    6  C5  UNL     1      18.118   4.697  11.935  1.00  0.00     0.366 C
HETATM    7  C6  UNL     1      17.157   4.916  10.811  1.00  0.00     0.053 C
HETATM    8  C7  UNL     1      16.935   6.300  10.387  1.00  0.00     0.010 C
HETATM    9  C8  UNL     1      16.651   7.329  11.405  1.00  0.00     0.002 C
HETATM   10  C9  UNL     1      17.572   7.362  12.576  1.00  0.00     0.030 C
HETATM   11  C10 UNL     1      17.342   6.284  13.584  1.00  0.00     0.279 C
HETATM   12  N1  UNL     1      17.322   4.962  13.097  1.00  0.00     0.146 N
ENDROOT
BRANCH   1  13
HETATM   13  O1  UNL     1      14.984   5.052  13.439  1.00  0.00    -0.367 OA
ATOM     14  H1  UNL     1      14.538   4.561  14.120  1.00  0.00     0.212 HD
ENDBRANCH   1  13
TORSDOF 1
ENDMDL