MODEL 4
REMARK VINA RESULT: -4.768564911      2.908      5.104
REMARK  3 active torsions:
REMARK  status: ('A' for Active; 'I' for Inactive)
REMARK    1  A    between atoms: N1_2  and  N2_4
REMARK    2  A    between atoms: N2_4  and  C3_6
REMARK    3  A    between atoms: C3_6  and  N3_8
ROOT
HETATM    1  C3  UNL     1      16.985   4.990  12.908  1.00  0.00     0.184 C
HETATM    2  S1  UNL     1      17.992   6.285  12.891  1.00  0.00    -0.040 SA
ENDROOT
BRANCH   1   3
HETATM    3  N2  UNL     1      15.848   4.941  13.748  1.00  0.00    -0.296 N
ATOM      4  H2  UNL     1      14.942   4.786  13.307  1.00  0.00     0.183 HD
BRANCH   3   5
HETATM    5  N1  UNL     1      15.873   5.088  15.122  1.00  0.00    -0.238 NA
HETATM    6  C1  UNL     1      15.990   3.771  15.710  1.00  0.00     0.135 C
HETATM    7  C2  UNL     1      14.801   5.834  15.672  1.00  0.00     0.135 C
ENDBRANCH   3   5
ENDBRANCH   1   3
BRANCH   1   8
HETATM    8  N3  UNL     1      17.271   3.906  12.058  1.00  0.00    -0.353 N
HETATM    9  C4  UNL     1      18.560   3.860  11.400  1.00  0.00     0.151 C
HETATM   10  C5  UNL     1      18.848   2.439  11.000  1.00  0.00     0.187 C
HETATM   11  O1  UNL     1      17.775   2.012  10.208  1.00  0.00    -0.388 OA
HETATM   12  C6  UNL     1      16.741   1.701  11.090  1.00  0.00     0.187 C
HETATM   13  C7  UNL     1      16.273   2.882  11.873  1.00  0.00     0.151 C
ENDBRANCH   1   8
TORSDOF 3
ENDMDL