MODEL 5
REMARK VINA RESULT: -8.002850262      1.509      1.800
REMARK  18 active torsions:
REMARK  status: ('A' for Active; 'I' for Inactive)
REMARK    1  A    between atoms: C2_2  and  C3_3
REMARK    2  A    between atoms: C3_3  and  N1_4
REMARK    3  A    between atoms: N1_4  and  C4_5
REMARK    4  A    between atoms: N1_4  and  S1_42
REMARK    5  A    between atoms: C4_5  and  C5_6
REMARK    6  A    between atoms: C8_9  and  N2_10
REMARK       I    between atoms: N2_10  and  C9_11
REMARK    7  A    between atoms: C9_11  and  C10_13
REMARK    8  A    between atoms: C10_13  and  N3_14
REMARK    9  A    between atoms: C10_13  and  C23_36
REMARK   10  A    between atoms: N3_14  and  C11_15
REMARK   11  A    between atoms: C11_15  and  O2_16
REMARK   12  A    between atoms: C11_15  and  O3_18
REMARK   13  A    between atoms: O3_18  and  C12_19
REMARK   14  A    between atoms: C12_19  and  C13_20
REMARK   15  A    between atoms: C13_20  and  C14_21
REMARK   16  A    between atoms: C17_26  and  N4_27
REMARK       I    between atoms: N4_27  and  C18_29
REMARK       I    between atoms: C18_29  and  N5_31
REMARK   17  A    between atoms: S1_42  and  C29_45
REMARK   18  A    between atoms: C29_45  and  C30_46
ROOT
HETATM    1  C10 UNL     1      16.994  -6.700  13.633  1.00  0.00     0.281 C
ENDROOT
BRANCH   1   2
HETATM    2  C9  UNL     1      17.858  -5.670  12.881  1.00  0.00     0.323 C
HETATM    3  N2  UNL     1      18.364  -4.619  13.638  1.00  0.00    -0.407 NA
HETATM    4  O1  UNL     1      18.049  -5.825  11.682  1.00  0.00    -0.254 OA
BRANCH   3   5
HETATM    5  C8  UNL     1      18.874  -3.568  14.363  1.00  0.00     0.167 C
HETATM    6  C7  UNL     1      19.393  -4.170  15.691  1.00  0.00     0.040 C
HETATM    7  C6  UNL     1      19.483  -3.306  16.848  1.00  0.00     0.009 C
HETATM    8  C5  UNL     1      18.955  -1.936  16.887  1.00  0.00    -0.000 C
HETATM    9  C28 UNL     1      18.351  -1.460  15.584  1.00  0.00     0.009 C
HETATM   10  C27 UNL     1      17.791  -2.554  14.757  1.00  0.00     0.040 C
BRANCH   8  11
HETATM   11  C4  UNL     1      20.002  -0.885  17.188  1.00  0.00     0.112 C
BRANCH  11  12
HETATM   12  N1  UNL     1      20.197  -0.544  18.562  1.00  0.00    -0.210 NA
BRANCH  12  13
HETATM   13  C3  UNL     1      21.686  -0.532  18.704  1.00  0.00     0.107 C
BRANCH  13  14
HETATM   14  C2  UNL     1      22.357  -1.032  17.457  1.00  0.00     0.011 C
HETATM   15  C1  UNL     1      23.608  -0.151  17.274  1.00  0.00     0.006 C
ENDBRANCH  13  14
ENDBRANCH  12  13
BRANCH  12  16
HETATM   16  S1  UNL     1      19.502   0.945  19.059  1.00  0.00     0.211 S
HETATM   17  O7  UNL     1      20.555   2.012  18.837  1.00  0.00    -0.211 OA
HETATM   18  O8  UNL     1      19.226   0.950  20.523  1.00  0.00    -0.211 OA
BRANCH  16  19
HETATM   19  C29 UNL     1      18.061   1.399  18.141  1.00  0.00     0.157 C
BRANCH  19  20
HETATM   20  C30 UNL     1      16.950   1.926  19.033  1.00  0.00     0.012 C
HETATM   21  C31 UNL     1      15.973   0.903  19.506  1.00  0.00     0.006 C
ENDBRANCH  19  20
ENDBRANCH  16  19
ENDBRANCH  12  16
ENDBRANCH  11  12
ENDBRANCH   8  11
ENDBRANCH   3   5
ENDBRANCH   1   2
BRANCH   1  22
HETATM   22  N3  UNL     1      16.856  -7.870  13.061  1.00  0.00    -0.387 NA
BRANCH  22  23
HETATM   23  C11 UNL     1      16.693  -9.145  12.436  1.00  0.00     0.336 C
BRANCH  23  24
HETATM   24  O2  UNL     1      16.620  -9.170  11.135  1.00  0.00    -0.316 OA
ATOM     25  H2  UNL     1      15.920  -9.681  10.747  1.00  0.00     0.222 HD
ENDBRANCH  23  24
BRANCH  23  26
HETATM   26  O3  UNL     1      16.591 -10.358  12.994  1.00  0.00    -0.304 OA
BRANCH  26  27
HETATM   27  C12 UNL     1      17.401 -11.131  13.810  1.00  0.00     0.203 C
BRANCH  27  28
HETATM   28  C13 UNL     1      18.488 -11.834  13.051  1.00  0.00     0.091 A
HETATM   29  C15 UNL     1      18.867 -13.085  13.909  1.00  0.00     0.027 A
HETATM   30  C16 UNL     1      20.254 -12.548  14.050  1.00  0.00     0.028 A
HETATM   31  C17 UNL     1      19.870 -11.334  13.197  1.00  0.00     0.107 A
BRANCH  28  32
HETATM   32  C14 UNL     1      18.181 -12.355  11.687  1.00  0.00     0.186 C
HETATM   33  O4  UNL     1      18.500 -11.612  10.693  1.00  0.00    -0.647 OA
HETATM   34  O5  UNL     1      17.587 -13.575  11.451  1.00  0.00    -0.647 OA
ENDBRANCH  28  32
BRANCH  31  35
HETATM   35  N4  UNL     1      20.230 -10.112  13.849  1.00  0.00    -0.337 N
HETATM   36  C18 UNL     1      20.466  -9.001  13.009  1.00  0.00     0.318 C
HETATM   37  O6  UNL     1      20.314  -9.130  11.727  1.00  0.00    -0.247 OA
HETATM   38  N5  UNL     1      20.880  -7.740  13.472  1.00  0.00    -0.334 N
HETATM   39  C19 UNL     1      21.077  -7.271  14.815  1.00  0.00     0.127 C
HETATM   40  C22 UNL     1      21.309  -6.625  12.584  1.00  0.00     0.127 C
HETATM   41  C20 UNL     1      22.402  -6.498  14.711  1.00  0.00     0.022 C
HETATM   42  C21 UNL     1      22.279  -5.811  13.375  1.00  0.00     0.022 C
ATOM     43  H4  UNL     1      20.310 -10.047  14.864  1.00  0.00     0.164 HD
ENDBRANCH  31  35
ENDBRANCH  27  28
ENDBRANCH  26  27
ENDBRANCH  23  26
ENDBRANCH  22  23
ENDBRANCH   1  22
BRANCH   1  44
HETATM   44  C23 UNL     1      15.625  -5.939  13.852  1.00  0.00    -0.009 C
HETATM   45  C24 UNL     1      14.588  -6.991  13.626  1.00  0.00     0.018 C
HETATM   46  C25 UNL     1      15.623  -5.494  15.278  1.00  0.00     0.018 C
HETATM   47  C26 UNL     1      15.429  -4.843  12.893  1.00  0.00     0.018 C
ENDBRANCH   1  44
TORSDOF 18
ENDMDL