MODEL 4
REMARK VINA RESULT: -8.447666059      2.647      5.735
REMARK  16 active torsions:
REMARK  status: ('A' for Active; 'I' for Inactive)
REMARK    1  A    between atoms: C2_2  and  N1_4
REMARK    2  A    between atoms: C12_14  and  C13_15
REMARK    3  A    between atoms: C13_15  and  C14_16
REMARK    4  A    between atoms: C14_16  and  C15_17
REMARK    5  A    between atoms: C15_17  and  N2_20
REMARK       I    between atoms: N2_20  and  C18_22
REMARK    6  A    between atoms: C18_22  and  C19_24
REMARK    7  A    between atoms: C19_24  and  C20_25
REMARK    8  A    between atoms: C24_33  and  C25_34
REMARK    9  A    between atoms: C25_34  and  C26_36
REMARK   10  A    between atoms: C26_36  and  C27_37
REMARK   11  A    between atoms: C27_37  and  C28_38
REMARK   12  A    between atoms: C28_38  and  C29_40
REMARK       I    between atoms: C29_40  and  N5_42
REMARK   13  A    between atoms: N5_42  and  C30_44
REMARK   14  A    between atoms: C30_44  and  C31_45
REMARK   15  A    between atoms: C31_45  and  C32_46
REMARK   16  A    between atoms: C32_46  and  N6_47
ROOT
HETATM    1  C19 UNL     1      19.775  -1.653  17.465  1.00  0.00     0.095 A
HETATM    2  C23 UNL     1      20.132  -2.869  18.295  1.00  0.00     0.040 A
HETATM    3  C24 UNL     1      21.196  -1.973  17.763  1.00  0.00     0.081 A
ENDROOT
BRANCH   1   4
HETATM    4  C18 UNL     1      19.241  -0.480  18.247  1.00  0.00     0.234 C
HETATM    5  N2  UNL     1      17.932  -0.377  18.682  1.00  0.00    -0.352 N
ATOM      6  H2  UNL     1      17.261  -1.119  18.481  1.00  0.00     0.163 HD
HETATM    7  O2  UNL     1      20.116   0.435  18.487  1.00  0.00    -0.272 OA
BRANCH   5   8
HETATM    8  C15 UNL     1      17.522   0.812  19.435  1.00  0.00     0.025 C
HETATM    9  C16 UNL     1      16.046   0.646  19.720  1.00  0.00     0.038 C
HETATM   10  C17 UNL     1      17.695   2.051  18.583  1.00  0.00     0.038 C
BRANCH   8  11
HETATM   11  C14 UNL     1      18.244   0.949  20.750  1.00  0.00     0.031 C
BRANCH  11  12
HETATM   12  C13 UNL     1      18.903   2.282  20.938  1.00  0.00     0.012 C
BRANCH  12  13
HETATM   13  C12 UNL     1      18.717   2.833  22.343  1.00  0.00    -0.038 C
HETATM   14  C11 UNL     1      19.994   3.556  22.672  1.00  0.00     0.035 C
HETATM   15  C10 UNL     1      20.360   3.645  24.099  1.00  0.00     0.088 C
HETATM   16  N1  UNL     1      20.010   4.953  24.690  1.00  0.00    -0.343 N
HETATM   17  C9  UNL     1      19.786   2.606  24.994  1.00  0.00     0.030 C
HETATM   18  C4  UNL     1      18.778   5.664  24.747  1.00  0.00     0.220 C
HETATM   19  O1  UNL     1      18.841   6.600  25.576  1.00  0.00    -0.273 OA
HETATM   20  C5  UNL     1      17.457   5.613  24.110  1.00  0.00     0.107 C
HETATM   21  C6  UNL     1      17.075   4.175  23.715  1.00  0.00    -0.005 C
HETATM   22  C7  UNL     1      17.365   3.288  24.856  1.00  0.00     0.009 C
HETATM   23  C35 UNL     1      17.598   3.825  22.391  1.00  0.00     0.014 C
HETATM   24  C8  UNL     1      18.370   2.204  24.641  1.00  0.00    -0.012 C
HETATM   25  C36 UNL     1      18.397   1.680  23.228  1.00  0.00     0.014 C
BRANCH  16  26
HETATM   26  C2  UNL     1      21.135   5.616  25.317  1.00  0.00     0.079 C
HETATM   27  C1  UNL     1      22.181   6.063  24.328  1.00  0.00     0.032 C
HETATM   28  C3  UNL     1      21.740   4.808  26.449  1.00  0.00     0.032 C
ENDBRANCH  16  26
ENDBRANCH  12  13
ENDBRANCH  11  12
ENDBRANCH   8  11
ENDBRANCH   5   8
ENDBRANCH   1   4
BRANCH   1  29
HETATM   29  C20 UNL     1      19.153  -1.870  16.156  1.00  0.00     0.044 A
HETATM   30  C21 UNL     1      19.627  -1.377  14.975  1.00  0.00     0.115 A
HETATM   31  N3  UNL     1      18.811  -1.737  13.983  1.00  0.00    -0.360 N
HETATM   32  C22 UNL     1      17.838  -2.448  14.548  1.00  0.00     0.180 A
ATOM     33  H3  UNL     1      18.913  -1.512  12.993  1.00  0.00     0.166 HD
HETATM   34  N4  UNL     1      18.012  -2.550  15.869  1.00  0.00    -0.353 N
ATOM     35  H4  UNL     1      17.409  -3.042  16.530  1.00  0.00     0.166 HD
ENDBRANCH   1  29
BRANCH   3  36
HETATM   36  C25 UNL     1      22.147  -2.446  16.784  1.00  0.00     0.133 C
HETATM   37  O3  UNL     1      22.814  -1.548  16.181  1.00  0.00    -0.298 OA
BRANCH  36  38
HETATM   38  C26 UNL     1      22.452  -3.828  16.396  1.00  0.00     0.086 C
BRANCH  38  39
HETATM   39  C27 UNL     1      22.229  -4.022  14.881  1.00  0.00     0.096 C
BRANCH  39  40
HETATM   40  C28 UNL     1      21.524  -5.333  14.735  1.00  0.00     0.216 C
HETATM   41  O4  UNL     1      22.111  -6.424  14.965  1.00  0.00    -0.287 OA
BRANCH  40  42
HETATM   42  C29 UNL     1      20.138  -5.364  14.321  1.00  0.00     0.287 C
HETATM   43  O5  UNL     1      19.246  -5.329  15.208  1.00  0.00    -0.264 OA
HETATM   44  N5  UNL     1      19.825  -5.432  12.932  1.00  0.00    -0.354 N
ATOM     45  H5  UNL     1      20.560  -5.462  12.225  1.00  0.00     0.162 HD
BRANCH  44  46
HETATM   46  C30 UNL     1      18.454  -5.458  12.568  1.00  0.00     0.125 C
BRANCH  46  47
HETATM   47  C31 UNL     1      17.823  -6.761  12.250  1.00  0.00     0.050 C
BRANCH  47  48
HETATM   48  C32 UNL     1      16.350  -6.832  12.200  1.00  0.00     0.273 C
BRANCH  48  49
HETATM   49  N6  UNL     1      15.681  -7.506  13.275  1.00  0.00     0.080 N
HETATM   50  C33 UNL     1      16.311  -8.829  13.501  1.00  0.00     0.309 C
HETATM   51  C34 UNL     1      15.861  -6.740  14.539  1.00  0.00     0.309 C
ENDBRANCH  48  49
ENDBRANCH  47  48
ENDBRANCH  46  47
ENDBRANCH  44  46
ENDBRANCH  40  42
ENDBRANCH  39  40
ENDBRANCH  38  39
ENDBRANCH  36  38
ENDBRANCH   3  36
TORSDOF 16
ENDMDL