MODEL 2
REMARK VINA RESULT: -9.248766563      2.462      9.787
REMARK  17 active torsions:
REMARK  status: ('A' for Active; 'I' for Inactive)
REMARK    1  A    between atoms: C2_2  and  N1_5
REMARK    2  A    between atoms: N1_5  and  C5_6
REMARK    3  A    between atoms: N1_5  and  S1_12
REMARK    4  A    between atoms: S1_12  and  C11_15
REMARK    5  A    between atoms: C11_15  and  C12_16
REMARK       I    between atoms: C12_16  and  N2_18
REMARK    6  A    between atoms: N2_18  and  C13_20
REMARK    7  A    between atoms: C13_20  and  C14_21
REMARK    8  A    between atoms: C13_20  and  C16_25
REMARK    9  A    between atoms: C14_21  and  C15_22
REMARK       I    between atoms: C16_25  and  N3_27
REMARK   10  A    between atoms: N3_27  and  C17_29
REMARK   11  A    between atoms: C17_29  and  C18_30
REMARK   12  A    between atoms: C17_29  and  C25_37
REMARK   13  A    between atoms: C18_30  and  C19_31
REMARK   14  A    between atoms: C25_37  and  C26_39
REMARK   15  A    between atoms: C26_39  and  O8_40
REMARK   16  A    between atoms: C26_39  and  C27_42
REMARK   17  A    between atoms: C27_42  and  C28_43
ROOT
HETATM    1  C13 UNL     1      17.240  -4.134  15.147  1.00  0.00     0.186 C
ENDROOT
BRANCH   1   2
HETATM    2  N2  UNL     1      17.435  -2.955  15.945  1.00  0.00    -0.346 N
HETATM    3  C12 UNL     1      18.196  -1.850  15.443  1.00  0.00     0.234 C
HETATM    4  O3  UNL     1      18.679  -1.993  14.268  1.00  0.00    -0.272 OA
ATOM      5  H2  UNL     1      17.029  -2.905  16.879  1.00  0.00     0.163 HD
BRANCH   3   6
HETATM    6  C11 UNL     1      18.440  -0.595  16.187  1.00  0.00     0.265 C
BRANCH   6   7
HETATM    7  S1  UNL     1      18.650  -0.842  17.924  1.00  0.00     0.238 S
HETATM    8  O1  UNL     1      17.297  -1.015  18.544  1.00  0.00    -0.205 OA
HETATM    9  O2  UNL     1      19.369  -2.188  18.015  1.00  0.00    -0.205 OA
BRANCH   7  10
HETATM   10  N1  UNL     1      19.590   0.391  18.650  1.00  0.00    -0.297 N
BRANCH  10  11
HETATM   11  C2  UNL     1      18.879   1.490  19.122  1.00  0.00     0.032 C
HETATM   12  C1  UNL     1      19.809   2.677  19.326  1.00  0.00     0.038 C
HETATM   13  C3  UNL     1      17.847   2.043  18.123  1.00  0.00     0.038 C
HETATM   14  C4  UNL     1      18.212   1.286  20.487  1.00  0.00     0.038 C
ENDBRANCH  10  11
BRANCH  10  15
HETATM   15  C5  UNL     1      20.922   0.428  18.264  1.00  0.00     0.101 C
HETATM   16  C6  UNL     1      21.246   0.174  16.826  1.00  0.00     0.027 C
HETATM   17  C7  UNL     1      22.772   0.400  16.836  1.00  0.00     0.007 C
HETATM   18  C8  UNL     1      23.134  -0.503  18.006  1.00  0.00    -0.008 A
HETATM   19  C9  UNL     1      23.331   0.212  19.268  1.00  0.00     0.012 A
HETATM   20  C10 UNL     1      21.924  -0.402  18.980  1.00  0.00     0.013 A
ENDBRANCH  10  15
ENDBRANCH   7  10
ENDBRANCH   6   7
ENDBRANCH   3   6
ENDBRANCH   1   2
BRANCH   1  21
HETATM   21  C14 UNL     1      16.330  -3.854  14.003  1.00  0.00     0.148 C
BRANCH  21  22
HETATM   22  C15 UNL     1      15.689  -5.041  13.434  1.00  0.00     0.175 C
HETATM   23  O4  UNL     1      15.555  -5.198  12.206  1.00  0.00    -0.648 OA
HETATM   24  O5  UNL     1      15.174  -6.092  14.227  1.00  0.00    -0.648 OA
ENDBRANCH  21  22
ENDBRANCH   1  21
BRANCH   1  25
HETATM   25  C16 UNL     1      18.490  -4.823  14.808  1.00  0.00     0.245 C
HETATM   26  O6  UNL     1      19.097  -5.454  15.682  1.00  0.00    -0.271 OA
HETATM   27  N3  UNL     1      19.041  -4.801  13.475  1.00  0.00    -0.326 N
ATOM     28  H3  UNL     1      18.550  -4.276  12.751  1.00  0.00     0.168 HD
BRANCH  27  29
HETATM   29  C17 UNL     1      20.241  -5.482  13.129  1.00  0.00     0.061 C
BRANCH  29  30
HETATM   30  C18 UNL     1      21.423  -4.749  12.708  1.00  0.00     0.065 C
BRANCH  30  31
HETATM   31  C19 UNL     1      22.501  -4.554  13.721  1.00  0.00    -0.009 C
HETATM   32  C20 UNL     1      22.417  -5.555  14.830  1.00  0.00     0.005 C
HETATM   33  C21 UNL     1      23.214  -5.017  16.029  1.00  0.00     0.000 C
HETATM   34  C22 UNL     1      22.458  -3.882  16.631  1.00  0.00     0.000 C
HETATM   35  C23 UNL     1      21.714  -3.101  15.540  1.00  0.00     0.000 C
HETATM   36  C24 UNL     1      22.504  -3.134  14.266  1.00  0.00     0.005 C
ENDBRANCH  30  31
ENDBRANCH  29  30
BRANCH  29  37
HETATM   37  C25 UNL     1      19.945  -6.693  12.273  1.00  0.00     0.200 C
HETATM   38  O7  UNL     1      20.040  -6.547  11.062  1.00  0.00    -0.288 OA
BRANCH  37  39
HETATM   39  C26 UNL     1      19.552  -8.012  12.798  1.00  0.00     0.194 C
BRANCH  39  40
HETATM   40  O8  UNL     1      19.862  -7.999  14.195  1.00  0.00    -0.388 OA
ATOM     41  H8  UNL     1      19.035  -7.900  14.652  1.00  0.00     0.210 HD
ENDBRANCH  39  40
BRANCH  39  42
HETATM   42  C27 UNL     1      18.046  -8.186  12.777  1.00  0.00     0.044 C
BRANCH  42  43
HETATM   43  C28 UNL     1      17.652  -9.580  13.193  1.00  0.00    -0.012 C
HETATM   44  C29 UNL     1      16.243  -9.709  13.693  1.00  0.00     0.005 C
HETATM   45  C30 UNL     1      15.851 -11.188  13.471  1.00  0.00     0.000 C
HETATM   46  C31 UNL     1      15.421 -11.281  12.020  1.00  0.00     0.000 C
HETATM   47  C32 UNL     1      16.488 -10.571  11.209  1.00  0.00     0.000 C
HETATM   48  C33 UNL     1      17.813 -10.507  11.980  1.00  0.00     0.005 C
ENDBRANCH  42  43
ENDBRANCH  39  42
ENDBRANCH  37  39
ENDBRANCH  29  37
ENDBRANCH  27  29
ENDBRANCH   1  25
TORSDOF 17
ENDMDL