MODEL 3
REMARK VINA RESULT: -8.814049635      1.207      1.466
REMARK  18 active torsions:
REMARK  status: ('A' for Active; 'I' for Inactive)
REMARK    1  A    between atoms: C2_2  and  C3_3
REMARK    2  A    between atoms: C5_5  and  N1_6
REMARK    3  A    between atoms: C5_5  and  C29_41
REMARK       I    between atoms: N1_6  and  C6_8
REMARK    4  A    between atoms: C6_8  and  C7_10
REMARK    5  A    between atoms: C8_11  and  O2_12
REMARK    6  A    between atoms: N2_17  and  C13_18
REMARK    7  A    between atoms: C13_18  and  O3_19
REMARK    8  A    between atoms: C13_18  and  C14_21
REMARK    9  A    between atoms: C14_21  and  C15_22
REMARK   10  A    between atoms: C14_21  and  N3_29
REMARK   11  A    between atoms: C15_22  and  C16_23
REMARK   12  A    between atoms: C16_23  and  C17_24
REMARK   13  A    between atoms: C17_24  and  C18_25
REMARK   14  A    between atoms: C18_25  and  C19_26
REMARK   15  A    between atoms: C19_26  and  C20_27
REMARK       I    between atoms: N3_29  and  C22_31
REMARK       I    between atoms: C22_31  and  N4_33
REMARK   16  A    between atoms: N4_33  and  C23_35
REMARK       I    between atoms: C29_41  and  N5_43
REMARK   17  A    between atoms: N5_43  and  S1_45
REMARK   18  A    between atoms: S1_45  and  C30_48
ROOT
HETATM    1  C7  UNL     1      21.202   1.712  18.732  1.00  0.00     0.111 C
HETATM    2  C8  UNL     1      22.569   1.558  19.389  1.00  0.00     0.176 C
HETATM    3  C10 UNL     1      22.896   0.046  19.290  1.00  0.00     0.040 C
HETATM    4  C11 UNL     1      23.226  -0.204  17.833  1.00  0.00     0.023 C
HETATM    5  C12 UNL     1      22.091   0.338  16.997  1.00  0.00     0.131 C
HETATM    6  N2  UNL     1      20.894   0.578  17.940  1.00  0.00    -0.326 N
ENDROOT
BRANCH   6   7
HETATM    7  C13 UNL     1      19.911  -0.364  17.800  1.00  0.00     0.141 C
BRANCH   7   8
HETATM    8  O3  UNL     1      19.193  -0.551  18.907  1.00  0.00    -0.348 OA
ATOM      9  H3  UNL     1      18.940   0.258  19.337  1.00  0.00     0.219 HD
ENDBRANCH   7   8
BRANCH   7  10
HETATM   10  C14 UNL     1      19.436  -1.233  16.729  1.00  0.00     0.161 C
BRANCH  10  11
HETATM   11  C15 UNL     1      17.948  -1.567  16.902  1.00  0.00     0.034 C
BRANCH  11  12
HETATM   12  C16 UNL     1      17.551  -2.825  16.189  1.00  0.00     0.002 C
BRANCH  12  13
HETATM   13  C17 UNL     1      16.976  -2.496  14.801  1.00  0.00     0.000 C
BRANCH  13  14
HETATM   14  C18 UNL     1      15.811  -3.434  14.526  1.00  0.00     0.000 C
BRANCH  14  15
HETATM   15  C19 UNL     1      16.271  -4.713  13.901  1.00  0.00    -0.000 C
BRANCH  15  16
HETATM   16  C20 UNL     1      15.214  -5.333  13.022  1.00  0.00    -0.005 C
HETATM   17  C21 UNL     1      14.676  -6.626  13.547  1.00  0.00     0.005 C
ENDBRANCH  15  16
ENDBRANCH  14  15
ENDBRANCH  13  14
ENDBRANCH  12  13
ENDBRANCH  11  12
ENDBRANCH  10  11
BRANCH  10  18
HETATM   18  N3  UNL     1      20.074  -2.570  16.807  1.00  0.00    -0.331 N
HETATM   19  C22 UNL     1      21.021  -3.008  15.846  1.00  0.00     0.317 C
HETATM   20  O4  UNL     1      21.297  -2.176  14.915  1.00  0.00    -0.247 OA
HETATM   21  N4  UNL     1      21.658  -4.254  15.845  1.00  0.00    -0.339 N
ATOM     22  H4  UNL     1      21.442  -4.934  16.574  1.00  0.00     0.164 HD
ATOM     23  H3  UNL     1      19.824  -3.193  17.575  1.00  0.00     0.165 HD
BRANCH  21  24
HETATM   24  C23 UNL     1      22.618  -4.580  14.815  1.00  0.00     0.086 C
HETATM   25  C24 UNL     1      22.008  -4.678  13.453  1.00  0.00     0.025 C
HETATM   26  C25 UNL     1      21.198  -5.868  13.155  1.00  0.00     0.002 C
HETATM   27  C26 UNL     1      21.461  -7.100  13.923  1.00  0.00     0.000 C
HETATM   28  C27 UNL     1      22.293  -6.950  15.153  1.00  0.00     0.002 C
HETATM   29  C28 UNL     1      23.334  -5.889  15.071  1.00  0.00     0.025 C
ENDBRANCH  21  24
ENDBRANCH  10  18
ENDBRANCH   7  10
ENDBRANCH   6   7
BRANCH   1  30
HETATM   30  C6  UNL     1      20.265   2.365  19.591  1.00  0.00     0.268 C
HETATM   31  N1  UNL     1      20.006   1.844  20.898  1.00  0.00    -0.337 N
ATOM     32  H1  UNL     1      20.520   1.003  21.162  1.00  0.00     0.164 HD
HETATM   33  O1  UNL     1      19.613   3.391  19.316  1.00  0.00    -0.266 OA
BRANCH  31  34
HETATM   34  C5  UNL     1      19.106   2.374  21.875  1.00  0.00     0.122 A
HETATM   35  C3  UNL     1      18.415   1.271  22.716  1.00  0.00     0.048 A
HETATM   36  C4  UNL     1      17.629   2.190  21.872  1.00  0.00     0.053 A
BRANCH  35  37
HETATM   37  C2  UNL     1      18.438   1.410  24.191  1.00  0.00    -0.029 C
HETATM   38  C1  UNL     1      18.285   0.397  25.024  1.00  0.00     0.007 C
ENDBRANCH  35  37
BRANCH  34  39
HETATM   39  C29 UNL     1      19.592   3.551  22.688  1.00  0.00     0.260 C
HETATM   40  O5  UNL     1      18.820   4.536  22.749  1.00  0.00    -0.270 OA
HETATM   41  N5  UNL     1      20.814   3.622  23.364  1.00  0.00    -0.252 N
ATOM     42  H5  UNL     1      21.440   2.819  23.314  1.00  0.00     0.181 HD
BRANCH  41  43
HETATM   43  S1  UNL     1      21.320   4.991  24.279  1.00  0.00     0.240 S
HETATM   44  O6  UNL     1      21.314   6.252  23.469  1.00  0.00    -0.205 OA
HETATM   45  O7  UNL     1      22.730   4.750  24.733  1.00  0.00    -0.205 OA
BRANCH  43  46
HETATM   46  C30 UNL     1      20.327   5.264  25.711  1.00  0.00     0.072 C
HETATM   47  C31 UNL     1      19.684   3.984  26.212  1.00  0.00     0.033 C
HETATM   48  C32 UNL     1      21.293   5.694  26.826  1.00  0.00     0.033 C
HETATM   49  C33 UNL     1      19.338   6.380  25.554  1.00  0.00     0.033 C
ENDBRANCH  43  46
ENDBRANCH  41  43
ENDBRANCH  34  39
ENDBRANCH  31  34
ENDBRANCH   1  30
BRANCH   2  50
HETATM   50  O2  UNL     1      23.531   2.194  18.632  1.00  0.00    -0.384 OA
HETATM   51  C9  UNL     1      24.523   2.845  19.300  1.00  0.00     0.202 C
ENDBRANCH   2  50
TORSDOF 18
ENDMDL