MODEL 1
REMARK VINA RESULT: -6.347373709      0.000      0.000
REMARK  16 active torsions:
REMARK  status: ('A' for Active; 'I' for Inactive)
REMARK    1  A    between atoms: C2_2  and  C3_3
REMARK    2  A    between atoms: C3_3  and  C4_4
REMARK    3  A    between atoms: C4_4  and  C5_5
REMARK    4  A    between atoms: C5_5  and  C6_6
REMARK    5  A    between atoms: C6_6  and  C7_7
REMARK    6  A    between atoms: C7_7  and  C8_8
REMARK    7  A    between atoms: C10_12  and  C11_13
REMARK       I    between atoms: N1_14  and  C12_16
REMARK       I    between atoms: C12_16  and  N2_18
REMARK    8  A    between atoms: N2_18  and  C13_20
REMARK    9  A    between atoms: C13_20  and  C14_21
REMARK   10  A    between atoms: C14_21  and  C15_22
REMARK   11  A    between atoms: C15_22  and  C16_23
REMARK   12  A    between atoms: C18_27  and  C19_28
REMARK   13  A    between atoms: C19_28  and  C20_29
REMARK   14  A    between atoms: C23_32  and  O6_33
REMARK   15  A    between atoms: C24_37  and  C25_38
REMARK   16  A    between atoms: C25_38  and  C26_39
ROOT
HETATM    1  C8  UNL     1      19.411  -6.463  13.689  1.00  0.00     0.186 C
HETATM    2  C9  UNL     1      20.663  -7.260  13.595  1.00  0.00     0.282 C
HETATM    3  O1  UNL     1      21.552  -6.845  14.438  1.00  0.00    -0.263 OA
HETATM    4  O2  UNL     1      20.786  -8.261  12.729  1.00  0.00    -0.309 OA
HETATM    5  C10 UNL     1      20.662  -9.637  12.738  1.00  0.00     0.171 C
HETATM    6  C17 UNL     1      19.855 -10.228  13.819  1.00  0.00     0.051 C
HETATM    7  C18 UNL     1      18.758 -11.192  13.393  1.00  0.00     0.063 C
HETATM    8  C23 UNL     1      18.516 -11.111  11.927  1.00  0.00     0.116 C
HETATM    9  N3  UNL     1      17.736 -10.181  11.222  1.00  0.00    -0.361 N
ATOM     10  H3  UNL     1      18.287  -9.586  10.603  1.00  0.00     0.162 HD
HETATM   11  C24 UNL     1      16.351  -9.889  11.182  1.00  0.00     0.175 C
HETATM   12  C29 UNL     1      15.657  -9.748  12.478  1.00  0.00     0.241 C
HETATM   13  O7  UNL     1      15.129 -10.805  12.989  1.00  0.00    -0.271 OA
HETATM   14  N4  UNL     1      15.499  -8.567  13.238  1.00  0.00    -0.346 N
ATOM     15  H4  UNL     1      14.543  -8.325  13.497  1.00  0.00     0.163 HD
HETATM   16  C30 UNL     1      16.528  -7.664  13.691  1.00  0.00     0.172 C
HETATM   17  C31 UNL     1      15.927  -6.786  14.811  1.00  0.00     0.042 C
HETATM   18  C32 UNL     1      17.136  -6.831  12.646  1.00  0.00     0.242 C
HETATM   19  O8  UNL     1      16.334  -6.346  11.779  1.00  0.00    -0.271 OA
HETATM   20  N5  UNL     1      18.531  -6.555  12.573  1.00  0.00    -0.341 N
HETATM   21  C33 UNL     1      19.081  -6.334  11.250  1.00  0.00     0.153 C
ENDROOT
BRANCH   5  22
HETATM   22  C11 UNL     1      22.056 -10.208  12.858  1.00  0.00     0.098 C
HETATM   23  N1  UNL     1      22.255 -11.359  12.316  1.00  0.00    -0.320 N
HETATM   24  C12 UNL     1      23.471 -12.043  12.322  1.00  0.00     0.319 C
ATOM     25  H1  UNL     1      21.465 -11.803  11.847  1.00  0.00     0.169 HD
HETATM   26  O3  UNL     1      23.504 -13.291  12.375  1.00  0.00    -0.247 OA
HETATM   27  N2  UNL     1      24.687 -11.323  12.270  1.00  0.00    -0.343 N
ATOM     28  H2  UNL     1      24.664 -10.305  12.227  1.00  0.00     0.164 HD
BRANCH  27  29
HETATM   29  C13 UNL     1      25.985 -12.017  12.275  1.00  0.00     0.125 C
BRANCH  29  30
HETATM   30  C14 UNL     1      26.884 -11.547  11.190  1.00  0.00     0.030 C
BRANCH  30  31
HETATM   31  C15 UNL     1      26.212 -11.621   9.859  1.00  0.00     0.114 C
BRANCH  31  32
HETATM   32  C16 UNL     1      25.819 -10.305   9.380  1.00  0.00     0.172 C
HETATM   33  O4  UNL     1      26.557  -9.495   8.793  1.00  0.00    -0.648 OA
HETATM   34  O5  UNL     1      24.490  -9.869   9.580  1.00  0.00    -0.648 OA
ENDBRANCH  31  32
ENDBRANCH  30  31
ENDBRANCH  29  30
ENDBRANCH  27  29
ENDBRANCH   5  22
BRANCH   7  35
HETATM   35  C19 UNL     1      19.193 -12.596  13.739  1.00  0.00     0.016 C
BRANCH  35  36
HETATM   36  C20 UNL     1      18.136 -13.636  13.738  1.00  0.00    -0.022 C
HETATM   37  C21 UNL     1      18.741 -14.844  14.491  1.00  0.00     0.009 C
HETATM   38  C22 UNL     1      16.910 -13.236  14.529  1.00  0.00     0.009 C
ENDBRANCH  35  36
ENDBRANCH   7  35
BRANCH   1  39
HETATM   39  C7  UNL     1      19.766  -4.971  13.864  1.00  0.00     0.035 C
BRANCH  39  40
HETATM   40  C6  UNL     1      18.617  -4.150  14.329  1.00  0.00     0.002 C
BRANCH  40  41
HETATM   41  C5  UNL     1      18.559  -4.286  15.849  1.00  0.00     0.000 C
BRANCH  41  42
HETATM   42  C4  UNL     1      18.994  -3.007  16.514  1.00  0.00     0.000 C
BRANCH  42  43
HETATM   43  C3  UNL     1      20.107  -3.236  17.500  1.00  0.00    -0.000 C
BRANCH  43  44
HETATM   44  C2  UNL     1      21.419  -2.652  17.024  1.00  0.00    -0.005 C
HETATM   45  C1  UNL     1      22.293  -3.734  16.406  1.00  0.00     0.005 C
ENDBRANCH  43  44
ENDBRANCH  42  43
ENDBRANCH  41  42
ENDBRANCH  40  41
ENDBRANCH  39  40
ENDBRANCH   1  39
BRANCH   8  46
HETATM   46  O6  UNL     1      19.137 -12.048  11.261  1.00  0.00    -0.349 OA
ATOM     47  H6  UNL     1      19.220 -11.847  10.337  1.00  0.00     0.219 HD
ENDBRANCH   8  46
BRANCH  11  48
HETATM   48  C25 UNL     1      15.582 -10.885  10.287  1.00  0.00     0.038 C
BRANCH  48  49
HETATM   49  C26 UNL     1      16.162 -10.867   8.897  1.00  0.00    -0.020 C
HETATM   50  C27 UNL     1      15.141 -10.406   7.875  1.00  0.00     0.009 C
HETATM   51  C28 UNL     1      16.603 -12.282   8.488  1.00  0.00     0.009 C
ENDBRANCH  48  49
ENDBRANCH  11  48
TORSDOF 16
ENDMDL