MODEL 2
REMARK VINA RESULT: -9.831006246      2.100      2.803
REMARK  16 active torsions:
REMARK  status: ('A' for Active; 'I' for Inactive)
REMARK    1  A    between atoms: C2_2  and  C3_3
REMARK    2  A    between atoms: C5_5  and  C6_6
REMARK    3  A    between atoms: C6_6  and  C7_7
REMARK    4  A    between atoms: C6_6  and  N1_10
REMARK    5  A    between atoms: C7_7  and  O1_8
REMARK    6  A    between atoms: N1_10  and  C9_12
REMARK    7  A    between atoms: C9_12  and  C10_13
REMARK    8  A    between atoms: C9_12  and  C11_16
REMARK    9  A    between atoms: C10_13  and  O2_14
REMARK   10  A    between atoms: C11_16  and  C12_17
REMARK   11  A    between atoms: C21_26  and  C22_27
REMARK   12  A    between atoms: C22_27  and  O3_28
REMARK   13  A    between atoms: C24_34  and  C25_35
REMARK   14  A    between atoms: C25_35  and  N3_36
REMARK   15  A    between atoms: N3_36  and  S1_38
REMARK   16  A    between atoms: S1_38  and  C27_41
ROOT
HETATM    1  C3  UNL     1      21.667  -2.066  15.368  1.00  0.00    -0.002 C
HETATM    2  C4  UNL     1      22.188  -0.927  16.187  1.00  0.00     0.012 C
HETATM    3  C5  UNL     1      22.327  -1.238  17.650  1.00  0.00     0.011 C
HETATM    4  C18 UNL     1      21.054  -1.848  18.096  1.00  0.00     0.012 C
HETATM    5  C19 UNL     1      21.019  -3.241  17.487  1.00  0.00    -0.001 A
HETATM    6  C20 UNL     1      19.973  -3.543  16.509  1.00  0.00     0.019 A
HETATM    7  C21 UNL     1      21.384  -3.350  16.078  1.00  0.00     0.009 A
ENDROOT
BRANCH   7   8
HETATM    8  C22 UNL     1      22.192  -4.538  15.579  1.00  0.00     0.170 C
HETATM    9  C23 UNL     1      21.793  -5.852  16.098  1.00  0.00     0.283 C
HETATM   10  N2  UNL     1      21.093  -6.756  15.182  1.00  0.00    -0.049 N
HETATM   11  C24 UNL     1      21.959  -7.001  14.029  1.00  0.00     0.307 C
ATOM     12  H22 UNL     1      20.791  -7.618  15.636  1.00  0.00     0.279 HD
ATOM     13  H21 UNL     1      20.172  -6.409  14.915  1.00  0.00     0.279 HD
HETATM   14  N4  UNL     1      22.072  -5.700  13.331  1.00  0.00    -0.324 N
HETATM   15  C34 UNL     1      21.807  -5.509  11.937  1.00  0.00     0.155 C
HETATM   16  C35 UNL     1      22.462  -4.560  14.142  1.00  0.00     0.258 C
HETATM   17  O6  UNL     1      23.041  -3.640  13.469  1.00  0.00    -0.270 OA
BRANCH   8  18
HETATM   18  O3  UNL     1      23.486  -4.284  16.173  1.00  0.00    -0.378 OA
ATOM     19  H3  UNL     1      23.913  -5.127  16.074  1.00  0.00     0.211 HD
ENDBRANCH   8  18
BRANCH  11  20
HETATM   20  C25 UNL     1      21.376  -7.984  13.113  1.00  0.00     0.189 C
BRANCH  20  21
HETATM   21  N3  UNL     1      20.110  -8.523  13.472  1.00  0.00    -0.307 N
HETATM   22  C26 UNL     1      20.068  -9.882  13.877  1.00  0.00     0.163 C
BRANCH  21  23
HETATM   23  S1  UNL     1      18.797  -8.083  12.482  1.00  0.00     0.260 S
HETATM   24  O4  UNL     1      19.340  -7.626  11.149  1.00  0.00    -0.200 OA
HETATM   25  O5  UNL     1      17.800  -9.151  12.229  1.00  0.00    -0.200 OA
BRANCH  23  26
HETATM   26  C27 UNL     1      18.030  -6.677  13.248  1.00  0.00     0.079 A
HETATM   27  C28 UNL     1      16.949  -6.789  14.079  1.00  0.00     0.026 A
HETATM   28  C29 UNL     1      16.417  -5.645  14.674  1.00  0.00     0.008 A
HETATM   29  C30 UNL     1      16.942  -4.393  14.457  1.00  0.00    -0.062 A
HETATM   30  C31 UNL     1      16.397  -3.166  15.093  1.00  0.00     0.048 C
HETATM   31  C32 UNL     1      18.031  -4.284  13.617  1.00  0.00     0.008 A
HETATM   32  C33 UNL     1      18.563  -5.418  13.024  1.00  0.00     0.026 A
ENDBRANCH  23  26
ENDBRANCH  21  23
ENDBRANCH  20  21
ENDBRANCH  11  20
ENDBRANCH   7   8
BRANCH   1  33
HETATM   33  C2  UNL     1      20.453  -1.632  14.541  1.00  0.00     0.001 C
HETATM   34  C1  UNL     1      20.206  -0.168  14.836  1.00  0.00     0.005 C
ENDBRANCH   1  33
BRANCH   3  35
HETATM   35  C6  UNL     1      22.725   0.056  18.387  1.00  0.00     0.109 C
BRANCH  35  36
HETATM   36  C7  UNL     1      24.093   0.431  17.829  1.00  0.00     0.192 C
BRANCH  36  37
HETATM   37  O1  UNL     1      24.921   0.804  18.892  1.00  0.00    -0.394 OA
HETATM   38  C8  UNL     1      25.204   2.150  18.894  1.00  0.00     0.201 C
ENDBRANCH  36  37
ENDBRANCH  35  36
BRANCH  35  39
HETATM   39  N1  UNL     1      21.740   1.010  18.171  1.00  0.00    -0.385 N
ATOM     40  H1  UNL     1      21.411   1.141  17.214  1.00  0.00     0.160 HD
BRANCH  39  41
HETATM   41  C9  UNL     1      21.157   1.816  19.181  1.00  0.00     0.025 C
BRANCH  41  42
HETATM   42  C10 UNL     1      21.687   3.178  19.330  1.00  0.00     0.220 C
BRANCH  42  43
HETATM   43  O2  UNL     1      21.214   4.156  18.496  1.00  0.00    -0.395 OA
ATOM     44  H2  UNL     1      20.607   4.796  18.848  1.00  0.00     0.209 HD
ENDBRANCH  42  43
ENDBRANCH  41  42
BRANCH  41  45
HETATM   45  C11 UNL     1      19.724   1.584  19.421  1.00  0.00     0.005 C
BRANCH  45  46
HETATM   46  C12 UNL     1      18.683   1.768  18.387  1.00  0.00     0.010 C
HETATM   47  C13 UNL     1      17.422   2.304  19.140  1.00  0.00     0.008 C
HETATM   48  C14 UNL     1      16.300   1.344  19.203  1.00  0.00     0.001 C
HETATM   49  C15 UNL     1      16.684  -0.076  19.502  1.00  0.00     0.000 C
HETATM   50  C16 UNL     1      17.657  -0.552  18.468  1.00  0.00     0.001 C
HETATM   51  C17 UNL     1      18.165   0.595  17.644  1.00  0.00     0.008 C
ENDBRANCH  45  46
ENDBRANCH  41  45
ENDBRANCH  39  41
ENDBRANCH  35  39
ENDBRANCH   3  35
TORSDOF 16
ENDMDL