MODEL 5
REMARK VINA RESULT: -7.705041003      1.252      1.863
REMARK  17 active torsions:
REMARK  status: ('A' for Active; 'I' for Inactive)
REMARK    1  A    between atoms: C2_2  and  C3_3
REMARK    2  A    between atoms: C3_3  and  C4_4
REMARK    3  A    between atoms: C4_4  and  C5_5
REMARK    4  A    between atoms: C5_5  and  C32_46
REMARK    5  A    between atoms: C6_6  and  C7_7
REMARK    6  A    between atoms: C7_7  and  N1_8
REMARK    7  A    between atoms: C13_19  and  C14_20
REMARK    8  A    between atoms: C18_27  and  C19_28
REMARK    9  A    between atoms: C19_28  and  S1_29
REMARK   10  A    between atoms: S1_29  and  C20_30
REMARK   11  A    between atoms: C20_30  and  C21_31
REMARK   12  A    between atoms: C21_31  and  C22_32
REMARK   13  A    between atoms: C26_39  and  C27_40
REMARK   14  A    between atoms: C27_40  and  C28_41
REMARK   15  A    between atoms: C32_46  and  C33_47
REMARK   16  A    between atoms: C33_47  and  C34_48
REMARK   17  A    between atoms: C34_48  and  N5_49
ROOT
HETATM    1  N1  UNL     1      19.113  -1.293  15.955  1.00  0.00    -0.283 N
HETATM    2  C8  UNL     1      18.391  -2.221  16.743  1.00  0.00     0.226 C
HETATM    3  O1  UNL     1      18.018  -1.833  17.900  1.00  0.00    -0.273 OA
HETATM    4  C9  UNL     1      18.031  -3.611  16.338  1.00  0.00     0.105 C
HETATM    5  C10 UNL     1      16.582  -3.699  15.855  1.00  0.00     0.036 C
HETATM    6  C11 UNL     1      16.594  -3.426  14.369  1.00  0.00     0.181 C
HETATM    7  O2  UNL     1      15.786  -4.407  13.744  1.00  0.00    -0.304 OA
HETATM    8  C12 UNL     1      16.176  -5.144  12.647  1.00  0.00     0.361 C
HETATM    9  O3  UNL     1      15.299  -5.275  11.714  1.00  0.00    -0.238 OA
HETATM   10  N2  UNL     1      17.419  -5.757  12.450  1.00  0.00    -0.323 N
ATOM     11  H2  UNL     1      17.823  -5.655  11.519  1.00  0.00     0.165 HD
HETATM   12  C13 UNL     1      18.195  -6.508  13.386  1.00  0.00     0.182 C
HETATM   13  C17 UNL     1      19.512  -6.935  12.783  1.00  0.00     0.245 C
HETATM   14  O4  UNL     1      19.640  -6.738  11.553  1.00  0.00    -0.271 OA
HETATM   15  N3  UNL     1      20.478  -7.503  13.574  1.00  0.00    -0.331 N
ATOM     16  H3  UNL     1      20.515  -8.516  13.458  1.00  0.00     0.168 HD
HETATM   17  C18 UNL     1      21.332  -7.095  14.408  1.00  0.00     0.007 C
HETATM   18  C24 UNL     1      21.538  -5.687  14.804  1.00  0.00     0.156 C
HETATM   19  C25 UNL     1      21.703  -4.742  13.691  1.00  0.00     0.223 C
HETATM   20  O5  UNL     1      22.337  -5.068  12.623  1.00  0.00    -0.273 OA
HETATM   21  N4  UNL     1      21.162  -3.425  13.766  1.00  0.00    -0.347 N
ATOM     22  H4  UNL     1      20.791  -3.012  12.910  1.00  0.00     0.163 HD
HETATM   23  C26 UNL     1      21.104  -2.643  14.973  1.00  0.00     0.177 C
HETATM   24  C31 UNL     1      20.016  -1.634  14.913  1.00  0.00     0.249 C
HETATM   25  O6  UNL     1      19.866  -0.998  13.815  1.00  0.00    -0.271 OA
ENDROOT
BRANCH   1  26
HETATM   26  C7  UNL     1      18.891   0.142  16.253  1.00  0.00     0.162 C
BRANCH  26  27
HETATM   27  C6  UNL     1      19.642   0.624  17.395  1.00  0.00    -0.004 C
HETATM   28  C5  UNL     1      19.260   1.496  18.293  1.00  0.00    -0.082 C
BRANCH  28  29
HETATM   29  C4  UNL     1      20.164   1.900  19.437  1.00  0.00     0.037 C
BRANCH  29  30
HETATM   30  C3  UNL     1      21.580   1.448  19.232  1.00  0.00     0.030 C
BRANCH  30  31
HETATM   31  C2  UNL     1      22.495   2.627  19.325  1.00  0.00    -0.037 C
HETATM   32  C1  UNL     1      23.776   2.583  19.007  1.00  0.00     0.007 C
ENDBRANCH  30  31
ENDBRANCH  29  30
ENDBRANCH  28  29
BRANCH  28  33
HETATM   33  C32 UNL     1      17.944   2.147  18.277  1.00  0.00     0.035 C
BRANCH  33  34
HETATM   34  C33 UNL     1      17.217   2.011  19.603  1.00  0.00     0.031 C
BRANCH  34  35
HETATM   35  C34 UNL     1      16.028   1.080  19.334  1.00  0.00     0.230 C
BRANCH  35  36
HETATM   36  N5  UNL     1      16.445  -0.248  19.754  1.00  0.00    -0.079 N
ATOM     37  H53 UNL     1      16.819  -0.815  18.992  1.00  0.00     0.274 HD
ATOM     38  H52 UNL     1      17.285  -0.245  20.332  1.00  0.00     0.274 HD
ATOM     39  H51 UNL     1      15.638  -0.671  20.214  1.00  0.00     0.274 HD
ENDBRANCH  35  36
ENDBRANCH  34  35
ENDBRANCH  33  34
ENDBRANCH  28  33
ENDBRANCH  26  27
ENDBRANCH   1  26
BRANCH  23  40
HETATM   40  C27 UNL     1      22.356  -1.894  15.316  1.00  0.00     0.038 C
BRANCH  40  41
HETATM   41  C28 UNL     1      22.373  -1.114  16.573  1.00  0.00    -0.020 C
HETATM   42  C29 UNL     1      23.675  -0.421  16.857  1.00  0.00     0.009 C
HETATM   43  C30 UNL     1      22.113  -2.018  17.787  1.00  0.00     0.009 C
ENDBRANCH  40  41
ENDBRANCH  23  40
BRANCH  17  44
HETATM   44  C19 UNL     1      22.200  -8.149  15.042  1.00  0.00     0.126 C
BRANCH  44  45
HETATM   45  S1  UNL     1      21.399  -9.726  15.130  1.00  0.00    -0.163 SA
BRANCH  45  46
HETATM   46  C20 UNL     1      22.247 -11.085  14.333  1.00  0.00     0.074 C
BRANCH  46  47
HETATM   47  C21 UNL     1      22.318 -10.787  12.835  1.00  0.00     0.010 C
BRANCH  47  48
HETATM   48  C22 UNL     1      23.657 -11.094  12.252  1.00  0.00    -0.004 C
HETATM   49  C23 UNL     1      23.785 -10.809  10.787  1.00  0.00     0.005 C
ENDBRANCH  47  48
ENDBRANCH  46  47
ENDBRANCH  45  46
ENDBRANCH  44  45
ENDBRANCH  17  44
BRANCH  12  50
HETATM   50  C14 UNL     1      17.486  -7.834  13.687  1.00  0.00     0.009 C
HETATM   51  C15 UNL     1      16.243  -7.674  14.492  1.00  0.00     0.012 C
HETATM   52  C16 UNL     1      17.111  -8.516  12.367  1.00  0.00     0.012 C
ENDBRANCH  12  50
TORSDOF 17
ENDMDL