MODEL 2
REMARK VINA RESULT: -9.008268007      0.928      1.565
REMARK  19 active torsions:
REMARK  status: ('A' for Active; 'I' for Inactive)
REMARK    1  A    between atoms: C2_2  and  N1_3
REMARK    2  A    between atoms: N2_11  and  C9_12
REMARK    3  A    between atoms: C9_12  and  O2_14
REMARK    4  A    between atoms: C9_12  and  C11_16
REMARK    5  A    between atoms: C11_16  and  N3_17
REMARK    6  A    between atoms: C11_16  and  C28_42
REMARK    7  A    between atoms: N3_17  and  C12_19
REMARK    8  A    between atoms: C12_19  and  C13_20
REMARK    9  A    between atoms: C13_20  and  C14_21
REMARK   10  A    between atoms: C14_21  and  C15_22
REMARK   11  A    between atoms: C15_22  and  C16_23
REMARK   12  A    between atoms: C16_23  and  N4_24
REMARK   13  A    between atoms: C16_23  and  C17_28
REMARK   14  A    between atoms: C17_28  and  C18_29
REMARK       I    between atoms: C18_29  and  N5_31
REMARK   15  A    between atoms: N6_34  and  C21_35
REMARK   16  A    between atoms: C21_35  and  C22_36
REMARK   17  A    between atoms: C22_36  and  C23_37
REMARK   18  A    between atoms: C31_45  and  C32_46
REMARK   19  A    between atoms: C32_46  and  N7_47
ROOT
HETATM    1  C11 UNL     1      19.995  -2.666  16.043  1.00  0.00     0.169 C
ENDROOT
BRANCH   1   2
HETATM    2  C9  UNL     1      20.809  -2.429  17.241  1.00  0.00     0.157 C
HETATM    3  C10 UNL     1      22.219  -2.971  17.145  1.00  0.00     0.074 C
BRANCH   2   4
HETATM    4  N2  UNL     1      20.742  -1.175  17.928  1.00  0.00    -0.314 N
HETATM    5  C8  UNL     1      19.487  -0.577  18.225  1.00  0.00     0.228 C
HETATM    6  C7  UNL     1      19.272   0.896  18.088  1.00  0.00     0.161 C
HETATM    7  O1  UNL     1      18.519  -1.246  18.611  1.00  0.00    -0.273 OA
HETATM    8  C6  UNL     1      20.425   1.606  18.710  1.00  0.00     0.029 A
HETATM    9  N1  UNL     1      20.572   2.811  19.237  1.00  0.00    -0.353 N
HETATM   10  C5  UNL     1      21.615   0.950  18.802  1.00  0.00    -0.009 A
HETATM   11  C3  UNL     1      21.831   2.977  19.679  1.00  0.00     0.018 A
HETATM   12  C4  UNL     1      22.527   1.816  19.421  1.00  0.00    -0.025 A
HETATM   13  C38 UNL     1      22.726   3.981  20.349  1.00  0.00     0.058 C
HETATM   14  C36 UNL     1      23.929   1.996  19.913  1.00  0.00     0.041 C
HETATM   15  C37 UNL     1      24.096   3.480  20.031  1.00  0.00     0.011 C
HETATM   16  C35 UNL     1      21.918  -0.411  18.341  1.00  0.00     0.170 C
BRANCH   9  17
HETATM   17  C2  UNL     1      19.479   3.788  19.302  1.00  0.00     0.124 C
HETATM   18  C1  UNL     1      18.531   3.491  20.428  1.00  0.00     0.027 C
ENDBRANCH   9  17
ENDBRANCH   2   4
BRANCH   2  19
HETATM   19  O2  UNL     1      20.217  -3.342  18.200  1.00  0.00    -0.369 OA
ATOM     20  H2  UNL     1      20.873  -4.027  18.261  1.00  0.00     0.212 HD
ENDBRANCH   2  19
ENDBRANCH   1   2
BRANCH   1  21
HETATM   21  N3  UNL     1      18.658  -3.030  16.074  1.00  0.00    -0.389 N
ATOM     22  H3  UNL     1      18.357  -3.714  16.769  1.00  0.00     0.159 HD
BRANCH  21  23
HETATM   23  C12 UNL     1      17.695  -2.500  15.193  1.00  0.00     0.056 C
BRANCH  23  24
HETATM   24  C13 UNL     1      16.610  -3.444  14.760  1.00  0.00     0.044 C
BRANCH  24  25
HETATM   25  C14 UNL     1      16.784  -4.841  15.246  1.00  0.00     0.007 C
BRANCH  25  26
HETATM   26  C15 UNL     1      15.991  -5.917  14.693  1.00  0.00     0.037 C
BRANCH  26  27
HETATM   27  C16 UNL     1      15.218  -5.826  13.434  1.00  0.00     0.211 C
BRANCH  27  28
HETATM   28  N4  UNL     1      14.137  -6.907  13.498  1.00  0.00    -0.072 N
ATOM     29  H43 UNL     1      14.338  -7.634  14.185  1.00  0.00     0.275 HD
ATOM     30  H42 UNL     1      13.264  -6.578  13.910  1.00  0.00     0.275 HD
ATOM     31  H41 UNL     1      14.023  -7.268  12.551  1.00  0.00     0.275 HD
ENDBRANCH  27  28
BRANCH  27  32
HETATM   32  C17 UNL     1      15.890  -6.215  12.156  1.00  0.00     0.079 C
BRANCH  32  33
HETATM   33  C18 UNL     1      17.274  -6.580  12.086  1.00  0.00     0.241 C
HETATM   34  O3  UNL     1      18.205  -5.769  11.969  1.00  0.00    -0.269 OA
HETATM   35  N5  UNL     1      17.640  -7.961  12.153  1.00  0.00    -0.346 N
HETATM   36  C19 UNL     1      16.687  -9.035  12.286  1.00  0.00     0.156 C
HETATM   37  C27 UNL     1      19.026  -8.327  12.091  1.00  0.00     0.156 C
HETATM   38  C20 UNL     1      16.956  -9.629  13.675  1.00  0.00     0.292 C
HETATM   39  N6  UNL     1      18.328 -10.006  13.737  1.00  0.00     0.091 N
HETATM   40  C26 UNL     1      19.126  -9.757  12.594  1.00  0.00     0.292 C
BRANCH  39  41
HETATM   41  C21 UNL     1      18.417 -11.320  14.273  1.00  0.00     0.273 C
BRANCH  41  42
HETATM   42  C22 UNL     1      17.097 -12.003  14.398  1.00  0.00     0.034 C
BRANCH  42  43
HETATM   43  C23 UNL     1      17.118 -13.314  13.623  1.00  0.00    -0.021 C
HETATM   44  C24 UNL     1      16.305 -13.110  12.361  1.00  0.00     0.009 C
HETATM   45  C25 UNL     1      16.480 -14.442  14.400  1.00  0.00     0.009 C
ENDBRANCH  42  43
ENDBRANCH  41  42
ENDBRANCH  39  41
ENDBRANCH  32  33
ENDBRANCH  27  32
ENDBRANCH  26  27
ENDBRANCH  25  26
ENDBRANCH  24  25
ENDBRANCH  23  24
ENDBRANCH  21  23
ENDBRANCH   1  21
BRANCH   1  46
HETATM   46  C28 UNL     1      20.689  -3.629  15.105  1.00  0.00    -0.031 A
HETATM   47  C29 UNL     1      21.648  -3.245  14.211  1.00  0.00     0.010 A
HETATM   48  C30 UNL     1      22.212  -4.192  13.387  1.00  0.00     0.009 A
HETATM   49  C31 UNL     1      21.856  -5.528  13.415  1.00  0.00    -0.033 A
HETATM   50  C33 UNL     1      20.889  -5.888  14.324  1.00  0.00     0.009 A
HETATM   51  C34 UNL     1      20.328  -4.949  15.143  1.00  0.00     0.010 A
BRANCH  49  52
HETATM   52  C32 UNL     1      22.493  -6.526  12.501  1.00  0.00     0.268 C
BRANCH  52  53
HETATM   53  N7  UNL     1      22.315  -7.872  13.007  1.00  0.00    -0.075 N
ATOM     54  H73 UNL     1      22.915  -8.541  12.524  1.00  0.00     0.274 HD
ATOM     55  H72 UNL     1      22.697  -7.975  13.948  1.00  0.00     0.274 HD
ATOM     56  H71 UNL     1      21.334  -8.148  12.966  1.00  0.00     0.274 HD
ENDBRANCH  52  53
ENDBRANCH  49  52
ENDBRANCH   1  46
TORSDOF 19
ENDMDL