MODEL 5
REMARK VINA RESULT: -9.369062868      2.671      9.577
REMARK  19 active torsions:
REMARK  status: ('A' for Active; 'I' for Inactive)
REMARK    1  A    between atoms: C2_2  and  C4_4
REMARK    2  A    between atoms: C4_4  and  O1_5
REMARK    3  A    between atoms: C4_4  and  C5_7
REMARK    4  A    between atoms: C5_7  and  O2_8
REMARK    5  A    between atoms: C5_7  and  C6_10
REMARK    6  A    between atoms: C6_10  and  C7_11
REMARK    7  A    between atoms: C6_10  and  N1_18
REMARK    8  A    between atoms: C7_11  and  C8_12
REMARK    9  A    between atoms: N1_18  and  C14_20
REMARK   10  A    between atoms: C14_20  and  O3_21
REMARK   11  A    between atoms: C14_20  and  C15_23
REMARK   12  A    between atoms: C15_23  and  C16_24
REMARK   13  A    between atoms: C15_23  and  N2_28
REMARK   14  A    between atoms: C16_24  and  C17_25
REMARK       I    between atoms: N2_28  and  C20_29
REMARK   15  A    between atoms: C20_29  and  C21_31
REMARK   16  A    between atoms: C21_31  and  N3_32
REMARK   17  A    between atoms: N4_35  and  C24_36
REMARK   18  A    between atoms: C24_36  and  C25_37
REMARK   19  A    between atoms: C25_37  and  N5_38
ROOT
HETATM    1  C15 UNL     1      18.937  -0.717  15.811  1.00  0.00     0.241 C
ENDROOT
BRANCH   1   2
HETATM    2  C14 UNL     1      20.129  -0.186  15.140  1.00  0.00     0.148 C
BRANCH   2   3
HETATM    3  N1  UNL     1      21.236   0.492  15.627  1.00  0.00    -0.365 N
ATOM      4  H1  UNL     1      21.676   1.243  15.097  1.00  0.00     0.161 HD
BRANCH   3   5
HETATM    5  C6  UNL     1      21.758   0.067  16.977  1.00  0.00     0.115 C
BRANCH   5   6
HETATM    6  C5  UNL     1      22.802  -1.013  16.607  1.00  0.00     0.169 C
BRANCH   6   7
HETATM    7  C4  UNL     1      22.561  -2.363  17.086  1.00  0.00     0.152 C
BRANCH   7   8
HETATM    8  C2  UNL     1      22.190  -3.463  16.172  1.00  0.00     0.009 C
HETATM    9  C1  UNL     1      22.156  -3.137  14.710  1.00  0.00     0.012 C
HETATM   10  C3  UNL     1      20.726  -3.828  16.533  1.00  0.00     0.012 C
ENDBRANCH   7   8
BRANCH   7  11
HETATM   11  O1  UNL     1      21.528  -2.266  18.055  1.00  0.00    -0.393 OA
ATOM     12  H1  UNL     1      20.781  -2.745  17.713  1.00  0.00     0.210 HD
ENDBRANCH   7  11
ENDBRANCH   6   7
BRANCH   6  13
HETATM   13  O2  UNL     1      24.091  -0.575  16.635  1.00  0.00    -0.391 OA
ATOM     14  H2  UNL     1      24.596  -0.684  15.838  1.00  0.00     0.210 HD
ENDBRANCH   6  13
ENDBRANCH   5   6
BRANCH   5  15
HETATM   15  C7  UNL     1      22.489   1.154  17.622  1.00  0.00     0.032 C
BRANCH  15  16
HETATM   16  C8  UNL     1      22.460   1.238  19.117  1.00  0.00    -0.013 C
HETATM   17  C9  UNL     1      22.719   2.665  19.615  1.00  0.00     0.005 C
HETATM   18  C10 UNL     1      24.042   3.185  19.138  1.00  0.00     0.000 C
HETATM   19  C11 UNL     1      25.146   2.191  19.163  1.00  0.00     0.000 C
HETATM   20  C12 UNL     1      24.880   0.884  19.785  1.00  0.00     0.000 C
HETATM   21  C13 UNL     1      23.479   0.380  19.795  1.00  0.00     0.005 C
ENDBRANCH  15  16
ENDBRANCH   5  15
ENDBRANCH   3   5
ENDBRANCH   2   3
BRANCH   2  22
HETATM   22  O3  UNL     1      20.133  -0.372  13.851  1.00  0.00    -0.347 OA
ATOM     23  H3  UNL     1      19.537   0.189  13.369  1.00  0.00     0.219 HD
ENDBRANCH   2  22
ENDBRANCH   1   2
BRANCH   1  24
HETATM   24  C16 UNL     1      18.025  -1.593  15.053  1.00  0.00     0.052 C
BRANCH  24  25
HETATM   25  C17 UNL     1      17.357  -2.745  15.623  1.00  0.00    -0.011 A
HETATM   26  C18 UNL     1      17.287  -4.153  15.284  1.00  0.00     0.005 A
HETATM   27  C19 UNL     1      16.219  -3.330  14.716  1.00  0.00     0.005 A
ENDBRANCH  24  25
ENDBRANCH   1  24
BRANCH   1  28
HETATM   28  N2  UNL     1      18.183   0.253  16.516  1.00  0.00    -0.399 NA
HETATM   29  C20 UNL     1      17.462   1.185  17.166  1.00  0.00     0.320 C
HETATM   30  O4  UNL     1      16.776   2.158  16.694  1.00  0.00    -0.254 OA
BRANCH  29  31
HETATM   31  C21 UNL     1      17.433   1.100  18.705  1.00  0.00     0.148 A
HETATM   32  C36 UNL     1      17.200  -0.288  19.120  1.00  0.00     0.011 A
HETATM   33  C37 UNL     1      15.967   0.051  19.515  1.00  0.00    -0.024 A
HETATM   34  C38 UNL     1      16.086   1.476  19.135  1.00  0.00     0.073 A
BRANCH  31  35
HETATM   35  N3  UNL     1      18.600   1.749  19.183  1.00  0.00    -0.362 N
HETATM   36  C22 UNL     1      19.077   1.007  20.322  1.00  0.00     0.168 C
HETATM   37  C23 UNL     1      19.692   1.802  21.412  1.00  0.00     0.084 C
HETATM   38  N4  UNL     1      19.189   3.087  21.670  1.00  0.00    -0.356 N
HETATM   39  C34 UNL     1      18.668   3.811  20.584  1.00  0.00     0.108 C
HETATM   40  C35 UNL     1      18.658   3.140  19.249  1.00  0.00     0.104 C
BRANCH  38  41
HETATM   41  C24 UNL     1      18.729   3.372  22.976  1.00  0.00     0.062 C
HETATM   42  C30 UNL     1      18.639   2.055  23.807  1.00  0.00     0.033 C
HETATM   43  C31 UNL     1      17.882   2.532  25.033  1.00  0.00     0.002 C
HETATM   44  C32 UNL     1      17.130   3.765  24.655  1.00  0.00     0.002 C
HETATM   45  C33 UNL     1      17.322   3.851  23.131  1.00  0.00     0.033 C
BRANCH  41  46
HETATM   46  C25 UNL     1      19.751   4.190  23.737  1.00  0.00     0.303 C
BRANCH  46  47
HETATM   47  N5  UNL     1      21.100   3.775  23.648  1.00  0.00     0.090 N
HETATM   48  C26 UNL     1      21.641   3.881  25.025  1.00  0.00     0.272 C
HETATM   49  C27 UNL     1      23.113   4.027  24.874  1.00  0.00     0.032 C
HETATM   50  C28 UNL     1      23.392   4.307  23.414  1.00  0.00     0.032 C
HETATM   51  C29 UNL     1      21.992   4.563  22.856  1.00  0.00     0.272 C
ENDBRANCH  46  47
ENDBRANCH  41  46
ENDBRANCH  38  41
ENDBRANCH  31  35
ENDBRANCH  29  31
ENDBRANCH   1  28
TORSDOF 19
ENDMDL