MODEL 3
REMARK VINA RESULT: -8.637718343      2.291      3.263
REMARK  17 active torsions:
REMARK  status: ('A' for Active; 'I' for Inactive)
REMARK    1  A    between atoms: C3_3  and  O1_4
REMARK    2  A    between atoms: C6_8  and  O2_9
REMARK    3  A    between atoms: C17_22  and  O4_23
REMARK    4  A    between atoms: O4_23  and  C18_24
REMARK    5  A    between atoms: C18_24  and  C19_25
REMARK    6  A    between atoms: C19_25  and  C20_26
REMARK    7  A    between atoms: C20_26  and  C21_27
REMARK    8  A    between atoms: C21_27  and  C22_28
REMARK    9  A    between atoms: C22_28  and  C23_29
REMARK       I    between atoms: C23_29  and  N1_31
REMARK   10  A    between atoms: N1_31  and  C24_33
REMARK   11  A    between atoms: C24_33  and  C25_34
REMARK   12  A    between atoms: C24_33  and  C32_44
REMARK   13  A    between atoms: C25_34  and  C26_35
REMARK   14  A    between atoms: C26_35  and  C27_36
REMARK       I    between atoms: C27_36  and  N2_38
REMARK   15  A    between atoms: N2_38  and  C29_40
REMARK   16  A    between atoms: C29_40  and  C30_41
REMARK   17  A    between atoms: C30_41  and  O7_42
ROOT
HETATM    1  C32 UNL     1      20.852  -5.278  14.241  1.00  0.00     0.313 C
HETATM    2  O8  UNL     1      20.198  -4.251  14.008  1.00  0.00    -0.255 OA
HETATM    3  N3  UNL     1      21.965  -5.306  15.095  1.00  0.00    -0.393 NA
HETATM    4  C33 UNL     1      23.020  -5.331  15.904  1.00  0.00     0.233 C
ENDROOT
BRANCH   1   5
HETATM    5  C24 UNL     1      20.293  -6.529  13.489  1.00  0.00     0.192 C
BRANCH   5   6
HETATM    6  N1  UNL     1      18.885  -6.541  13.965  1.00  0.00    -0.347 N
HETATM    7  C23 UNL     1      17.809  -6.354  13.057  1.00  0.00     0.218 C
HETATM    8  O5  UNL     1      18.085  -6.147  11.856  1.00  0.00    -0.274 OA
ATOM      9  H1  UNL     1      18.689  -6.685  14.955  1.00  0.00     0.163 HD
BRANCH   7  10
HETATM   10  C22 UNL     1      16.405  -6.393  13.450  1.00  0.00     0.103 C
BRANCH  10  11
HETATM   11  C21 UNL     1      16.055  -5.697  14.743  1.00  0.00     0.009 C
BRANCH  11  12
HETATM   12  C20 UNL     1      15.916  -4.203  14.508  1.00  0.00     0.002 C
BRANCH  12  13
HETATM   13  C19 UNL     1      17.059  -3.525  15.270  1.00  0.00     0.026 C
BRANCH  13  14
HETATM   14  C18 UNL     1      17.100  -2.055  14.918  1.00  0.00     0.168 C
BRANCH  14  15
HETATM   15  O4  UNL     1      18.460  -1.615  14.899  1.00  0.00    -0.378 OA
BRANCH  15  16
HETATM   16  C17 UNL     1      18.952  -1.650  16.168  1.00  0.00     0.192 C
HETATM   17  C16 UNL     1      20.391  -1.462  16.343  1.00  0.00     0.164 C
HETATM   18  C14 UNL     1      20.606  -1.020  17.795  1.00  0.00     0.024 C
HETATM   19  O3  UNL     1      21.280  -1.606  15.556  1.00  0.00    -0.294 OA
HETATM   20  C13 UNL     1      21.791  -0.157  17.824  1.00  0.00     0.018 C
HETATM   21  C15 UNL     1      20.950  -2.319  18.532  1.00  0.00     0.024 C
HETATM   22  C35 UNL     1      19.295  -0.487  18.235  1.00  0.00     0.013 C
HETATM   23  C12 UNL     1      21.463   1.310  18.013  1.00  0.00     0.007 C
HETATM   24  C11 UNL     1      20.615   1.340  19.289  1.00  0.00     0.007 C
HETATM   25  C9  UNL     1      20.630   2.679  19.933  1.00  0.00    -0.013 C
HETATM   26  C36 UNL     1      19.274   0.852  18.902  1.00  0.00     0.031 C
HETATM   27  C4  UNL     1      19.679   2.718  21.056  1.00  0.00    -0.035 C
HETATM   28  C8  UNL     1      22.027   2.932  20.470  1.00  0.00     0.016 C
HETATM   29  C10 UNL     1      20.211   3.784  18.978  1.00  0.00     0.020 C
HETATM   30  C3  UNL     1      18.614   1.872  21.093  1.00  0.00     0.074 C
HETATM   31  C5  UNL     1      19.832   3.650  22.178  1.00  0.00     0.069 C
HETATM   32  C2  UNL     1      18.359   0.916  20.045  1.00  0.00    -0.029 C
HETATM   33  C1  UNL     1      17.286   0.167  20.168  1.00  0.00     0.022 C
HETATM   34  C6  UNL     1      21.228   3.978  22.587  1.00  0.00     0.122 C
HETATM   35  C7  UNL     1      22.153   4.088  21.379  1.00  0.00     0.033 C
HETATM   36  C34 UNL     1      18.387  -0.478  17.014  1.00  0.00     0.046 C
BRANCH  30  37
HETATM   37  O1  UNL     1      17.767   1.961  22.211  1.00  0.00    -0.360 OA
ATOM     38  H1  UNL     1      17.496   2.805  22.552  1.00  0.00     0.217 HD
ENDBRANCH  30  37
BRANCH  34  39
HETATM   39  O2  UNL     1      21.218   5.239  23.185  1.00  0.00    -0.395 OA
ATOM     40  H2  UNL     1      21.848   5.231  23.896  1.00  0.00     0.210 HD
ENDBRANCH  34  39
ENDBRANCH  15  16
ENDBRANCH  14  15
ENDBRANCH  13  14
ENDBRANCH  12  13
ENDBRANCH  11  12
ENDBRANCH  10  11
ENDBRANCH   7  10
ENDBRANCH   5   6
BRANCH   5  41
HETATM   41  C25 UNL     1      20.954  -7.706  14.103  1.00  0.00     0.045 C
BRANCH  41  42
HETATM   42  C26 UNL     1      21.667  -8.624  13.119  1.00  0.00     0.105 C
BRANCH  42  43
HETATM   43  C27 UNL     1      20.658  -9.644  12.672  1.00  0.00     0.219 C
HETATM   44  O6  UNL     1      19.973  -9.322  11.639  1.00  0.00    -0.273 OA
HETATM   45  N2  UNL     1      20.475 -10.845  13.336  1.00  0.00    -0.354 N
HETATM   46  C28 UNL     1      19.376 -11.720  12.873  1.00  0.00     0.152 C
BRANCH  45  47
HETATM   47  C29 UNL     1      21.328 -11.307  14.404  1.00  0.00     0.151 C
BRANCH  47  48
HETATM   48  C30 UNL     1      20.674 -11.159  15.742  1.00  0.00     0.186 C
BRANCH  48  49
HETATM   49  O7  UNL     1      21.428 -10.412  16.629  1.00  0.00    -0.394 OA
HETATM   50  C31 UNL     1      21.784 -11.056  17.777  1.00  0.00     0.201 C
ENDBRANCH  48  49
ENDBRANCH  47  48
ENDBRANCH  45  47
ENDBRANCH  42  43
ENDBRANCH  41  42
ENDBRANCH   5  41
ENDBRANCH   1   5
TORSDOF 16
ENDMDL