MODEL 4
REMARK VINA RESULT: -10.039065663      1.372      2.010
REMARK  13 active torsions:
REMARK  status: ('A' for Active; 'I' for Inactive)
REMARK    1  A    between atoms: C2_2  and  C3_3
REMARK    2  A    between atoms: C3_3  and  N1_4
REMARK       I    between atoms: N2_8  and  C7_9
REMARK       I    between atoms: C7_9  and  N3_11
REMARK    3  A    between atoms: N3_11  and  C8_13
REMARK    4  A    between atoms: C8_13  and  C9_14
REMARK    5  A    between atoms: C12_17  and  C13_18
REMARK       I    between atoms: C13_18  and  N4_20
REMARK    6  A    between atoms: N4_20  and  C14_21
REMARK    7  A    between atoms: C19_26  and  C20_27
REMARK       I    between atoms: C20_27  and  N5_29
REMARK    8  A    between atoms: N5_29  and  C21_31
REMARK    9  A    between atoms: C21_31  and  C29_39
REMARK   10  A    between atoms: C22_32  and  C23_33
REMARK   11  A    between atoms: C29_39  and  C30_41
REMARK       I    between atoms: C30_41  and  N6_43
REMARK   12  A    between atoms: N6_43  and  C31_44
REMARK   13  A    between atoms: C31_44  and  C32_45
ROOT
HETATM    1  N1  UNL     1      20.323  31.565  14.327  1.00  0.00    -0.378 N
HETATM    2  C4  UNL     1      19.660  31.357  13.110  1.00  0.00     0.089 C
HETATM    3  C5  UNL     1      18.718  32.452  12.780  1.00  0.00     0.070 C
HETATM    4  C6  UNL     1      17.744  32.738  13.793  1.00  0.00     0.071 C
HETATM    5  N2  UNL     1      17.821  32.298  15.195  1.00  0.00    -0.312 N
HETATM    6  C7  UNL     1      16.663  32.951  15.783  1.00  0.00     0.322 C
HETATM    7  O1  UNL     1      15.660  33.065  15.028  1.00  0.00    -0.247 OA
HETATM    8  N3  UNL     1      16.576  33.524  17.121  1.00  0.00    -0.342 N
ATOM      9  H3  UNL     1      17.279  33.414  17.852  1.00  0.00     0.164 HD
HETATM   10  C17 UNL     1      18.599  31.428  15.999  1.00  0.00     0.159 C
HETATM   11  C18 UNL     1      19.764  30.748  15.353  1.00  0.00     0.115 C
HETATM   12  C19 UNL     1      19.375  29.507  14.589  1.00  0.00     0.104 C
HETATM   13  C36 UNL     1      18.743  30.126  13.303  1.00  0.00     0.041 C
ENDROOT
BRANCH  12  14
HETATM   14  C20 UNL     1      20.479  28.660  14.030  1.00  0.00     0.228 C
HETATM   15  O3  UNL     1      21.645  28.682  14.420  1.00  0.00    -0.273 OA
HETATM   16  N5  UNL     1      20.175  27.796  12.983  1.00  0.00    -0.323 N
ATOM     17  H5  UNL     1      19.185  27.680  12.761  1.00  0.00     0.169 HD
BRANCH  16  18
HETATM   18  C21 UNL     1      21.074  27.075  12.205  1.00  0.00     0.089 C
HETATM   19  C22 UNL     1      22.191  26.514  11.654  1.00  0.00     0.016 C
BRANCH  19  20
HETATM   20  C23 UNL     1      23.367  27.245  11.128  1.00  0.00    -0.024 C
HETATM   21  C24 UNL     1      23.944  26.260  10.095  1.00  0.00     0.019 C
HETATM   22  C25 UNL     1      24.484  27.703  11.947  1.00  0.00     0.013 C
HETATM   23  C26 UNL     1      25.073  28.923  11.246  1.00  0.00     0.001 C
HETATM   24  C27 UNL     1      24.376  28.975   9.902  1.00  0.00     0.001 C
HETATM   25  C28 UNL     1      22.963  28.495  10.294  1.00  0.00     0.013 C
ENDBRANCH  19  20
BRANCH  18  26
HETATM   26  C29 UNL     1      19.851  26.074  11.695  1.00  0.00     0.279 C
HETATM   27  O4  UNL     1      20.186  24.919  11.372  1.00  0.00    -0.279 OA
BRANCH  26  28
HETATM   28  C30 UNL     1      18.503  26.609  11.645  1.00  0.00     0.363 C
HETATM   29  O5  UNL     1      17.691  26.692  12.561  1.00  0.00    -0.248 OA
HETATM   30  N6  UNL     1      18.235  27.046  10.337  1.00  0.00    -0.408 NA
BRANCH  30  31
HETATM   31  C31 UNL     1      17.969  27.462   9.111  1.00  0.00     0.230 C
BRANCH  31  32
HETATM   32  C32 UNL     1      17.938  26.269   8.099  1.00  0.00    -0.024 C
HETATM   33  C33 UNL     1      16.830  25.337   8.385  1.00  0.00     0.017 C
HETATM   34  C34 UNL     1      19.271  25.542   8.084  1.00  0.00     0.017 C
HETATM   35  C35 UNL     1      17.799  26.890   6.696  1.00  0.00     0.017 C
ENDBRANCH  31  32
ENDBRANCH  30  31
ENDBRANCH  26  28
ENDBRANCH  18  26
ENDBRANCH  16  18
ENDBRANCH  12  14
BRANCH   1  36
HETATM   36  C3  UNL     1      21.570  32.167  14.401  1.00  0.00     0.085 C
BRANCH  36  37
HETATM   37  C2  UNL     1      21.616  33.639  14.698  1.00  0.00     0.007 C
HETATM   38  C1  UNL     1      22.725  34.379  14.449  1.00  0.00     0.012 C
ENDBRANCH  36  37
ENDBRANCH   1  36
BRANCH   8  39
HETATM   39  C8  UNL     1      15.343  34.272  17.259  1.00  0.00     0.129 C
BRANCH  39  40
HETATM   40  C9  UNL     1      15.287  35.711  17.215  1.00  0.00     0.008 C
HETATM   41  C10 UNL     1      15.808  36.122  18.633  1.00  0.00     0.011 C
HETATM   42  C11 UNL     1      17.160  36.703  18.454  1.00  0.00     0.041 C
HETATM   43  C12 UNL     1      16.894  37.490  17.181  1.00  0.00     0.003 C
HETATM   44  C16 UNL     1      16.216  36.528  16.318  1.00  0.00     0.047 C
BRANCH  43  45
HETATM   45  C13 UNL     1      17.814  38.594  16.944  1.00  0.00     0.312 C
HETATM   46  O2  UNL     1      17.360  39.607  16.361  1.00  0.00    -0.252 OA
HETATM   47  N4  UNL     1      19.135  38.396  17.347  1.00  0.00    -0.412 NA
BRANCH  47  48
HETATM   48  C14 UNL     1      20.440  38.295  17.698  1.00  0.00     0.217 C
HETATM   49  C15 UNL     1      21.026  36.911  17.393  1.00  0.00     0.041 C
ENDBRANCH  47  48
ENDBRANCH  43  45
ENDBRANCH  39  40
ENDBRANCH   8  39
TORSDOF 13
ENDMDL