MODEL 4
REMARK VINA RESULT: -9.265415585      1.635      4.156
REMARK  16 active torsions:
REMARK  status: ('A' for Active; 'I' for Inactive)
REMARK       I    between atoms: C2_2  and  N1_4
REMARK    1  A    between atoms: N1_4  and  C3_6
REMARK    2  A    between atoms: C3_6  and  C5_8
REMARK       I    between atoms: C5_8  and  N2_10
REMARK    3  A    between atoms: N2_10  and  C6_12
REMARK    4  A    between atoms: C6_12  and  C7_13
REMARK       I    between atoms: C7_13  and  N3_15
REMARK    5  A    between atoms: N3_15  and  C8_17
REMARK    6  A    between atoms: C8_17  and  C9_18
REMARK    7  A    between atoms: C8_17  and  C14_23
REMARK    8  A    between atoms: C9_18  and  C10_19
REMARK       I    between atoms: C14_23  and  N4_25
REMARK    9  A    between atoms: N4_25  and  C15_27
REMARK   10  A    between atoms: C15_27  and  C16_28
REMARK   11  A    between atoms: C15_27  and  C22_36
REMARK   12  A    between atoms: C16_28  and  C17_29
REMARK   13  A    between atoms: C17_29  and  C18_30
REMARK   14  A    between atoms: C18_30  and  N5_31
REMARK   15  A    between atoms: C22_36  and  O5_37
REMARK   16  A    between atoms: C22_36  and  N6_39
ROOT
HETATM    1  C8  UNL     1      17.717  33.030  14.704  1.00  0.00     0.177 C
ENDROOT
BRANCH   1   2
HETATM    2  N3  UNL     1      18.644  34.020  15.065  1.00  0.00    -0.346 N
HETATM    3  C7  UNL     1      19.681  33.967  16.043  1.00  0.00     0.246 C
HETATM    4  O3  UNL     1      19.774  32.899  16.700  1.00  0.00    -0.271 OA
ATOM      5  H3  UNL     1      18.566  34.901  14.557  1.00  0.00     0.163 HD
BRANCH   3   6
HETATM    6  C6  UNL     1      20.622  35.094  16.297  1.00  0.00     0.114 C
HETATM    7  C32 UNL     1      21.467  35.315  15.077  1.00  0.00     0.041 C
HETATM    8  C33 UNL     1      22.910  35.500  15.489  1.00  0.00     0.003 C
HETATM    9  C34 UNL     1      22.969  36.455  16.642  1.00  0.00     0.000 C
HETATM   10  C35 UNL     1      22.465  35.716  17.872  1.00  0.00     0.003 C
HETATM   11  C36 UNL     1      21.474  34.646  17.477  1.00  0.00     0.041 C
BRANCH   6  12
HETATM   12  N2  UNL     1      19.863  36.281  16.601  1.00  0.00    -0.341 N
HETATM   13  C5  UNL     1      19.150  36.561  17.774  1.00  0.00     0.241 C
HETATM   14  O2  UNL     1      19.106  35.754  18.715  1.00  0.00    -0.271 OA
ATOM     15  H2  UNL     1      19.842  37.001  15.879  1.00  0.00     0.163 HD
BRANCH  13  16
HETATM   16  C3  UNL     1      18.401  37.851  17.952  1.00  0.00     0.172 C
HETATM   17  C4  UNL     1      16.916  37.536  18.199  1.00  0.00     0.042 C
BRANCH  16  18
HETATM   18  N1  UNL     1      18.465  38.703  16.812  1.00  0.00    -0.348 N
HETATM   19  C2  UNL     1      19.372  39.793  16.798  1.00  0.00     0.214 C
HETATM   20  C1  UNL     1      19.505  40.734  15.649  1.00  0.00     0.117 C
HETATM   21  O1  UNL     1      20.110  39.999  17.785  1.00  0.00    -0.274 OA
ATOM     22  H1  UNL     1      17.860  38.530  16.010  1.00  0.00     0.163 HD
ENDBRANCH  16  18
ENDBRANCH  13  16
ENDBRANCH   6  12
ENDBRANCH   3   6
ENDBRANCH   1   2
BRANCH   1  23
HETATM   23  C9  UNL     1      16.766  32.525  15.709  1.00  0.00     0.043 C
BRANCH  23  24
HETATM   24  C10 UNL     1      15.860  33.467  16.397  1.00  0.00    -0.049 C
HETATM   25  C11 UNL     1      14.577  32.663  16.750  1.00  0.00     0.014 C
HETATM   26  C12 UNL     1      15.381  34.603  15.515  1.00  0.00     0.014 C
HETATM   27  C13 UNL     1      16.309  34.059  17.683  1.00  0.00     0.014 C
ENDBRANCH  23  24
ENDBRANCH   1  23
BRANCH   1  28
HETATM   28  C14 UNL     1      18.380  31.893  13.947  1.00  0.00     0.241 C
HETATM   29  O4  UNL     1      18.797  32.195  12.789  1.00  0.00    -0.271 OA
HETATM   30  N4  UNL     1      18.488  30.633  14.536  1.00  0.00    -0.347 N
ATOM     31  H4  UNL     1      18.120  30.497  15.477  1.00  0.00     0.163 HD
BRANCH  30  32
HETATM   32  C15 UNL     1      19.117  29.489  13.844  1.00  0.00     0.159 C
BRANCH  32  33
HETATM   33  C16 UNL     1      18.247  28.273  13.979  1.00  0.00     0.035 C
BRANCH  33  34
HETATM   34  C17 UNL     1      17.614  27.940  12.614  1.00  0.00     0.022 C
BRANCH  34  35
HETATM   35  C18 UNL     1      18.628  27.722  11.542  1.00  0.00     0.119 C
BRANCH  35  36
HETATM   36  N5  UNL     1      19.384  26.552  11.872  1.00  0.00    -0.397 N
HETATM   37  C19 UNL     1      20.151  25.911  11.101  1.00  0.00    -0.026 C
HETATM   38  C20 UNL     1      20.861  24.716  11.605  1.00  0.00     0.062 C
HETATM   39  C21 UNL     1      20.352  26.352   9.707  1.00  0.00     0.062 C
ATOM     40  H5  UNL     1      19.293  26.201  12.825  1.00  0.00     0.159 HD
ENDBRANCH  35  36
ENDBRANCH  34  35
ENDBRANCH  33  34
ENDBRANCH  32  33
BRANCH  32  41
HETATM   41  C22 UNL     1      20.512  29.337  14.288  1.00  0.00     0.137 C
BRANCH  41  42
HETATM   42  O5  UNL     1      20.702  28.931  15.516  1.00  0.00    -0.348 OA
ATOM     43  H5  UNL     1      21.203  28.132  15.632  1.00  0.00     0.219 HD
ENDBRANCH  41  42
BRANCH  41  44
HETATM   44  N6  UNL     1      21.702  29.564  13.590  1.00  0.00    -0.364 N
HETATM   45  C23 UNL     1      21.617  30.019  12.198  1.00  0.00     0.125 C
HETATM   46  C24 UNL     1      22.342  29.065  11.278  1.00  0.00     0.029 C
HETATM   47  C25 UNL     1      23.637  28.570  11.874  1.00  0.00    -0.037 C
HETATM   48  C26 UNL     1      24.761  28.694  10.820  1.00  0.00     0.010 C
HETATM   49  C29 UNL     1      23.633  27.094  12.128  1.00  0.00     0.010 C
HETATM   50  C30 UNL     1      24.099  29.374  13.036  1.00  0.00     0.029 C
HETATM   51  C27 UNL     1      24.494  27.547   9.900  1.00  0.00     0.001 C
HETATM   52  C28 UNL     1      23.981  26.441  10.815  1.00  0.00     0.001 C
HETATM   53  C31 UNL     1      23.020  29.391  14.110  1.00  0.00     0.125 C
ENDBRANCH  41  44
ENDBRANCH  32  41
ENDBRANCH  30  32
ENDBRANCH   1  28
TORSDOF 16
ENDMDL