MODEL 3
REMARK VINA RESULT: -8.412912795      1.122      1.725
REMARK  15 active torsions:
REMARK  status: ('A' for Active; 'I' for Inactive)
REMARK    1  A    between atoms: C2_2  and  C3_3
REMARK    2  A    between atoms: C3_3  and  C4_4
REMARK    3  A    between atoms: C4_4  and  C5_5
REMARK    4  A    between atoms: C5_5  and  C6_6
REMARK    5  A    between atoms: C6_6  and  C7_7
REMARK    6  A    between atoms: C7_7  and  C8_8
REMARK    7  A    between atoms: C8_8  and  C9_9
REMARK    8  A    between atoms: C9_9  and  C10_10
REMARK    9  A    between atoms: C10_10  and  C11_11
REMARK   10  A    between atoms: C12_14  and  O1_15
REMARK   11  A    between atoms: C22_28  and  C23_29
REMARK   12  A    between atoms: C23_29  and  C24_30
REMARK   13  A    between atoms: C28_37  and  C29_38
REMARK   14  A    between atoms: C35_49  and  C36_50
REMARK   15  A    between atoms: C36_50  and  O6_51
ROOT
HETATM    1  C11 UNL     1      18.334  33.649  14.555  1.00  0.00     0.013 C
HETATM    2  N1  UNL     1      18.367  32.782  13.336  1.00  0.00    -0.344 N
ATOM      3  H1  UNL     1      17.626  33.137  12.731  1.00  0.00     0.167 HD
HETATM    4  C12 UNL     1      18.957  31.678  12.617  1.00  0.00     0.139 C
HETATM    5  C13 UNL     1      19.316  30.228  12.857  1.00  0.00     0.170 C
HETATM    6  C14 UNL     1      18.007  29.414  12.971  1.00  0.00     0.034 C
HETATM    7  C15 UNL     1      17.794  28.482  11.830  1.00  0.00     0.002 C
HETATM    8  C16 UNL     1      17.262  29.179  10.581  1.00  0.00     0.000 C
HETATM    9  C17 UNL     1      17.093  28.050   9.548  1.00  0.00     0.000 C
HETATM   10  C18 UNL     1      18.327  27.956   8.713  1.00  0.00     0.009 C
HETATM   11  C19 UNL     1      18.786  26.582   8.378  1.00  0.00     0.103 C
HETATM   12  C20 UNL     1      18.628  25.570   9.416  1.00  0.00     0.220 C
HETATM   13  O2  UNL     1      17.581  24.877   9.453  1.00  0.00    -0.273 OA
HETATM   14  N2  UNL     1      19.608  25.292  10.437  1.00  0.00    -0.343 N
HETATM   15  C21 UNL     1      19.280  24.372  11.509  1.00  0.00     0.153 C
HETATM   16  C22 UNL     1      20.911  25.909  10.411  1.00  0.00     0.179 C
HETATM   17  C27 UNL     1      21.552  26.107  11.717  1.00  0.00     0.241 C
HETATM   18  O3  UNL     1      21.482  25.135  12.549  1.00  0.00    -0.271 OA
HETATM   19  N3  UNL     1      22.245  27.239  12.170  1.00  0.00    -0.346 N
ATOM     20  H3  UNL     1      23.174  27.085  12.565  1.00  0.00     0.163 HD
HETATM   21  C28 UNL     1      21.758  28.637  12.130  1.00  0.00     0.180 C
HETATM   22  C32 UNL     1      21.315  28.932  13.496  1.00  0.00     0.250 C
HETATM   23  O4  UNL     1      22.076  28.358  14.372  1.00  0.00    -0.271 OA
HETATM   24  N4  UNL     1      20.198  29.740  13.935  1.00  0.00    -0.269 N
HETATM   25  C33 UNL     1      20.149  29.932  15.393  1.00  0.00     0.266 C
HETATM   26  O5  UNL     1      20.315  28.775  15.958  1.00  0.00    -0.266 OA
HETATM   27  C34 UNL     1      19.982  30.949  16.461  1.00  0.00     0.159 C
HETATM   28  N5  UNL     1      19.333  32.218  16.726  1.00  0.00    -0.383 N
ATOM     29  H5  UNL     1      18.879  32.307  17.635  1.00  0.00     0.159 HD
HETATM   30  C35 UNL     1      19.246  33.427  15.820  1.00  0.00     0.150 C
ENDROOT
BRANCH   1  31
HETATM   31  C10 UNL     1      17.016  34.214  14.870  1.00  0.00     0.055 C
BRANCH  31  32
HETATM   32  C9  UNL     1      16.723  34.552  16.292  1.00  0.00     0.006 C
BRANCH  32  33
HETATM   33  C8  UNL     1      16.461  36.035  16.409  1.00  0.00     0.000 C
BRANCH  33  34
HETATM   34  C7  UNL     1      17.301  36.569  17.575  1.00  0.00     0.000 C
BRANCH  34  35
HETATM   35  C6  UNL     1      17.737  35.386  18.444  1.00  0.00     0.000 C
BRANCH  35  36
HETATM   36  C5  UNL     1      19.186  35.554  18.791  1.00  0.00     0.000 C
BRANCH  36  37
HETATM   37  C4  UNL     1      19.926  36.437  17.803  1.00  0.00     0.000 C
BRANCH  37  38
HETATM   38  C3  UNL     1      21.339  35.877  17.661  1.00  0.00    -0.000 C
BRANCH  38  39
HETATM   39  C2  UNL     1      22.009  36.676  16.552  1.00  0.00    -0.005 C
HETATM   40  C1  UNL     1      22.885  37.726  17.188  1.00  0.00     0.005 C
ENDBRANCH  38  39
ENDBRANCH  37  38
ENDBRANCH  36  37
ENDBRANCH  35  36
ENDBRANCH  34  35
ENDBRANCH  33  34
ENDBRANCH  32  33
ENDBRANCH  31  32
ENDBRANCH   1  31
BRANCH  30  41
HETATM   41  C36 UNL     1      19.928  32.518  14.910  1.00  0.00     0.195 C
BRANCH  41  42
HETATM   42  O6  UNL     1      20.590  33.719  14.942  1.00  0.00    -0.398 OA
ATOM     43  H6  UNL     1      19.716  33.847  14.594  1.00  0.00     0.209 HD
ENDBRANCH  41  42
ENDBRANCH  30  41
BRANCH   4  44
HETATM   44  O1  UNL     1      19.247  32.106  11.418  1.00  0.00    -0.348 OA
ATOM     45  H1  UNL     1      19.644  32.963  11.512  1.00  0.00     0.219 HD
ENDBRANCH   4  44
BRANCH  21  46
HETATM   46  C29 UNL     1      22.959  29.463  11.702  1.00  0.00     0.009 C
HETATM   47  C30 UNL     1      23.592  29.016  10.413  1.00  0.00     0.012 C
HETATM   48  C31 UNL     1      23.984  29.640  12.800  1.00  0.00     0.012 C
ENDBRANCH  21  46
BRANCH  16  49
HETATM   49  C23 UNL     1      21.812  24.882   9.684  1.00  0.00     0.039 C
BRANCH  49  50
HETATM   50  C24 UNL     1      22.230  25.424   8.341  1.00  0.00    -0.020 C
HETATM   51  C25 UNL     1      23.724  25.741   8.393  1.00  0.00     0.009 C
HETATM   52  C26 UNL     1      22.118  24.290   7.314  1.00  0.00     0.009 C
ENDBRANCH  49  50
ENDBRANCH  16  49
TORSDOF 15
ENDMDL