MODEL 1
REMARK VINA RESULT: -9.739890809      0.000      0.000
REMARK  15 active torsions:
REMARK  status: ('A' for Active; 'I' for Inactive)
REMARK    1  A    between atoms: C4_7  and  C5_8
REMARK    2  A    between atoms: C5_8  and  C6_9
REMARK    3  A    between atoms: C6_9  and  C7_10
REMARK    4  A    between atoms: N2_13  and  C9_14
REMARK    5  A    between atoms: C9_14  and  C10_15
REMARK    6  A    between atoms: C10_15  and  C13_18
REMARK       I    between atoms: C13_18  and  N3_20
REMARK    7  A    between atoms: N3_20  and  C14_22
REMARK    8  A    between atoms: N4_29  and  C20_30
REMARK    9  A    between atoms: C20_30  and  C21_31
REMARK   10  A    between atoms: C21_31  and  C22_32
REMARK   11  A    between atoms: C22_32  and  C23_33
REMARK   12  A    between atoms: C23_33  and  N5_34
REMARK       I    between atoms: N5_34  and  C24_36
REMARK       I    between atoms: C24_36  and  N6_38
REMARK   13  A    between atoms: N6_38  and  C25_40
REMARK   14  A    between atoms: C25_40  and  C26_41
REMARK   15  A    between atoms: C34_50  and  C35_51
ROOT
HETATM    1  C1  UNL     1      19.094  35.965  18.443  1.00  0.00     0.014 C
HETATM    2  C2  UNL     1      18.566  35.004  17.925  1.00  0.00    -0.084 C
HETATM    3  C3  UNL     1      17.929  33.847  17.299  1.00  0.00     0.267 C
HETATM    4  N1  UNL     1      18.935  32.851  17.080  1.00  0.00    -0.056 N
ATOM      5  H11 UNL     1      19.498  32.698  17.917  1.00  0.00     0.279 HD
ATOM      6  H12 UNL     1      19.668  33.190  16.458  1.00  0.00     0.279 HD
HETATM    7  C4  UNL     1      18.349  31.601  16.590  1.00  0.00     0.187 C
HETATM    8  C32 UNL     1      17.639  31.827  15.294  1.00  0.00     0.033 C
HETATM    9  C33 UNL     1      16.642  32.947  15.442  1.00  0.00     0.010 C
HETATM   10  C34 UNL     1      17.364  34.191  15.918  1.00  0.00     0.028 C
ENDROOT
BRANCH  10  11
HETATM   11  C35 UNL     1      16.433  35.375  16.023  1.00  0.00     0.003 C
HETATM   12  C36 UNL     1      15.206  34.927  16.784  1.00  0.00     0.005 C
ENDBRANCH  10  11
BRANCH   7  13
HETATM   13  C5  UNL     1      19.532  30.651  16.425  1.00  0.00     0.035 C
BRANCH  13  14
HETATM   14  C6  UNL     1      19.468  30.053  15.056  1.00  0.00     0.037 C
BRANCH  14  15
HETATM   15  C7  UNL     1      20.726  30.212  14.243  1.00  0.00     0.179 C
HETATM   16  C8  UNL     1      20.943  28.930  13.452  1.00  0.00     0.243 C
HETATM   17  O1  UNL     1      21.917  28.232  13.779  1.00  0.00    -0.271 OA
HETATM   18  N2  UNL     1      20.056  28.585  12.406  1.00  0.00    -0.341 N
HETATM   19  C18 UNL     1      19.385  29.658  11.710  1.00  0.00     0.228 C
HETATM   20  C19 UNL     1      19.851  31.002  12.118  1.00  0.00     0.238 C
HETATM   21  O3  UNL     1      19.619  31.979  11.335  1.00  0.00    -0.272 OA
HETATM   22  N4  UNL     1      20.536  31.304  13.310  1.00  0.00    -0.337 N
BRANCH  18  23
HETATM   23  C9  UNL     1      19.808  27.244  12.038  1.00  0.00     0.144 C
BRANCH  23  24
HETATM   24  C10 UNL     1      20.286  26.732  10.740  1.00  0.00     0.050 C
HETATM   25  C11 UNL     1      19.500  27.076   9.523  1.00  0.00     0.027 C
HETATM   26  C12 UNL     1      20.543  25.237  10.848  1.00  0.00     0.027 C
BRANCH  24  27
HETATM   27  C13 UNL     1      21.662  27.334  10.536  1.00  0.00     0.228 C
HETATM   28  O2  UNL     1      21.842  28.286   9.737  1.00  0.00    -0.273 OA
HETATM   29  N3  UNL     1      22.799  26.855  11.232  1.00  0.00    -0.352 N
ATOM     30  H3  UNL     1      22.683  26.082  11.886  1.00  0.00     0.163 HD
BRANCH  29  31
HETATM   31  C14 UNL     1      24.118  27.418  11.051  1.00  0.00     0.022 C
HETATM   32  C15 UNL     1      24.639  27.068   9.651  1.00  0.00     0.037 C
HETATM   33  C16 UNL     1      24.145  28.916  11.142  1.00  0.00     0.037 C
HETATM   34  C17 UNL     1      25.109  26.827  12.020  1.00  0.00     0.037 C
ENDBRANCH  29  31
ENDBRANCH  24  27
ENDBRANCH  23  24
ENDBRANCH  18  23
BRANCH  22  35
HETATM   35  C20 UNL     1      21.028  32.600  13.627  1.00  0.00     0.127 C
BRANCH  35  36
HETATM   36  C21 UNL     1      22.501  32.689  13.919  1.00  0.00     0.021 C
BRANCH  36  37
HETATM   37  C22 UNL     1      22.980  34.051  14.288  1.00  0.00     0.021 C
BRANCH  37  38
HETATM   38  C23 UNL     1      22.123  34.638  15.379  1.00  0.00     0.124 C
BRANCH  38  39
HETATM   39  N5  UNL     1      21.598  35.933  15.018  1.00  0.00    -0.343 N
HETATM   40  C24 UNL     1      21.783  37.079  15.882  1.00  0.00     0.319 C
HETATM   41  O4  UNL     1      22.410  36.865  16.925  1.00  0.00    -0.247 OA
HETATM   42  N6  UNL     1      21.278  38.340  15.539  1.00  0.00    -0.322 N
ATOM     43  H6  UNL     1      20.822  38.363  14.627  1.00  0.00     0.169 HD
ATOM     44  H5  UNL     1      21.089  36.042  14.140  1.00  0.00     0.164 HD
BRANCH  42  45
HETATM   45  C25 UNL     1      21.274  39.574  16.201  1.00  0.00     0.070 C
BRANCH  45  46
HETATM   46  C26 UNL     1      20.018  40.238  16.623  1.00  0.00     0.027 C
HETATM   47  C27 UNL     1      19.048  39.185  17.136  1.00  0.00     0.040 C
HETATM   48  C28 UNL     1      17.619  39.616  17.020  1.00  0.00     0.272 C
HETATM   49  N7  UNL     1      17.489  41.027  17.288  1.00  0.00     0.084 N
HETATM   50  C29 UNL     1      17.909  41.438  18.590  1.00  0.00     0.309 C
HETATM   51  C30 UNL     1      18.063  41.741  16.191  1.00  0.00     0.272 C
HETATM   52  C31 UNL     1      19.407  41.217  15.729  1.00  0.00     0.040 C
ENDBRANCH  45  46
ENDBRANCH  42  45
ENDBRANCH  38  39
ENDBRANCH  37  38
ENDBRANCH  36  37
ENDBRANCH  35  36
ENDBRANCH  22  35
ENDBRANCH  14  15
ENDBRANCH  13  14
ENDBRANCH   7  13
TORSDOF 15
ENDMDL