MODEL 3
REMARK VINA RESULT: -7.793833486      1.733      2.308
REMARK  16 active torsions:
REMARK  status: ('A' for Active; 'I' for Inactive)
REMARK    1  A    between atoms: C2_2  and  C3_3
REMARK    2  A    between atoms: C3_3  and  C4_4
REMARK    3  A    between atoms: C4_4  and  C5_5
REMARK    4  A    between atoms: C5_5  and  C6_6
REMARK    5  A    between atoms: C6_6  and  C7_7
REMARK    6  A    between atoms: C7_7  and  S1_8
REMARK    7  A    between atoms: S1_8  and  C8_9
REMARK    8  A    between atoms: C8_9  and  C9_10
REMARK    9  A    between atoms: C9_10  and  C10_12
REMARK   10  A    between atoms: N1_21  and  C19_22
REMARK   11  A    between atoms: C21_24  and  O2_25
REMARK   12  A    between atoms: C22_29  and  C23_30
REMARK   13  A    between atoms: C26_34  and  N3_35
REMARK   14  A    between atoms: N3_35  and  C27_37
REMARK   15  A    between atoms: C29_43  and  C30_44
REMARK   16  A    between atoms: C30_44  and  C31_45
ROOT
HETATM    1  C10 UNL     1      20.289  27.698  11.044  1.00  0.00     0.155 C
HETATM    2  C11 UNL     1      18.841  27.261  11.143  1.00  0.00     0.033 C
HETATM    3  C12 UNL     1      18.364  26.566   9.886  1.00  0.00     0.002 C
HETATM    4  C13 UNL     1      17.555  27.460   8.986  1.00  0.00     0.001 C
HETATM    5  C14 UNL     1      17.758  27.111   7.540  1.00  0.00     0.012 C
HETATM    6  C15 UNL     1      17.730  25.631   7.274  1.00  0.00     0.094 C
HETATM    7  C16 UNL     1      18.603  25.276   6.215  1.00  0.00    -0.101 C
HETATM    8  C17 UNL     1      19.320  24.981   5.381  1.00  0.00    -0.061 C
HETATM    9  C18 UNL     1      20.218  24.617   4.380  1.00  0.00     0.159 C
HETATM   10  N1  UNL     1      20.244  23.215   3.985  1.00  0.00    -0.316 N
HETATM   11  C21 UNL     1      21.416  22.425   3.988  1.00  0.00     0.220 C
HETATM   12  N2  UNL     1      22.515  22.434   4.849  1.00  0.00    -0.345 N
ATOM     13  H2  UNL     1      23.397  22.654   4.389  1.00  0.00     0.163 HD
HETATM   14  C22 UNL     1      22.640  22.194   6.246  1.00  0.00     0.157 C
HETATM   15  C25 UNL     1      22.629  23.349   7.138  1.00  0.00     0.181 C
HETATM   16  O3  UNL     1      21.614  23.631   7.795  1.00  0.00    -0.293 OA
HETATM   17  C26 UNL     1      23.775  24.305   7.374  1.00  0.00     0.248 C
HETATM   18  C28 UNL     1      23.191  25.667   7.368  1.00  0.00     0.248 C
HETATM   19  O5  UNL     1      23.344  26.283   6.242  1.00  0.00    -0.271 OA
HETATM   20  N4  UNL     1      22.522  26.362   8.358  1.00  0.00    -0.346 N
ATOM     21  H4  UNL     1      21.589  26.674   8.086  1.00  0.00     0.163 HD
HETATM   22  C29 UNL     1      22.897  26.731   9.710  1.00  0.00     0.177 C
HETATM   23  C34 UNL     1      22.127  25.984  10.716  1.00  0.00     0.241 C
HETATM   24  O6  UNL     1      22.268  24.733  10.933  1.00  0.00    -0.271 OA
HETATM   25  N5  UNL     1      21.141  26.609  11.543  1.00  0.00    -0.348 N
ATOM     26  H5  UNL     1      21.026  26.290  12.505  1.00  0.00     0.163 HD
ENDROOT
BRANCH   1  27
HETATM   27  C9  UNL     1      20.449  28.892  11.909  1.00  0.00     0.158 C
HETATM   28  O1  UNL     1      20.953  28.779  12.996  1.00  0.00    -0.295 OA
BRANCH  27  29
HETATM   29  C8  UNL     1      20.006  30.253  11.485  1.00  0.00     0.154 C
BRANCH  29  30
HETATM   30  S1  UNL     1      18.801  30.946  12.621  1.00  0.00    -0.162 SA
BRANCH  30  31
HETATM   31  C7  UNL     1      19.589  32.164  13.674  1.00  0.00     0.074 C
BRANCH  31  32
HETATM   32  C6  UNL     1      20.119  31.526  14.938  1.00  0.00     0.010 C
BRANCH  32  33
HETATM   33  C5  UNL     1      21.604  31.821  15.070  1.00  0.00     0.001 C
BRANCH  33  34
HETATM   34  C4  UNL     1      22.208  32.414  13.842  1.00  0.00     0.000 C
BRANCH  34  35
HETATM   35  C3  UNL     1      22.959  33.699  14.124  1.00  0.00    -0.000 C
BRANCH  35  36
HETATM   36  C2  UNL     1      22.451  34.353  15.389  1.00  0.00    -0.005 C
HETATM   37  C1  UNL     1      21.957  35.738  15.027  1.00  0.00     0.005 C
ENDBRANCH  35  36
ENDBRANCH  34  35
ENDBRANCH  33  34
ENDBRANCH  32  33
ENDBRANCH  31  32
ENDBRANCH  30  31
ENDBRANCH  29  30
ENDBRANCH  27  29
ENDBRANCH   1  27
BRANCH  22  38
HETATM   38  C30 UNL     1      24.365  26.748   9.852  1.00  0.00     0.038 C
BRANCH  38  39
HETATM   39  C31 UNL     1      24.968  27.663  10.861  1.00  0.00    -0.020 C
HETATM   40  C32 UNL     1      24.320  28.985  11.029  1.00  0.00     0.009 C
HETATM   41  C33 UNL     1      25.242  27.032  12.206  1.00  0.00     0.009 C
ENDBRANCH  38  39
ENDBRANCH  22  38
BRANCH  17  42
HETATM   42  N3  UNL     1      24.786  24.174   6.359  1.00  0.00    -0.349 N
ATOM     43  H3  UNL     1      24.684  24.691   5.485  1.00  0.00     0.163 HD
BRANCH  42  44
HETATM   44  C27 UNL     1      25.913  23.348   6.543  1.00  0.00     0.349 C
HETATM   45  O4  UNL     1      26.359  22.509   5.724  1.00  0.00    -0.284 OA
ENDBRANCH  42  44
ENDBRANCH  17  42
BRANCH  14  46
HETATM   46  C23 UNL     1      21.628  21.188   6.803  1.00  0.00     0.028 C
HETATM   47  C24 UNL     1      22.195  19.798   6.889  1.00  0.00     0.007 C
ENDBRANCH  14  46
BRANCH  10  48
HETATM   48  C19 UNL     1      18.950  22.670   3.550  1.00  0.00     0.128 C
HETATM   49  C20 UNL     1      18.330  21.720   4.505  1.00  0.00     0.027 C
ENDBRANCH  10  48
BRANCH  11  50
HETATM   50  O2  UNL     1      21.418  21.570   3.008  1.00  0.00    -0.332 OA
ATOM     51  H2  UNL     1      21.814  21.936   2.226  1.00  0.00     0.220 HD
ENDBRANCH  11  50
TORSDOF 16
ENDMDL