MODEL 1
REMARK VINA RESULT: -9.877323617      0.000      0.000
REMARK  16 active torsions:
REMARK  status: ('A' for Active; 'I' for Inactive)
REMARK    1  A    between atoms: C2_2  and  C4_4
REMARK    2  A    between atoms: C4_4  and  N1_5
REMARK    3  A    between atoms: C4_4  and  C17_20
REMARK       I    between atoms: N1_5  and  C5_7
REMARK    4  A    between atoms: C5_7  and  C6_9
REMARK    5  A    between atoms: C6_9  and  C7_10
REMARK       I    between atoms: C17_20  and  N2_22
REMARK    6  A    between atoms: N2_22  and  C18_24
REMARK    7  A    between atoms: C18_24  and  C19_25
REMARK    8  A    between atoms: C18_24  and  C25_35
REMARK    9  A    between atoms: C19_25  and  O3_26
REMARK   10  A    between atoms: C19_25  and  N3_28
REMARK   11  A    between atoms: N3_28  and  C20_30
REMARK       I    between atoms: C25_35  and  N4_37
REMARK   12  A    between atoms: N4_37  and  C26_39
REMARK   13  A    between atoms: C26_39  and  C27_40
REMARK   14  A    between atoms: C26_39  and  C34_51
REMARK   15  A    between atoms: C27_40  and  C28_42
REMARK       I    between atoms: C28_42  and  N5_44
REMARK   16  A    between atoms: N5_44  and  C29_46
ROOT
HETATM    1  C18 UNL     1      18.114  31.958  15.455  1.00  0.00     0.251 C
ENDROOT
BRANCH   1   2
HETATM    2  N2  UNL     1      18.428  31.523  14.069  1.00  0.00    -0.339 N
HETATM    3  C17 UNL     1      18.399  30.168  13.721  1.00  0.00     0.241 C
HETATM    4  O2  UNL     1      18.065  29.364  14.676  1.00  0.00    -0.271 OA
ATOM      5  H2  UNL     1      18.668  32.219  13.364  1.00  0.00     0.163 HD
BRANCH   3   6
HETATM    6  C4  UNL     1      18.696  29.626  12.405  1.00  0.00     0.180 C
BRANCH   6   7
HETATM    7  C2  UNL     1      17.831  28.607  11.797  1.00  0.00     0.009 C
HETATM    8  C1  UNL     1      18.657  27.310  11.652  1.00  0.00     0.012 C
HETATM    9  C3  UNL     1      17.281  28.961  10.425  1.00  0.00     0.012 C
ENDBRANCH   6   7
BRANCH   6  10
HETATM   10  N1  UNL     1      20.107  29.257  12.309  1.00  0.00    -0.347 N
HETATM   11  C5  UNL     1      21.161  30.191  12.110  1.00  0.00     0.219 C
HETATM   12  O1  UNL     1      20.821  31.391  12.011  1.00  0.00    -0.274 OA
ATOM     13  H1  UNL     1      20.350  28.270  12.390  1.00  0.00     0.163 HD
BRANCH  11  14
HETATM   14  C6  UNL     1      22.558  29.798  12.025  1.00  0.00     0.112 C
BRANCH  14  15
HETATM   15  C7  UNL     1      22.879  28.531  11.324  1.00  0.00    -0.031 C
HETATM   16  C8  UNL     1      22.340  28.400   9.932  1.00  0.00     0.014 C
HETATM   17  C9  UNL     1      22.863  27.126   9.311  1.00  0.00    -0.013 C
HETATM   18  C10 UNL     1      22.455  25.907  10.108  1.00  0.00     0.009 C
HETATM   19  C14 UNL     1      24.370  27.090   9.199  1.00  0.00     0.009 C
HETATM   20  C11 UNL     1      23.022  26.056  11.501  1.00  0.00    -0.013 C
HETATM   21  C12 UNL     1      24.524  26.132  11.506  1.00  0.00     0.009 C
HETATM   22  C16 UNL     1      22.446  27.313  12.112  1.00  0.00     0.014 C
HETATM   23  C13 UNL     1      24.930  27.253  10.595  1.00  0.00    -0.013 C
HETATM   24  C15 UNL     1      24.417  28.544  11.165  1.00  0.00     0.014 C
ENDBRANCH  14  15
ENDBRANCH  11  14
ENDBRANCH   6  10
ENDBRANCH   3   6
ENDBRANCH   1   2
BRANCH   1  25
HETATM   25  C19 UNL     1      19.242  31.728  16.340  1.00  0.00     0.144 C
BRANCH  25  26
HETATM   26  O3  UNL     1      19.139  30.685  17.114  1.00  0.00    -0.348 OA
ATOM     27  H3  UNL     1      19.296  29.849  16.691  1.00  0.00     0.219 HD
ENDBRANCH  25  26
BRANCH  25  28
HETATM   28  N3  UNL     1      20.427  32.499  16.458  1.00  0.00    -0.368 N
ATOM     29  H3  UNL     1      21.019  32.426  17.286  1.00  0.00     0.161 HD
BRANCH  28  30
HETATM   30  C20 UNL     1      20.781  33.408  15.354  1.00  0.00     0.083 C
HETATM   31  C21 UNL     1      22.088  33.060  14.727  1.00  0.00     0.025 C
HETATM   32  C22 UNL     1      22.955  34.311  14.737  1.00  0.00     0.002 C
HETATM   33  C23 UNL     1      22.068  35.439  15.156  1.00  0.00     0.002 C
HETATM   34  C24 UNL     1      20.918  34.813  15.924  1.00  0.00     0.025 C
ENDBRANCH  28  30
ENDBRANCH  25  28
ENDBRANCH   1  25
BRANCH   1  35
HETATM   35  C25 UNL     1      17.536  33.301  15.428  1.00  0.00     0.249 C
HETATM   36  O4  UNL     1      17.205  33.819  14.325  1.00  0.00    -0.271 OA
HETATM   37  N4  UNL     1      17.320  34.039  16.604  1.00  0.00    -0.347 N
ATOM     38  H4  UNL     1      17.599  33.651  17.505  1.00  0.00     0.163 HD
BRANCH  37  39
HETATM   39  C26 UNL     1      16.688  35.383  16.544  1.00  0.00     0.167 C
BRANCH  39  40
HETATM   40  C27 UNL     1      17.350  36.315  17.448  1.00  0.00     0.239 C
HETATM   41  O5  UNL     1      17.451  35.980  18.670  1.00  0.00    -0.285 OA
BRANCH  40  42
HETATM   42  C28 UNL     1      17.913  37.600  17.067  1.00  0.00     0.289 C
HETATM   43  O6  UNL     1      17.204  38.535  16.588  1.00  0.00    -0.264 OA
HETATM   44  N5  UNL     1      19.290  37.864  17.220  1.00  0.00    -0.350 N
ATOM     45  H5  UNL     1      19.912  37.147  17.593  1.00  0.00     0.163 HD
BRANCH  44  46
HETATM   46  C29 UNL     1      19.810  39.157  16.846  1.00  0.00     0.084 C
HETATM   47  C30 UNL     1      20.330  39.933  18.043  1.00  0.00     0.025 C
HETATM   48  C31 UNL     1      21.837  39.826  17.986  1.00  0.00     0.002 C
HETATM   49  C32 UNL     1      22.146  38.816  16.910  1.00  0.00     0.002 C
HETATM   50  C33 UNL     1      20.994  38.988  15.951  1.00  0.00     0.025 C
ENDBRANCH  44  46
ENDBRANCH  40  42
ENDBRANCH  39  40
BRANCH  39  51
HETATM   51  C34 UNL     1      15.211  35.177  16.828  1.00  0.00     0.008 C
HETATM   52  C35 UNL     1      14.942  33.999  17.730  1.00  0.00     0.012 C
HETATM   53  C36 UNL     1      14.576  36.409  17.359  1.00  0.00     0.012 C
ENDBRANCH  39  51
ENDBRANCH  37  39
ENDBRANCH   1  35
TORSDOF 16
ENDMDL