MODEL 3
REMARK VINA RESULT: -8.265857627      3.210     10.629
REMARK  17 active torsions:
REMARK  status: ('A' for Active; 'I' for Inactive)
REMARK    1  A    between atoms: N1_2  and  C2_4
REMARK    2  A    between atoms: C2_4  and  C3_5
REMARK    3  A    between atoms: C2_4  and  C30_47
REMARK       I    between atoms: C3_5  and  N2_7
REMARK    4  A    between atoms: N2_7  and  C4_9
REMARK    5  A    between atoms: C4_9  and  C5_10
REMARK    6  A    between atoms: C4_9  and  C26_43
REMARK       I    between atoms: C5_10  and  N3_12
REMARK    7  A    between atoms: N3_12  and  C6_14
REMARK    8  A    between atoms: C6_14  and  C7_15
REMARK    9  A    between atoms: C6_14  and  C10_18
REMARK   10  A    between atoms: C10_18  and  C11_19
REMARK   11  A    between atoms: C10_18  and  C21_38
REMARK   12  A    between atoms: C11_19  and  O3_20
REMARK   13  A    between atoms: N4_22  and  C13_24
REMARK   14  A    between atoms: N5_27  and  S1_28
REMARK   15  A    between atoms: S1_28  and  N6_31
REMARK   16  A    between atoms: N6_31  and  C16_33
REMARK   17  A    between atoms: C21_38  and  C23_40
ROOT
HETATM    1  C6  UNL     1      20.476  32.999  14.332  1.00  0.00     0.051 C
ENDROOT
BRANCH   1   2
HETATM    2  N3  UNL     1      20.726  34.009  15.293  1.00  0.00    -0.324 N
HETATM    3  C5  UNL     1      21.093  34.161  16.627  1.00  0.00     0.245 C
HETATM    4  O2  UNL     1      21.324  33.250  17.446  1.00  0.00    -0.271 OA
ATOM      5  H3  UNL     1      20.595  34.926  14.868  1.00  0.00     0.169 HD
BRANCH   3   6
HETATM    6  C4  UNL     1      21.256  35.554  17.204  1.00  0.00     0.184 C
BRANCH   6   7
HETATM    7  N2  UNL     1      19.972  36.248  16.984  1.00  0.00    -0.342 N
HETATM    8  C3  UNL     1      19.213  36.996  17.876  1.00  0.00     0.265 C
HETATM    9  O1  UNL     1      19.659  37.168  19.067  1.00  0.00    -0.266 OA
ATOM     10  H2  UNL     1      19.587  36.167  16.043  1.00  0.00     0.163 HD
BRANCH   8  11
HETATM   11  C2  UNL     1      17.914  37.615  17.532  1.00  0.00     0.081 C
BRANCH  11  12
HETATM   12  N1  UNL     1      17.838  38.518  16.491  1.00  0.00    -0.393 N
HETATM   13  C1  UNL     1      18.368  39.805  16.496  1.00  0.00     0.146 C
ATOM     14  H1  UNL     1      17.352  38.216  15.646  1.00  0.00     0.159 HD
ENDBRANCH  11  12
BRANCH  11  15
HETATM   15  C30 UNL     1      16.717  36.750  17.830  1.00  0.00    -0.004 C
HETATM   16  C31 UNL     1      17.022  35.353  18.263  1.00  0.00     0.021 C
HETATM   17  C32 UNL     1      15.802  37.476  18.824  1.00  0.00     0.021 C
HETATM   18  C33 UNL     1      15.841  36.616  16.561  1.00  0.00     0.021 C
ENDBRANCH  11  15
ENDBRANCH   8  11
ENDBRANCH   6   7
BRANCH   6  19
HETATM   19  C26 UNL     1      22.228  36.387  16.379  1.00  0.00    -0.022 C
HETATM   20  C27 UNL     1      21.516  37.197  15.300  1.00  0.00     0.017 C
HETATM   21  C28 UNL     1      23.329  35.588  15.735  1.00  0.00     0.017 C
HETATM   22  C29 UNL     1      22.918  37.425  17.238  1.00  0.00     0.017 C
ENDBRANCH   6  19
ENDBRANCH   3   6
ENDBRANCH   1   2
BRANCH   1  23
HETATM   23  C7  UNL     1      21.696  32.200  14.149  1.00  0.00    -0.060 C
HETATM   24  C8  UNL     1      22.987  32.861  13.826  1.00  0.00     0.045 C
HETATM   25  C9  UNL     1      21.881  30.890  14.804  1.00  0.00     0.045 C
ENDBRANCH   1  23
BRANCH   1  26
HETATM   26  C10 UNL     1      19.100  32.567  14.093  1.00  0.00     0.044 C
BRANCH  26  27
HETATM   27  C11 UNL     1      18.899  31.548  13.051  1.00  0.00     0.151 C
HETATM   28  N4  UNL     1      18.724  30.242  12.951  1.00  0.00    -0.361 N
HETATM   29  C12 UNL     1      18.353  29.323  14.013  1.00  0.00     0.152 C
BRANCH  27  30
HETATM   30  O3  UNL     1      18.932  32.199  11.894  1.00  0.00    -0.345 OA
ATOM     31  H3  UNL     1      19.196  31.561  11.242  1.00  0.00     0.219 HD
ENDBRANCH  27  30
BRANCH  28  32
HETATM   32  C13 UNL     1      19.179  29.479  11.735  1.00  0.00     0.088 C
HETATM   33  C14 UNL     1      20.592  29.433  11.468  1.00  0.00     0.041 C
HETATM   34  C15 UNL     1      20.845  28.436  10.290  1.00  0.00     0.111 C
HETATM   35  N5  UNL     1      20.587  27.129  10.767  1.00  0.00    -0.193 NA
HETATM   36  C19 UNL     1      19.728  27.046  11.933  1.00  0.00     0.111 C
HETATM   37  C20 UNL     1      18.650  28.015  12.071  1.00  0.00     0.041 C
BRANCH  35  38
HETATM   38  S1  UNL     1      21.959  26.178  11.151  1.00  0.00     0.299 S
HETATM   39  O4  UNL     1      22.737  25.822   9.882  1.00  0.00    -0.188 OA
HETATM   40  O5  UNL     1      21.433  24.861  11.728  1.00  0.00    -0.188 OA
BRANCH  38  41
HETATM   41  N6  UNL     1      22.968  26.972  12.261  1.00  0.00    -0.303 N
ATOM     42  H6  UNL     1      22.816  26.940  13.269  1.00  0.00     0.173 HD
BRANCH  41  43
HETATM   43  C16 UNL     1      24.061  27.698  11.658  1.00  0.00     0.086 C
HETATM   44  C17 UNL     1      25.388  26.952  11.772  1.00  0.00     0.032 C
HETATM   45  C18 UNL     1      24.225  29.051  12.263  1.00  0.00     0.032 C
ENDBRANCH  41  43
ENDBRANCH  38  41
ENDBRANCH  35  38
ENDBRANCH  28  32
ENDBRANCH  26  27
BRANCH  26  46
HETATM   46  C21 UNL     1      18.028  32.389  15.089  1.00  0.00    -0.064 C
HETATM   47  C22 UNL     1      18.269  31.696  16.368  1.00  0.00     0.045 C
BRANCH  46  48
HETATM   48  C23 UNL     1      17.089  33.591  15.271  1.00  0.00     0.007 C
HETATM   49  C24 UNL     1      15.726  32.970  15.620  1.00  0.00     0.014 C
HETATM   50  C25 UNL     1      16.876  34.287  13.957  1.00  0.00     0.014 C
ENDBRANCH  46  48
ENDBRANCH  26  46
ENDBRANCH   1  26
TORSDOF 17
ENDMDL