MODEL 1
REMARK VINA RESULT: -9.145976757      0.000      0.000
REMARK  14 active torsions:
REMARK  status: ('A' for Active; 'I' for Inactive)
REMARK    1  A    between atoms: C2_2  and  C3_3
REMARK    2  A    between atoms: C3_3  and  N1_4
REMARK       I    between atoms: N1_4  and  C4_6
REMARK    3  A    between atoms: C4_6  and  C5_8
REMARK    4  A    between atoms: C6_9  and  C7_10
REMARK       I    between atoms: N2_15  and  C11_16
REMARK    5  A    between atoms: C11_16  and  C12_18
REMARK    6  A    between atoms: C12_18  and  C13_19
REMARK    7  A    between atoms: C12_18  and  N3_23
REMARK    8  A    between atoms: C13_19  and  C14_20
REMARK       I    between atoms: N3_23  and  C17_25
REMARK    9  A    between atoms: C17_25  and  C18_27
REMARK   10  A    between atoms: C18_27  and  N4_28
REMARK       I    between atoms: N4_28  and  C19_30
REMARK   11  A    between atoms: C19_30  and  C20_32
REMARK   12  A    between atoms: C20_32  and  C21_33
REMARK   13  A    between atoms: C29_41  and  C30_42
REMARK       I    between atoms: C30_42  and  N5_44
REMARK   14  A    between atoms: N5_44  and  C31_46
ROOT
HETATM    1  N3  UNL     1      19.255  32.120  14.219  1.00  0.00    -0.346 N
ATOM      2  H3  UNL     1      19.762  32.594  13.470  1.00  0.00     0.163 HD
HETATM    3  C17 UNL     1      19.252  30.710  14.218  1.00  0.00     0.246 C
HETATM    4  O4  UNL     1      18.667  30.140  15.170  1.00  0.00    -0.271 OA
ENDROOT
BRANCH   3   5
HETATM    5  C18 UNL     1      19.882  29.874  13.176  1.00  0.00     0.114 C
HETATM    6  C27 UNL     1      19.055  28.558  13.056  1.00  0.00     0.042 C
HETATM    7  C28 UNL     1      17.753  28.788  12.361  1.00  0.00     0.017 C
HETATM    8  C29 UNL     1      17.984  29.325  10.950  1.00  0.00     0.078 C
HETATM    9  C35 UNL     1      19.402  29.729  10.755  1.00  0.00     0.017 C
HETATM   10  C36 UNL     1      19.879  30.609  11.879  1.00  0.00     0.042 C
BRANCH   5  11
HETATM   11  N4  UNL     1      21.205  29.409  13.482  1.00  0.00    -0.343 N
HETATM   12  C19 UNL     1      22.387  30.108  13.701  1.00  0.00     0.218 C
HETATM   13  O5  UNL     1      22.496  31.342  13.657  1.00  0.00    -0.274 OA
ATOM     14  H4  UNL     1      21.293  28.396  13.551  1.00  0.00     0.163 HD
BRANCH  12  15
HETATM   15  C20 UNL     1      23.624  29.312  14.016  1.00  0.00     0.107 C
BRANCH  15  16
HETATM   16  C21 UNL     1      24.606  29.218  12.902  1.00  0.00    -0.006 C
HETATM   17  C22 UNL     1      23.990  29.174  11.538  1.00  0.00     0.005 C
HETATM   18  C23 UNL     1      23.138  27.918  11.368  1.00  0.00     0.000 C
HETATM   19  C24 UNL     1      23.837  26.712  11.920  1.00  0.00     0.000 C
HETATM   20  C25 UNL     1      25.317  26.945  12.063  1.00  0.00     0.000 C
HETATM   21  C26 UNL     1      25.546  28.053  13.088  1.00  0.00     0.005 C
ENDBRANCH  15  16
ENDBRANCH  12  15
ENDBRANCH   5  11
BRANCH   8  22
HETATM   22  C30 UNL     1      17.633  28.277   9.950  1.00  0.00     0.222 C
HETATM   23  O6  UNL     1      16.483  28.265   9.483  1.00  0.00    -0.273 OA
HETATM   24  N5  UNL     1      18.571  27.304   9.527  1.00  0.00    -0.353 N
ATOM     25  H5  UNL     1      19.507  27.336   9.932  1.00  0.00     0.163 HD
BRANCH  24  26
HETATM   26  C31 UNL     1      18.290  26.271   8.563  1.00  0.00     0.022 C
HETATM   27  C32 UNL     1      17.248  25.291   9.058  1.00  0.00     0.037 C
HETATM   28  C33 UNL     1      19.589  25.508   8.286  1.00  0.00     0.037 C
HETATM   29  C34 UNL     1      17.811  26.825   7.248  1.00  0.00     0.037 C
ENDBRANCH  24  26
ENDBRANCH   8  22
ENDBRANCH   3   5
BRANCH   1  30
HETATM   30  C12 UNL     1      18.584  32.952  15.218  1.00  0.00     0.177 C
BRANCH  30  31
HETATM   31  C11 UNL     1      19.554  34.096  15.547  1.00  0.00     0.243 C
HETATM   32  N2  UNL     1      19.347  34.796  16.755  1.00  0.00    -0.338 N
HETATM   33  C7  UNL     1      20.097  35.953  17.223  1.00  0.00     0.134 C
HETATM   34  C10 UNL     1      18.329  34.332  17.677  1.00  0.00     0.153 C
HETATM   35  C8  UNL     1      19.760  36.064  18.705  1.00  0.00     0.197 C
HETATM   36  O2  UNL     1      18.396  36.468  18.747  1.00  0.00    -0.387 OA
HETATM   37  C9  UNL     1      17.610  35.411  18.406  1.00  0.00     0.187 C
HETATM   38  O3  UNL     1      20.471  34.349  14.738  1.00  0.00    -0.271 OA
BRANCH  33  39
HETATM   39  C6  UNL     1      21.492  36.080  16.884  1.00  0.00     0.006 C
HETATM   40  C5  UNL     1      22.386  37.188  17.042  1.00  0.00     0.072 C
BRANCH  40  41
HETATM   41  C4  UNL     1      22.255  38.516  16.489  1.00  0.00     0.241 C
HETATM   42  N1  UNL     1      21.329  38.733  15.399  1.00  0.00    -0.354 N
ATOM     43  H1  UNL     1      20.760  37.961  15.054  1.00  0.00     0.163 HD
HETATM   44  O1  UNL     1      22.890  39.498  16.884  1.00  0.00    -0.269 OA
BRANCH  42  45
HETATM   45  C3  UNL     1      21.209  40.042  14.799  1.00  0.00     0.149 C
BRANCH  45  46
HETATM   46  C2  UNL     1      21.637  39.930  13.343  1.00  0.00    -0.018 C
HETATM   47  C1  UNL     1      22.290  40.876  12.728  1.00  0.00     0.008 C
ENDBRANCH  45  46
ENDBRANCH  42  45
ENDBRANCH  40  41
ENDBRANCH  33  39
ENDBRANCH  30  31
BRANCH  30  48
HETATM   48  C13 UNL     1      17.419  33.648  14.614  1.00  0.00     0.038 C
BRANCH  48  49
HETATM   49  C14 UNL     1      16.074  33.327  15.144  1.00  0.00    -0.020 C
HETATM   50  C15 UNL     1      15.972  32.299  16.201  1.00  0.00     0.009 C
HETATM   51  C16 UNL     1      15.386  34.609  15.651  1.00  0.00     0.009 C
ENDBRANCH  48  49
ENDBRANCH  30  48
ENDBRANCH   1  30
TORSDOF 14
ENDMDL