MODEL 5
REMARK VINA RESULT: -8.370153989      4.714     11.279
REMARK  17 active torsions:
REMARK  status: ('A' for Active; 'I' for Inactive)
REMARK    1  A    between atoms: C2_2  and  N1_5
REMARK       I    between atoms: N1_5  and  C5_7
REMARK       I    between atoms: C5_7  and  N2_9
REMARK    2  A    between atoms: N2_9  and  C6_11
REMARK    3  A    between atoms: C6_11  and  C7_12
REMARK    4  A    between atoms: C6_11  and  C10_17
REMARK    5  A    between atoms: C7_12  and  C8_13
REMARK    6  A    between atoms: C8_13  and  C9_14
REMARK    7  A    between atoms: C10_17  and  O4_18
REMARK    8  A    between atoms: C10_17  and  N3_20
REMARK    9  A    between atoms: C14_24  and  C15_25
REMARK       I    between atoms: C15_25  and  N4_27
REMARK   10  A    between atoms: N4_27  and  C16_29
REMARK   11  A    between atoms: C16_29  and  C17_30
REMARK   12  A    between atoms: C16_29  and  C25_38
REMARK   13  A    between atoms: C17_30  and  C18_31
REMARK   14  A    between atoms: C25_38  and  N5_39
REMARK   15  A    between atoms: N5_39  and  C26_40
REMARK   16  A    between atoms: N5_39  and  S1_46
REMARK   17  A    between atoms: C26_40  and  C27_41
ROOT
HETATM    1  C15 UNL     1      20.102  32.961  15.977  1.00  0.00     0.241 C
HETATM    2  O5  UNL     1      19.276  32.697  16.878  1.00  0.00    -0.271 OA
HETATM    3  N4  UNL     1      19.667  32.758  14.646  1.00  0.00    -0.353 N
ATOM      4  H4  UNL     1      20.368  32.937  13.928  1.00  0.00     0.163 HD
ENDROOT
BRANCH   1   5
HETATM    5  C14 UNL     1      21.476  33.469  16.225  1.00  0.00     0.178 C
HETATM    6  N3  UNL     1      21.577  34.928  16.009  1.00  0.00    -0.350 N
HETATM    7  C11 UNL     1      21.799  35.039  14.605  1.00  0.00     0.126 C
HETATM    8  C12 UNL     1      22.979  34.039  14.421  1.00  0.00     0.022 C
HETATM    9  C13 UNL     1      22.488  32.901  15.259  1.00  0.00     0.037 C
BRANCH   6  10
HETATM   10  C10 UNL     1      21.510  35.793  17.119  1.00  0.00     0.137 C
BRANCH  10  11
HETATM   11  C6  UNL     1      21.498  37.177  17.457  1.00  0.00     0.161 C
BRANCH  11  12
HETATM   12  N2  UNL     1      20.160  37.646  16.903  1.00  0.00    -0.331 N
HETATM   13  C5  UNL     1      19.239  38.383  17.583  1.00  0.00     0.317 C
HETATM   14  N1  UNL     1      17.990  38.836  17.111  1.00  0.00    -0.335 N
HETATM   15  O1  UNL     1      19.526  38.719  18.795  1.00  0.00    -0.247 OA
ATOM     16  H1  UNL     1      17.713  38.577  16.163  1.00  0.00     0.165 HD
ATOM     17  H2  UNL     1      19.934  37.387  15.943  1.00  0.00     0.165 HD
BRANCH  14  18
HETATM   18  C2  UNL     1      17.082  39.641  17.886  1.00  0.00     0.023 C
HETATM   19  C1  UNL     1      16.321  38.671  18.816  1.00  0.00     0.037 C
HETATM   20  C3  UNL     1      17.769  40.635  18.771  1.00  0.00     0.037 C
HETATM   21  C4  UNL     1      16.103  40.296  16.935  1.00  0.00     0.037 C
ENDBRANCH  14  18
ENDBRANCH  11  12
BRANCH  11  22
HETATM   22  C7  UNL     1      22.458  38.203  17.070  1.00  0.00     0.044 C
BRANCH  22  23
HETATM   23  C8  UNL     1      23.756  38.366  17.738  1.00  0.00     0.116 C
BRANCH  23  24
HETATM   24  C9  UNL     1      23.645  38.877  19.136  1.00  0.00     0.172 C
HETATM   25  O2  UNL     1      22.765  39.636  19.549  1.00  0.00    -0.648 OA
HETATM   26  O3  UNL     1      24.599  38.493  20.112  1.00  0.00    -0.648 OA
ENDBRANCH  23  24
ENDBRANCH  22  23
ENDBRANCH  11  22
ENDBRANCH  10  11
BRANCH  10  27
HETATM   27  O4  UNL     1      21.430  35.033  18.248  1.00  0.00    -0.348 OA
ATOM     28  H4  UNL     1      20.588  35.160  18.668  1.00  0.00     0.219 HD
ENDBRANCH  10  27
ENDBRANCH   6  10
ENDBRANCH   1   5
BRANCH   3  29
HETATM   29  C16 UNL     1      18.374  32.337  14.155  1.00  0.00     0.099 C
BRANCH  29  30
HETATM   30  C17 UNL     1      17.550  33.560  13.990  1.00  0.00     0.031 C
BRANCH  30  31
HETATM   31  C18 UNL     1      16.613  34.111  14.956  1.00  0.00    -0.013 C
HETATM   32  C19 UNL     1      17.132  35.057  15.960  1.00  0.00     0.005 C
HETATM   33  C20 UNL     1      16.081  36.152  16.195  1.00  0.00     0.000 C
HETATM   34  C21 UNL     1      14.830  35.469  16.669  1.00  0.00     0.000 C
HETATM   35  C22 UNL     1      15.122  34.380  17.636  1.00  0.00     0.000 C
HETATM   36  C23 UNL     1      15.634  33.105  17.068  1.00  0.00     0.000 C
HETATM   37  C24 UNL     1      15.740  33.017  15.590  1.00  0.00     0.005 C
ENDBRANCH  30  31
ENDBRANCH  29  30
BRANCH  29  38
HETATM   38  C25 UNL     1      18.322  31.383  13.056  1.00  0.00     0.132 C
BRANCH  38  39
HETATM   39  N5  UNL     1      19.204  30.190  13.182  1.00  0.00    -0.209 NA
BRANCH  39  40
HETATM   40  C26 UNL     1      20.234  30.453  12.175  1.00  0.00     0.112 C
BRANCH  40  41
HETATM   41  C27 UNL     1      21.611  30.279  12.617  1.00  0.00    -0.000 C
HETATM   42  C28 UNL     1      21.669  29.456  13.925  1.00  0.00     0.006 C
HETATM   43  C29 UNL     1      23.201  29.464  14.100  1.00  0.00     0.000 C
HETATM   44  C30 UNL     1      23.750  29.373  12.666  1.00  0.00     0.000 C
HETATM   45  C31 UNL     1      22.500  29.409  11.767  1.00  0.00     0.006 C
ENDBRANCH  40  41
ENDBRANCH  39  40
BRANCH  39  46
HETATM   46  S1  UNL     1      18.263  28.821  12.706  1.00  0.00     0.207 S
HETATM   47  C32 UNL     1      19.216  27.708  11.734  1.00  0.00     0.180 C
HETATM   48  O6  UNL     1      17.804  28.038  13.930  1.00  0.00    -0.212 OA
HETATM   49  O7  UNL     1      17.085  29.235  11.855  1.00  0.00    -0.212 OA
ENDBRANCH  39  46
ENDBRANCH  38  39
ENDBRANCH  29  38
ENDBRANCH   3  29
TORSDOF 17
ENDMDL