MODEL 3
REMARK VINA RESULT: -9.011965767      3.515      8.778
REMARK  17 active torsions:
REMARK  status: ('A' for Active; 'I' for Inactive)
REMARK    1  A    between atoms: C2_2  and  C3_3
REMARK    2  A    between atoms: C3_3  and  C4_4
REMARK    3  A    between atoms: C4_4  and  C5_5
REMARK    4  A    between atoms: C5_5  and  N1_6
REMARK    5  A    between atoms: N1_6  and  C6_7
REMARK    6  A    between atoms: N1_6  and  C18_26
REMARK    7  A    between atoms: C6_7  and  O1_8
REMARK    8  A    between atoms: C6_7  and  C7_10
REMARK    9  A    between atoms: C7_10  and  C8_11
REMARK   10  A    between atoms: C7_10  and  N3_15
REMARK   11  A    between atoms: C8_11  and  C9_12
REMARK       I    between atoms: N3_15  and  C10_17
REMARK   12  A    between atoms: C10_17  and  C11_19
REMARK   13  A    between atoms: C11_19  and  C12_20
REMARK   14  A    between atoms: C18_26  and  C19_27
REMARK   15  A    between atoms: C18_26  and  C25_35
REMARK   16  A    between atoms: C19_27  and  C20_28
REMARK       I    between atoms: C25_35  and  N5_37
REMARK   17  A    between atoms: N5_37  and  C26_39
ROOT
HETATM    1  N1  UNL     1      19.733  31.984  14.694  1.00  0.00    -0.350 N
ENDROOT
BRANCH   1   2
HETATM    2  C5  UNL     1      20.378  30.741  15.084  1.00  0.00     0.125 C
BRANCH   2   3
HETATM    3  C4  UNL     1      21.825  30.644  14.765  1.00  0.00     0.020 C
BRANCH   3   4
HETATM    4  C3  UNL     1      21.991  29.625  13.637  1.00  0.00     0.001 C
BRANCH   4   5
HETATM    5  C2  UNL     1      22.651  30.185  12.422  1.00  0.00    -0.004 C
HETATM    6  C1  UNL     1      23.300  29.003  11.689  1.00  0.00     0.005 C
ENDBRANCH   4   5
ENDBRANCH   3   4
ENDBRANCH   2   3
ENDBRANCH   1   2
BRANCH   1   7
HETATM    7  C6  UNL     1      20.307  33.214  14.971  1.00  0.00     0.138 C
BRANCH   7   8
HETATM    8  O1  UNL     1      20.782  33.890  13.945  1.00  0.00    -0.348 OA
ATOM      9  H1  UNL     1      21.175  34.733  14.135  1.00  0.00     0.219 HD
ENDBRANCH   7   8
BRANCH   7  10
HETATM   10  C7  UNL     1      20.491  33.949  16.222  1.00  0.00     0.167 C
BRANCH  10  11
HETATM   11  C8  UNL     1      21.862  34.238  16.702  1.00  0.00     0.133 C
BRANCH  11  12
HETATM   12  C9  UNL     1      22.373  35.588  16.524  1.00  0.00     0.233 C
HETATM   13  N2  UNL     1      22.433  36.213  15.265  1.00  0.00    -0.062 NA
HETATM   14  O2  UNL     1      22.784  36.241  17.513  1.00  0.00    -0.277 OA
ENDBRANCH  11  12
ENDBRANCH  10  11
BRANCH  10  15
HETATM   15  N3  UNL     1      19.698  35.183  16.141  1.00  0.00    -0.349 N
HETATM   16  C10 UNL     1      18.846  35.637  17.186  1.00  0.00     0.218 C
HETATM   17  O3  UNL     1      18.798  34.907  18.210  1.00  0.00    -0.274 OA
ATOM     18  H3  UNL     1      19.762  35.743  15.291  1.00  0.00     0.163 HD
BRANCH  16  19
HETATM   19  C11 UNL     1      18.122  36.882  16.975  1.00  0.00     0.107 C
BRANCH  19  20
HETATM   20  C12 UNL     1      18.908  38.051  16.561  1.00  0.00    -0.006 C
HETATM   21  C13 UNL     1      18.067  39.332  16.501  1.00  0.00     0.005 C
HETATM   22  C14 UNL     1      18.836  40.292  15.621  1.00  0.00     0.000 C
HETATM   23  C15 UNL     1      20.236  39.865  15.330  1.00  0.00     0.000 C
HETATM   24  C16 UNL     1      20.986  39.302  16.504  1.00  0.00     0.000 C
HETATM   25  C17 UNL     1      20.112  38.400  17.385  1.00  0.00     0.005 C
ENDBRANCH  19  20
ENDBRANCH  16  19
ENDBRANCH  10  15
ENDBRANCH   7  10
ENDBRANCH   1   7
BRANCH   1  26
HETATM   26  C18 UNL     1      18.404  31.797  14.015  1.00  0.00     0.178 C
BRANCH  26  27
HETATM   27  C19 UNL     1      17.382  31.367  14.949  1.00  0.00     0.040 C
BRANCH  27  28
HETATM   28  C20 UNL     1      16.260  32.192  15.398  1.00  0.00    -0.009 C
HETATM   29  C21 UNL     1      14.982  32.210  14.654  1.00  0.00     0.024 C
HETATM   30  C22 UNL     1      13.907  32.547  15.740  1.00  0.00     0.114 C
HETATM   31  N4  UNL     1      14.188  33.868  16.256  1.00  0.00    -0.421 N
HETATM   32  C23 UNL     1      15.517  34.080  16.717  1.00  0.00     0.114 C
ATOM     33  H4  UNL     1      13.480  34.601  16.288  1.00  0.00     0.153 HD
HETATM   34  C24 UNL     1      16.592  33.642  15.731  1.00  0.00     0.024 C
ENDBRANCH  27  28
ENDBRANCH  26  27
BRANCH  26  35
HETATM   35  C25 UNL     1      18.690  31.102  12.768  1.00  0.00     0.241 C
HETATM   36  O4  UNL     1      19.459  31.639  11.939  1.00  0.00    -0.271 OA
HETATM   37  N5  UNL     1      18.152  29.857  12.415  1.00  0.00    -0.354 N
ATOM     38  H5  UNL     1      17.530  29.434  13.106  1.00  0.00     0.162 HD
BRANCH  37  39
HETATM   39  C26 UNL     1      18.352  29.098  11.222  1.00  0.00     0.092 C
HETATM   40  C27 UNL     1      17.130  28.230  11.030  1.00  0.00     0.009 C
HETATM   41  C28 UNL     1      16.726  28.041   9.607  1.00  0.00     0.007 C
HETATM   42  C33 UNL     1      17.209  26.907  11.713  1.00  0.00     0.011 C
HETATM   43  C29 UNL     1      17.815  27.784   8.634  1.00  0.00     0.005 C
HETATM   44  C30 UNL     1      18.981  27.004   9.127  1.00  0.00    -0.014 C
HETATM   45  C31 UNL     1      18.642  25.847   9.998  1.00  0.00     0.009 C
HETATM   46  C36 UNL     1      19.974  27.962   9.733  1.00  0.00     0.011 C
HETATM   47  C32 UNL     1      18.499  26.202  11.453  1.00  0.00    -0.013 C
HETATM   48  C34 UNL     1      19.617  27.062  11.966  1.00  0.00     0.011 C
HETATM   49  C35 UNL     1      19.633  28.339  11.161  1.00  0.00     0.009 C
ENDBRANCH  37  39
ENDBRANCH  26  35
ENDBRANCH   1  26
TORSDOF 17
ENDMDL