MODEL 4
REMARK VINA RESULT: -9.040358268      2.789     10.056
REMARK  19 active torsions:
REMARK  status: ('A' for Active; 'I' for Inactive)
REMARK    1  A    between atoms: C3_3  and  C4_4
REMARK    2  A    between atoms: C6_11  and  C7_12
REMARK    3  A    between atoms: C7_12  and  C8_13
REMARK    4  A    between atoms: C11_16  and  O2_17
REMARK    5  A    between atoms: O2_17  and  C12_18
REMARK    6  A    between atoms: C12_18  and  C13_19
REMARK    7  A    between atoms: C13_19  and  O3_20
REMARK    8  A    between atoms: C13_19  and  C14_22
REMARK    9  A    between atoms: C18_26  and  C19_27
REMARK   10  A    between atoms: C19_27  and  C20_28
REMARK   11  A    between atoms: C20_28  and  C21_29
REMARK   12  A    between atoms: N4_34  and  C24_36
REMARK   13  A    between atoms: C24_36  and  C25_37
REMARK   14  A    between atoms: C25_37  and  C26_38
REMARK   15  A    between atoms: C26_38  and  C27_39
REMARK   16  A    between atoms: C27_39  and  C28_40
REMARK   17  A    between atoms: C31_43  and  N5_44
REMARK   18  A    between atoms: N5_44  and  C33_46
REMARK   19  A    between atoms: C33_46  and  C34_47
ROOT
HETATM    1  C8  UNL     1      19.114  35.174  16.767  1.00  0.00     0.019 A
HETATM    2  C9  UNL     1      20.080  36.150  16.672  1.00  0.00    -0.012 A
HETATM    3  C10 UNL     1      19.918  37.523  17.208  1.00  0.00     0.052 C
HETATM    4  C11 UNL     1      21.239  35.896  15.916  1.00  0.00     0.102 A
HETATM    5  C18 UNL     1      21.470  34.745  15.240  1.00  0.00     0.064 A
HETATM    6  N3  UNL     1      20.485  33.770  15.346  1.00  0.00    -0.340 N
ATOM      7  H3  UNL     1      20.612  32.879  14.865  1.00  0.00     0.167 HD
HETATM    8  C23 UNL     1      19.383  33.973  16.061  1.00  0.00     0.112 A
HETATM    9  N4  UNL     1      18.484  33.054  16.102  1.00  0.00    -0.376 N
ATOM     10  H4  UNL     1      17.643  33.254  16.643  1.00  0.00     0.161 HD
ENDROOT
BRANCH   1  11
HETATM   11  C7  UNL     1      18.074  35.203  17.528  1.00  0.00     0.048 C
BRANCH  11  12
HETATM   12  C6  UNL     1      16.809  35.870  17.511  1.00  0.00     0.064 A
HETATM   13  C4  UNL     1      15.571  35.337  17.209  1.00  0.00     0.063 A
HETATM   14  N1  UNL     1      14.646  36.330  17.382  1.00  0.00    -0.307 N
HETATM   15  C5  UNL     1      15.277  37.424  17.772  1.00  0.00     0.325 A
ATOM     16  H1  UNL     1      13.641  36.241  17.236  1.00  0.00     0.170 HD
HETATM   17  O1  UNL     1      14.672  38.511  18.009  1.00  0.00    -0.247 OA
HETATM   18  N2  UNL     1      16.579  37.145  17.850  1.00  0.00    -0.306 N
ATOM     19  H2  UNL     1      17.299  37.810  18.129  1.00  0.00     0.170 HD
BRANCH  13  20
HETATM   20  C3  UNL     1      15.225  34.004  16.782  1.00  0.00     0.027 C
HETATM   21  C2  UNL     1      15.017  33.560  15.579  1.00  0.00    -0.029 C
HETATM   22  C1  UNL     1      14.668  32.109  15.406  1.00  0.00     0.036 C
ENDBRANCH  13  20
ENDBRANCH  11  12
ENDBRANCH   1  11
BRANCH   9  23
HETATM   23  C24 UNL     1      18.554  31.774  15.458  1.00  0.00     0.121 C
BRANCH  23  24
HETATM   24  C25 UNL     1      18.109  32.024  14.010  1.00  0.00     0.020 C
BRANCH  24  25
HETATM   25  C26 UNL     1      18.359  30.731  13.283  1.00  0.00     0.006 C
BRANCH  25  26
HETATM   26  C27 UNL     1      19.088  30.976  12.010  1.00  0.00     0.038 C
BRANCH  26  27
HETATM   27  C28 UNL     1      19.720  29.743  11.512  1.00  0.00    -0.058 A
HETATM   28  C29 UNL     1      20.987  29.758  10.935  1.00  0.00     0.009 A
HETATM   29  C30 UNL     1      21.567  28.608  10.493  1.00  0.00     0.030 A
HETATM   30  C31 UNL     1      20.954  27.350  10.581  1.00  0.00     0.036 A
HETATM   31  C35 UNL     1      19.692  27.333  11.155  1.00  0.00    -0.035 A
HETATM   32  C36 UNL     1      18.978  26.036  11.288  1.00  0.00     0.050 C
HETATM   33  C37 UNL     1      19.105  28.504  11.603  1.00  0.00     0.016 A
BRANCH  30  34
HETATM   34  N5  UNL     1      21.625  26.215  10.108  1.00  0.00    -0.378 N
HETATM   35  C32 UNL     1      21.396  25.797   8.715  1.00  0.00     0.150 C
BRANCH  34  36
HETATM   36  C33 UNL     1      22.512  25.435  10.894  1.00  0.00     0.191 C
BRANCH  36  37
HETATM   37  C34 UNL     1      23.923  25.622  10.551  1.00  0.00     0.250 C
HETATM   38  O4  UNL     1      24.802  25.169  11.254  1.00  0.00    -0.305 OA
ENDBRANCH  36  37
ENDBRANCH  34  36
ENDBRANCH  30  34
ENDBRANCH  26  27
ENDBRANCH  25  26
ENDBRANCH  24  25
ENDBRANCH  23  24
ENDBRANCH   9  23
BRANCH   5  39
HETATM   39  C19 UNL     1      22.314  34.595  14.240  1.00  0.00     0.006 C
BRANCH  39  40
HETATM   40  C20 UNL     1      23.110  33.426  13.920  1.00  0.00     0.029 C
BRANCH  40  41
HETATM   41  C21 UNL     1      22.479  32.248  13.262  1.00  0.00    -0.001 C
HETATM   42  C22 UNL     1      22.273  31.070  14.146  1.00  0.00     0.005 C
ENDBRANCH  40  41
ENDBRANCH  39  40
ENDBRANCH   5  39
BRANCH   4  43
HETATM   43  O2  UNL     1      22.185  36.905  15.894  1.00  0.00    -0.346 OA
BRANCH  43  44
HETATM   44  C12 UNL     1      23.317  37.053  16.669  1.00  0.00     0.208 C
BRANCH  44  45
HETATM   45  C13 UNL     1      23.977  38.212  17.169  1.00  0.00     0.149 C
BRANCH  45  46
HETATM   46  O3  UNL     1      24.123  37.940  18.618  1.00  0.00    -0.393 OA
ATOM     47  H3  UNL     1      24.815  38.530  18.893  1.00  0.00     0.210 HD
ENDBRANCH  45  46
BRANCH  45  48
HETATM   48  C14 UNL     1      23.718  39.633  17.107  1.00  0.00    -0.023 C
HETATM   49  C15 UNL     1      23.615  40.345  15.818  1.00  0.00     0.017 C
HETATM   50  C16 UNL     1      22.589  40.095  18.040  1.00  0.00     0.017 C
HETATM   51  C17 UNL     1      24.985  40.270  17.840  1.00  0.00     0.017 C
ENDBRANCH  45  48
ENDBRANCH  44  45
ENDBRANCH  43  44
ENDBRANCH   4  43
TORSDOF 19
ENDMDL