MODEL 1
REMARK VINA RESULT: -10.110852903      0.000      0.000
REMARK  15 active torsions:
REMARK  status: ('A' for Active; 'I' for Inactive)
REMARK    1  A    between atoms: C3_4  and  C4_5
REMARK       I    between atoms: C4_5  and  N2_7
REMARK    2  A    between atoms: N2_7  and  C5_9
REMARK    3  A    between atoms: C5_9  and  C6_10
REMARK    4  A    between atoms: C6_10  and  C7_11
REMARK    5  A    between atoms: C7_11  and  C8_12
REMARK    6  A    between atoms: C8_12  and  C9_13
REMARK    7  A    between atoms: C9_13  and  C10_14
REMARK    8  A    between atoms: C10_14  and  C11_15
REMARK    9  A    between atoms: C11_15  and  C12_16
REMARK   10  A    between atoms: C12_16  and  C13_17
REMARK   11  A    between atoms: C13_17  and  C14_18
REMARK   12  A    between atoms: C14_18  and  N3_19
REMARK       I    between atoms: N3_19  and  C15_21
REMARK       I    between atoms: C15_21  and  N5_28
REMARK   13  A    between atoms: N4_22  and  S1_24
REMARK   14  A    between atoms: N5_28  and  C17_30
REMARK   15  A    between atoms: C17_30  and  C18_31
REMARK       I    between atoms: N6_45  and  C32_46
ROOT
HETATM    1  C12 UNL     1      24.116  27.409   8.694  1.00  0.00     0.002 C
ENDROOT
BRANCH   1   2
HETATM    2  C11 UNL     1      24.259  28.369   9.803  1.00  0.00     0.000 C
BRANCH   2   3
HETATM    3  C10 UNL     1      25.311  27.968  10.822  1.00  0.00     0.000 C
BRANCH   3   4
HETATM    4  C9  UNL     1      24.877  28.374  12.203  1.00  0.00     0.000 C
BRANCH   4   5
HETATM    5  C8  UNL     1      23.410  28.062  12.378  1.00  0.00     0.000 C
BRANCH   5   6
HETATM    6  C7  UNL     1      22.686  29.127  13.150  1.00  0.00     0.002 C
BRANCH   6   7
HETATM    7  C6  UNL     1      22.423  30.379  12.381  1.00  0.00     0.020 C
BRANCH   7   8
HETATM    8  C5  UNL     1      22.558  31.632  13.196  1.00  0.00     0.123 C
BRANCH   8   9
HETATM    9  N2  UNL     1      21.254  32.144  13.539  1.00  0.00    -0.357 N
HETATM   10  C4  UNL     1      20.647  31.896  14.806  1.00  0.00     0.253 C
HETATM   11  O1  UNL     1      21.264  31.210  15.657  1.00  0.00    -0.268 OA
ATOM     12  H2  UNL     1      20.748  32.703  12.852  1.00  0.00     0.162 HD
BRANCH  10  13
HETATM   13  C3  UNL     1      19.330  32.411  15.151  1.00  0.00     0.048 A
HETATM   14  C2  UNL     1      19.221  33.422  16.053  1.00  0.00     0.109 A
HETATM   15  N1  UNL     1      18.047  33.991  16.462  1.00  0.00    -0.345 N
HETATM   16  C1  UNL     1      18.086  35.066  17.427  1.00  0.00     0.157 C
HETATM   17  C33 UNL     1      16.906  33.514  15.932  1.00  0.00     0.127 A
HETATM   18  C29 UNL     1      16.973  32.470  14.996  1.00  0.00     0.011 A
HETATM   19  N6  UNL     1      15.604  33.871  16.140  1.00  0.00    -0.262 N
HETATM   20  C28 UNL     1      18.172  31.923  14.610  1.00  0.00     0.033 A
HETATM   21  C30 UNL     1      15.676  32.187  14.627  1.00  0.00     0.033 A
HETATM   22  C31 UNL     1      14.868  33.023  15.310  1.00  0.00     0.104 A
HETATM   23  C32 UNL     1      15.002  34.831  16.951  1.00  0.00     0.340 C
HETATM   24  N7  UNL     1      13.535  34.894  16.874  1.00  0.00    -0.039 NA
HETATM   25  O4  UNL     1      15.413  35.644  17.724  1.00  0.00    -0.250 OA
ENDBRANCH  10  13
ENDBRANCH   8   9
ENDBRANCH   7   8
ENDBRANCH   6   7
ENDBRANCH   5   6
ENDBRANCH   4   5
ENDBRANCH   3   4
ENDBRANCH   2   3
ENDBRANCH   1   2
BRANCH   1  26
HETATM   26  C13 UNL     1      24.535  25.999   8.871  1.00  0.00     0.020 C
BRANCH  26  27
HETATM   27  C14 UNL     1      23.521  24.986   9.221  1.00  0.00     0.138 C
BRANCH  27  28
HETATM   28  N3  UNL     1      22.873  24.234   8.208  1.00  0.00    -0.226 N
HETATM   29  C15 UNL     1      21.634  24.724   7.618  1.00  0.00     0.683 C
HETATM   30  N4  UNL     1      21.286  24.309   6.476  1.00  0.00    -0.117 N
HETATM   31  N5  UNL     1      20.874  25.657   8.381  1.00  0.00    -0.225 N
ATOM     32  H4  UNL     1      20.409  24.692   6.121  1.00  0.00     0.197 HD
ATOM     33  H5  UNL     1      21.031  26.660   8.283  1.00  0.00     0.177 HD
ATOM     34  H3  UNL     1      23.274  23.351   7.891  1.00  0.00     0.177 HD
BRANCH  30  35
HETATM   35  S1  UNL     1      22.063  23.210   5.450  1.00  0.00     0.240 S
HETATM   36  C16 UNL     1      21.110  23.024   3.931  1.00  0.00     0.186 C
HETATM   37  O2  UNL     1      23.462  23.635   5.071  1.00  0.00    -0.206 OA
HETATM   38  O3  UNL     1      22.105  21.820   6.056  1.00  0.00    -0.206 OA
ENDBRANCH  30  35
BRANCH  31  39
HETATM   39  C17 UNL     1      19.875  25.151   9.298  1.00  0.00     0.147 C
BRANCH  39  40
HETATM   40  C18 UNL     1      19.198  26.265  10.059  1.00  0.00    -0.023 C
HETATM   41  C19 UNL     1      18.149  25.672  10.955  1.00  0.00     0.015 C
HETATM   42  C20 UNL     1      17.396  26.784  11.677  1.00  0.00    -0.013 C
HETATM   43  C21 UNL     1      18.390  27.560  12.485  1.00  0.00     0.009 C
HETATM   44  C25 UNL     1      16.723  27.709  10.692  1.00  0.00     0.009 C
HETATM   45  C22 UNL     1      19.440  28.165  11.577  1.00  0.00    -0.013 C
HETATM   46  C23 UNL     1      18.813  29.058  10.534  1.00  0.00     0.009 C
HETATM   47  C27 UNL     1      20.186  27.065  10.843  1.00  0.00     0.015 C
HETATM   48  C24 UNL     1      17.790  28.265   9.780  1.00  0.00    -0.013 C
HETATM   49  C26 UNL     1      18.499  27.159   9.042  1.00  0.00     0.015 C
ENDBRANCH  39  40
ENDBRANCH  31  39
ENDBRANCH  27  28
ENDBRANCH  26  27
ENDBRANCH   1  26
TORSDOF 15
ENDMDL