MODEL 4
REMARK VINA RESULT: -8.549503829      2.086      3.982
REMARK  17 active torsions:
REMARK  status: ('A' for Active; 'I' for Inactive)
REMARK    1  A    between atoms: C2_2  and  C3_3
REMARK    2  A    between atoms: C3_3  and  C5_5
REMARK    3  A    between atoms: C5_5  and  N1_6
REMARK    4  A    between atoms: N1_6  and  C6_7
REMARK    5  A    between atoms: N1_6  and  C9_10
REMARK    6  A    between atoms: C9_10  and  C10_11
REMARK       I    between atoms: C10_11  and  N2_13
REMARK    7  A    between atoms: N2_13  and  C11_15
REMARK    8  A    between atoms: C11_15  and  C12_16
REMARK    9  A    between atoms: C12_16  and  C13_17
REMARK   10  A    between atoms: C13_17  and  C14_18
REMARK   11  A    between atoms: C17_23  and  C18_24
REMARK       I    between atoms: C18_24  and  N3_26
REMARK   12  A    between atoms: N3_26  and  C19_28
REMARK   13  A    between atoms: C19_28  and  C20_29
REMARK   14  A    between atoms: C19_28  and  C22_31
REMARK   15  A    between atoms: C22_31  and  N4_34
REMARK   16  A    between atoms: C28_38  and  C29_39
REMARK       I    between atoms: C29_39  and  N5_41
REMARK   17  A    between atoms: N5_41  and  C30_43
ROOT
HETATM    1  C9  UNL     1      21.507  36.598  16.488  1.00  0.00     0.117 C
HETATM    2  C15 UNL     1      22.343  35.644  17.271  1.00  0.00     0.042 C
HETATM    3  C16 UNL     1      22.484  34.240  16.663  1.00  0.00     0.017 C
HETATM    4  C17 UNL     1      21.163  33.616  16.418  1.00  0.00     0.078 C
HETATM    5  C34 UNL     1      20.373  34.532  15.559  1.00  0.00     0.017 C
HETATM    6  C35 UNL     1      21.148  35.804  15.212  1.00  0.00     0.042 C
ENDROOT
BRANCH   4   7
HETATM    7  C18 UNL     1      21.330  32.226  15.866  1.00  0.00     0.222 C
HETATM    8  O4  UNL     1      22.244  31.571  16.477  1.00  0.00    -0.273 OA
HETATM    9  N3  UNL     1      20.590  31.702  14.828  1.00  0.00    -0.354 N
ATOM     10  H3  UNL     1      19.897  32.363  14.477  1.00  0.00     0.163 HD
BRANCH   9  11
HETATM   11  C19 UNL     1      20.557  30.455  14.122  1.00  0.00     0.111 C
BRANCH  11  12
HETATM   12  C20 UNL     1      19.114  29.954  13.912  1.00  0.00     0.023 C
HETATM   13  C21 UNL     1      18.072  30.794  14.564  1.00  0.00     0.007 C
ENDBRANCH  11  12
BRANCH  11  14
HETATM   14  C22 UNL     1      21.240  30.510  12.812  1.00  0.00     0.042 C
HETATM   15  C23 UNL     1      20.332  31.214  11.825  1.00  0.00     0.040 C
HETATM   16  C24 UNL     1      22.329  31.662  13.023  1.00  0.00     0.040 C
BRANCH  14  17
HETATM   17  N4  UNL     1      21.939  29.468  12.281  1.00  0.00    -0.390 N
HETATM   18  C25 UNL     1      22.557  28.408  12.898  1.00  0.00     0.118 C
HETATM   19  C26 UNL     1      23.447  27.701  11.859  1.00  0.00     0.022 C
HETATM   20  C27 UNL     1      23.334  28.569  10.661  1.00  0.00     0.036 C
HETATM   21  C28 UNL     1      21.957  29.258  10.851  1.00  0.00     0.172 C
BRANCH  21  22
HETATM   22  C29 UNL     1      20.980  28.215  10.469  1.00  0.00     0.240 C
HETATM   23  O5  UNL     1      21.201  27.554   9.414  1.00  0.00    -0.271 OA
HETATM   24  N5  UNL     1      19.825  27.968  11.270  1.00  0.00    -0.351 N
ATOM     25  H5  UNL     1      19.675  28.525  12.111  1.00  0.00     0.163 HD
BRANCH  24  26
HETATM   26  C30 UNL     1      18.859  26.944  10.918  1.00  0.00     0.022 C
HETATM   27  C31 UNL     1      17.820  26.901  12.002  1.00  0.00     0.037 C
HETATM   28  C32 UNL     1      19.532  25.582  10.855  1.00  0.00     0.037 C
HETATM   29  C33 UNL     1      18.218  27.304   9.609  1.00  0.00     0.037 C
ENDBRANCH  24  26
ENDBRANCH  21  22
ENDBRANCH  14  17
ENDBRANCH  11  14
ENDBRANCH   9  11
ENDBRANCH   4   7
BRANCH   1  30
HETATM   30  N1  UNL     1      22.074  37.871  16.194  1.00  0.00    -0.346 N
BRANCH  30  31
HETATM   31  C5  UNL     1      22.279  38.145  14.858  1.00  0.00     0.094 C
BRANCH  31  32
HETATM   32  C3  UNL     1      21.509  39.095  14.020  1.00  0.00    -0.069 C
HETATM   33  C4  UNL     1      21.940  39.265  12.583  1.00  0.00     0.044 C
BRANCH  32  34
HETATM   34  C2  UNL     1      21.168  40.423  14.648  1.00  0.00     0.030 C
HETATM   35  C1  UNL     1      22.306  41.410  14.619  1.00  0.00     0.010 C
ENDBRANCH  32  34
ENDBRANCH  31  32
ENDBRANCH  30  31
BRANCH  30  36
HETATM   36  C6  UNL     1      22.912  38.468  17.146  1.00  0.00    -0.018 C
HETATM   37  C7  UNL     1      22.506  39.615  17.979  1.00  0.00     0.063 C
HETATM   38  C8  UNL     1      24.316  38.760  16.677  1.00  0.00     0.063 C
ENDBRANCH  30  36
ENDBRANCH   1  30
BRANCH   1  39
HETATM   39  C10 UNL     1      20.103  36.727  17.056  1.00  0.00     0.246 C
HETATM   40  O1  UNL     1      19.736  36.135  18.099  1.00  0.00    -0.271 OA
HETATM   41  N2  UNL     1      19.151  37.527  16.417  1.00  0.00    -0.359 N
ATOM     42  H2  UNL     1      19.418  38.014  15.562  1.00  0.00     0.162 HD
BRANCH  41  43
HETATM   43  C11 UNL     1      17.785  37.695  16.922  1.00  0.00     0.123 C
BRANCH  43  44
HETATM   44  C12 UNL     1      16.779  36.877  16.171  1.00  0.00     0.030 C
BRANCH  44  45
HETATM   45  C13 UNL     1      15.804  36.249  17.142  1.00  0.00     0.114 C
BRANCH  45  46
HETATM   46  C14 UNL     1      16.026  34.801  17.314  1.00  0.00     0.172 C
HETATM   47  O2  UNL     1      15.063  34.078  17.660  1.00  0.00    -0.648 OA
HETATM   48  O3  UNL     1      17.244  34.179  17.121  1.00  0.00    -0.648 OA
ENDBRANCH  45  46
ENDBRANCH  44  45
ENDBRANCH  43  44
ENDBRANCH  41  43
ENDBRANCH   1  39
TORSDOF 17
ENDMDL