MODEL 2
REMARK VINA RESULT: -7.917055055      1.663      2.563
REMARK  16 active torsions:
REMARK  status: ('A' for Active; 'I' for Inactive)
REMARK    1  A    between atoms: C2_2  and  C3_3
REMARK    2  A    between atoms: C4_4  and  C5_5
REMARK    3  A    between atoms: C6_6  and  C7_7
REMARK    4  A    between atoms: C13_13  and  N1_14
REMARK       I    between atoms: N1_14  and  C14_16
REMARK    5  A    between atoms: C14_16  and  C15_18
REMARK    6  A    between atoms: C15_18  and  N2_19
REMARK    7  A    between atoms: C15_18  and  C21_27
REMARK       I    between atoms: N2_19  and  C16_21
REMARK    8  A    between atoms: C16_21  and  C17_23
REMARK    9  A    between atoms: C17_23  and  C18_24
REMARK       I    between atoms: C21_27  and  N3_29
REMARK   10  A    between atoms: N3_29  and  C22_31
REMARK   11  A    between atoms: C22_31  and  C23_32
REMARK   12  A    between atoms: C23_32  and  C24_33
REMARK   13  A    between atoms: C24_33  and  C25_34
REMARK   14  A    between atoms: N5_44  and  C31_45
REMARK   15  A    between atoms: C31_45  and  C32_46
REMARK   16  A    between atoms: C32_46  and  C33_47
ROOT
HETATM    1  N1  UNL     1      19.774  31.790  12.740  1.00  0.00    -0.353 N
ATOM      2  H1  UNL     1      20.776  31.977  12.794  1.00  0.00     0.163 HD
HETATM    3  C14 UNL     1      19.011  32.243  13.813  1.00  0.00     0.250 C
HETATM    4  O1  UNL     1      17.750  31.998  13.823  1.00  0.00    -0.271 OA
ENDROOT
BRANCH   3   5
HETATM    5  C15 UNL     1      19.489  33.006  14.994  1.00  0.00     0.269 C
BRANCH   5   6
HETATM    6  N2  UNL     1      20.473  34.005  14.693  1.00  0.00    -0.340 N
HETATM    7  C16 UNL     1      21.645  34.241  15.470  1.00  0.00     0.218 C
HETATM    8  O2  UNL     1      21.842  33.520  16.469  1.00  0.00    -0.274 OA
ATOM      9  H2  UNL     1      20.324  34.587  13.869  1.00  0.00     0.163 HD
BRANCH   7  10
HETATM   10  C17 UNL     1      22.615  35.302  15.133  1.00  0.00     0.106 C
BRANCH  10  11
HETATM   11  C18 UNL     1      22.181  36.656  15.687  1.00  0.00    -0.014 C
HETATM   12  C19 UNL     1      21.858  37.559  14.499  1.00  0.00     0.010 C
HETATM   13  C20 UNL     1      23.333  37.303  16.431  1.00  0.00     0.010 C
ENDBRANCH  10  11
ENDBRANCH   7  10
ENDBRANCH   5   6
BRANCH   5  14
HETATM   14  C21 UNL     1      18.372  33.466  15.839  1.00  0.00     0.253 C
HETATM   15  O3  UNL     1      18.261  33.194  17.054  1.00  0.00    -0.270 OA
HETATM   16  N3  UNL     1      17.317  34.277  15.275  1.00  0.00    -0.339 N
ATOM     17  H3  UNL     1      17.374  34.510  14.284  1.00  0.00     0.167 HD
BRANCH  16  18
HETATM   18  C22 UNL     1      16.219  34.764  16.003  1.00  0.00     0.064 C
BRANCH  18  19
HETATM   19  C23 UNL     1      16.328  35.866  16.970  1.00  0.00     0.045 C
BRANCH  19  20
HETATM   20  C24 UNL     1      16.992  37.098  16.501  1.00  0.00     0.010 C
BRANCH  20  21
HETATM   21  C25 UNL     1      16.286  38.397  16.667  1.00  0.00    -0.011 C
HETATM   22  C26 UNL     1      17.311  39.523  16.631  1.00  0.00     0.032 C
HETATM   23  C27 UNL     1      18.146  39.516  17.868  1.00  0.00     0.232 C
HETATM   24  N4  UNL     1      17.348  39.852  19.017  1.00  0.00    -0.075 N
HETATM   25  C28 UNL     1      15.937  39.646  18.836  1.00  0.00     0.232 C
ATOM     26  H42 UNL     1      17.679  39.350  19.841  1.00  0.00     0.277 HD
ATOM     27  H41 UNL     1      17.534  40.810  19.313  1.00  0.00     0.277 HD
HETATM   28  C29 UNL     1      15.656  38.378  18.054  1.00  0.00     0.032 C
ENDBRANCH  20  21
ENDBRANCH  19  20
ENDBRANCH  18  19
ENDBRANCH  16  18
ENDBRANCH   5  14
ENDBRANCH   3   5
BRANCH   1  29
HETATM   29  C13 UNL     1      19.320  31.085  11.558  1.00  0.00     0.104 A
HETATM   30  C11 UNL     1      19.745  29.668  11.276  1.00  0.00     0.073 A
HETATM   31  C4  UNL     1      20.321  28.845  12.365  1.00  0.00     0.055 C
HETATM   32  C12 UNL     1      20.409  30.757  10.533  1.00  0.00     0.048 A
HETATM   33  C30 UNL     1      18.859  28.750  10.545  1.00  0.00     0.236 C
HETATM   34  C3  UNL     1      19.608  27.545  12.353  1.00  0.00     0.123 C
HETATM   35  N5  UNL     1      18.635  27.580  11.301  1.00  0.00    -0.319 N
HETATM   36  O4  UNL     1      18.356  28.955   9.397  1.00  0.00    -0.272 OA
BRANCH  31  37
HETATM   37  C5  UNL     1      21.798  28.775  12.164  1.00  0.00    -0.022 C
HETATM   38  C6  UNL     1      22.525  27.825  11.707  1.00  0.00    -0.022 C
BRANCH  38  39
HETATM   39  C7  UNL     1      24.012  27.978  11.594  1.00  0.00    -0.034 C
HETATM   40  C8  UNL     1      24.675  26.599  11.567  1.00  0.00     0.018 C
HETATM   41  C9  UNL     1      24.577  28.820  12.698  1.00  0.00     0.018 C
HETATM   42  C10 UNL     1      24.396  28.632  10.264  1.00  0.00     0.018 C
ENDBRANCH  38  39
ENDBRANCH  31  37
BRANCH  34  43
HETATM   43  C2  UNL     1      18.757  27.503  13.629  1.00  0.00    -0.011 C
HETATM   44  C1  UNL     1      18.525  28.609  14.305  1.00  0.00     0.009 C
ENDBRANCH  34  43
BRANCH  35  45
HETATM   45  C31 UNL     1      17.546  26.675  11.112  1.00  0.00     0.091 C
BRANCH  45  46
HETATM   46  C32 UNL     1      17.729  25.227  11.062  1.00  0.00    -0.005 C
BRANCH  46  47
HETATM   47  C33 UNL     1      18.806  24.563  10.322  1.00  0.00     0.009 C
HETATM   48  C34 UNL     1      19.978  24.216  11.157  1.00  0.00     0.008 C
HETATM   49  C35 UNL     1      21.223  24.658  10.418  1.00  0.00     0.001 C
HETATM   50  C36 UNL     1      20.816  25.244   9.106  1.00  0.00     0.001 C
HETATM   51  C37 UNL     1      19.339  25.421   9.183  1.00  0.00     0.008 C
ENDBRANCH  46  47
ENDBRANCH  45  46
ENDBRANCH  35  45
ENDBRANCH   1  29
TORSDOF 16
ENDMDL