MODEL 4
REMARK VINA RESULT: -9.797872891      1.801      4.868
REMARK  15 active torsions:
REMARK  status: ('A' for Active; 'I' for Inactive)
REMARK    1  A    between atoms: C2_2  and  C3_3
REMARK    2  A    between atoms: C3_3  and  C4_4
REMARK    3  A    between atoms: C4_4  and  C5_5
REMARK    4  A    between atoms: C5_5  and  N1_6
REMARK    5  A    between atoms: C5_5  and  C23_32
REMARK       I    between atoms: N1_6  and  C6_8
REMARK    6  A    between atoms: C6_8  and  C7_10
REMARK    7  A    between atoms: C7_10  and  C8_11
REMARK    8  A    between atoms: C7_10  and  N2_18
REMARK    9  A    between atoms: C8_11  and  C9_12
REMARK       I    between atoms: N2_18  and  C15_20
REMARK   10  A    between atoms: C15_20  and  C16_22
REMARK   11  A    between atoms: C16_22  and  C17_23
REMARK   12  A    between atoms: C16_22  and  N3_27
REMARK   13  A    between atoms: C17_23  and  C18_24
REMARK       I    between atoms: N3_27  and  C21_29
REMARK       I    between atoms: C23_32  and  N4_34
REMARK   14  A    between atoms: N4_34  and  C24_36
REMARK   15  A    between atoms: C24_36  and  C26_38
REMARK       I    between atoms: C26_38  and  N5_40
ROOT
HETATM    1  N1  UNL     1      19.117  33.538  15.006  1.00  0.00    -0.342 N
ATOM      2  H1  UNL     1      19.915  33.614  14.374  1.00  0.00     0.163 HD
HETATM    3  C6  UNL     1      19.284  34.113  16.250  1.00  0.00     0.268 C
HETATM    4  O1  UNL     1      18.278  34.092  17.059  1.00  0.00    -0.266 OA
ENDROOT
BRANCH   1   5
HETATM    5  C5  UNL     1      17.971  32.847  14.482  1.00  0.00     0.177 C
BRANCH   5   6
HETATM    6  C4  UNL     1      16.773  32.854  15.379  1.00  0.00     0.035 C
BRANCH   6   7
HETATM    7  C3  UNL     1      15.511  33.111  14.552  1.00  0.00     0.002 C
BRANCH   7   8
HETATM    8  C2  UNL     1      14.349  33.007  15.534  1.00  0.00    -0.004 C
HETATM    9  C1  UNL     1      14.271  34.248  16.413  1.00  0.00     0.005 C
ENDBRANCH   7   8
ENDBRANCH   6   7
ENDBRANCH   5   6
BRANCH   5  10
HETATM   10  C23 UNL     1      18.319  31.474  14.070  1.00  0.00     0.241 C
HETATM   11  O4  UNL     1      18.454  30.572  14.925  1.00  0.00    -0.271 OA
HETATM   12  N4  UNL     1      18.523  31.093  12.713  1.00  0.00    -0.346 N
ATOM     13  H4  UNL     1      18.406  31.787  11.975  1.00  0.00     0.163 HD
BRANCH  12  14
HETATM   14  C24 UNL     1      18.898  29.726  12.359  1.00  0.00     0.172 C
HETATM   15  C25 UNL     1      17.706  29.071  11.633  1.00  0.00     0.042 C
BRANCH  14  16
HETATM   16  C26 UNL     1      19.996  29.733  11.405  1.00  0.00     0.242 C
HETATM   17  O5  UNL     1      19.981  30.653  10.493  1.00  0.00    -0.271 OA
HETATM   18  N5  UNL     1      21.069  28.853  11.367  1.00  0.00    -0.350 N
HETATM   19  C27 UNL     1      22.063  28.938  10.293  1.00  0.00     0.126 C
HETATM   20  C35 UNL     1      21.268  27.862  12.417  1.00  0.00     0.126 C
HETATM   21  C28 UNL     1      23.443  29.100  10.882  1.00  0.00     0.029 C
HETATM   22  C29 UNL     1      23.726  27.972  11.851  1.00  0.00    -0.037 C
HETATM   23  C30 UNL     1      23.876  26.665  11.145  1.00  0.00     0.010 C
HETATM   24  C33 UNL     1      25.071  28.246  12.524  1.00  0.00     0.010 C
HETATM   25  C34 UNL     1      22.700  27.953  12.937  1.00  0.00     0.029 C
HETATM   26  C31 UNL     1      25.306  26.230  11.371  1.00  0.00     0.001 C
HETATM   27  C32 UNL     1      26.020  27.569  11.539  1.00  0.00     0.001 C
ENDBRANCH  14  16
ENDBRANCH  12  14
ENDBRANCH   5  10
ENDBRANCH   1   5
BRANCH   3  28
HETATM   28  C7  UNL     1      20.500  34.730  16.736  1.00  0.00     0.099 C
BRANCH  28  29
HETATM   29  C8  UNL     1      21.779  34.052  16.836  1.00  0.00     0.013 C
BRANCH  29  30
HETATM   30  C9  UNL     1      22.519  33.492  15.706  1.00  0.00     0.010 C
HETATM   31  C10 UNL     1      22.311  31.974  15.727  1.00  0.00     0.008 C
HETATM   32  C11 UNL     1      21.834  31.442  14.400  1.00  0.00     0.001 C
HETATM   33  C12 UNL     1      22.714  31.859  13.253  1.00  0.00     0.000 C
HETATM   34  C13 UNL     1      23.252  33.250  13.403  1.00  0.00     0.001 C
HETATM   35  C14 UNL     1      22.340  34.057  14.352  1.00  0.00     0.008 C
ENDBRANCH  29  30
ENDBRANCH  28  29
BRANCH  28  36
HETATM   36  N2  UNL     1      20.681  36.085  16.224  1.00  0.00    -0.321 N
HETATM   37  C15 UNL     1      20.300  37.237  16.945  1.00  0.00     0.245 C
HETATM   38  O2  UNL     1      19.768  37.131  18.067  1.00  0.00    -0.271 OA
ATOM     39  H2  UNL     1      21.101  36.204  15.303  1.00  0.00     0.169 HD
BRANCH  37  40
HETATM   40  C16 UNL     1      20.524  38.611  16.385  1.00  0.00     0.177 C
BRANCH  40  41
HETATM   41  C17 UNL     1      19.328  39.417  16.797  1.00  0.00     0.038 C
BRANCH  41  42
HETATM   42  C18 UNL     1      18.811  40.390  15.794  1.00  0.00    -0.020 C
HETATM   43  C19 UNL     1      19.565  41.742  15.958  1.00  0.00     0.009 C
HETATM   44  C20 UNL     1      17.366  40.749  15.903  1.00  0.00     0.009 C
ENDBRANCH  41  42
ENDBRANCH  40  41
BRANCH  40  45
HETATM   45  N3  UNL     1      20.715  38.463  14.977  1.00  0.00    -0.348 N
HETATM   46  C21 UNL     1      21.684  39.128  14.193  1.00  0.00     0.214 C
HETATM   47  C22 UNL     1      21.787  38.892  12.742  1.00  0.00     0.117 C
HETATM   48  O3  UNL     1      22.503  39.955  14.721  1.00  0.00    -0.274 OA
ATOM     49  H3  UNL     1      20.093  37.815  14.492  1.00  0.00     0.163 HD
ENDBRANCH  40  45
ENDBRANCH  37  40
ENDBRANCH  28  36
ENDBRANCH   3  28
TORSDOF 15
ENDMDL