MODEL 5
REMARK VINA RESULT: -8.824320887      1.100      2.030
REMARK  15 active torsions:
REMARK  status: ('A' for Active; 'I' for Inactive)
REMARK    1  A    between atoms: C2_2  and  N1_3
REMARK       I    between atoms: N1_3  and  C3_5
REMARK    2  A    between atoms: C3_5  and  C4_7
REMARK       I    between atoms: N2_12  and  C9_13
REMARK    3  A    between atoms: C9_13  and  C10_15
REMARK    4  A    between atoms: C10_15  and  C11_17
REMARK    5  A    between atoms: C11_17  and  N3_18
REMARK    6  A    between atoms: C11_17  and  C25_36
REMARK       I    between atoms: N3_18  and  C12_20
REMARK       I    between atoms: C12_20  and  N4_22
REMARK    7  A    between atoms: N4_22  and  C13_24
REMARK    8  A    between atoms: C13_24  and  C14_25
REMARK    9  A    between atoms: C14_25  and  C15_26
REMARK   10  A    between atoms: C15_26  and  C16_27
REMARK   11  A    between atoms: C16_27  and  C17_28
REMARK   12  A    between atoms: C17_28  and  C18_29
REMARK   13  A    between atoms: C18_29  and  C19_30
REMARK   14  A    between atoms: C19_30  and  C20_31
REMARK       I    between atoms: C25_36  and  N5_38
REMARK   15  A    between atoms: N5_38  and  C26_40
ROOT
HETATM    1  C11 UNL     1      21.047  34.753  16.136  1.00  0.00     0.258 C
ENDROOT
BRANCH   1   2
HETATM    2  C10 UNL     1      20.036  35.161  17.169  1.00  0.00     0.248 C
HETATM    3  O3  UNL     1      20.421  35.449  18.322  1.00  0.00    -0.284 OA
BRANCH   2   4
HETATM    4  C9  UNL     1      18.614  35.211  16.786  1.00  0.00     0.293 C
HETATM    5  N2  UNL     1      17.773  36.319  16.866  1.00  0.00    -0.332 N
HETATM    6  C4  UNL     1      16.380  36.342  16.669  1.00  0.00     0.179 C
HETATM    7  C8  UNL     1      18.396  37.637  17.091  1.00  0.00     0.127 C
HETATM    8  C5  UNL     1      15.872  37.452  17.652  1.00  0.00     0.035 C
HETATM    9  C6  UNL     1      16.165  38.753  16.950  1.00  0.00     0.004 C
HETATM   10  C7  UNL     1      17.580  38.727  16.398  1.00  0.00     0.020 C
HETATM   11  O2  UNL     1      18.217  34.054  16.352  1.00  0.00    -0.264 OA
BRANCH   6  12
HETATM   12  C3  UNL     1      15.551  35.171  16.865  1.00  0.00     0.240 C
HETATM   13  N1  UNL     1      15.258  34.396  15.694  1.00  0.00    -0.360 N
ATOM     14  H1  UNL     1      15.638  34.711  14.801  1.00  0.00     0.162 HD
HETATM   15  O1  UNL     1      15.075  34.771  17.918  1.00  0.00    -0.271 OA
BRANCH  13  16
HETATM   16  C2  UNL     1      14.464  33.207  15.707  1.00  0.00     0.118 C
HETATM   17  C1  UNL     1      15.081  32.030  14.992  1.00  0.00     0.026 C
ENDBRANCH  13  16
ENDBRANCH   6  12
ENDBRANCH   2   4
ENDBRANCH   1   2
BRANCH   1  18
HETATM   18  N3  UNL     1      20.377  34.135  15.040  1.00  0.00    -0.323 N
HETATM   19  C12 UNL     1      20.759  32.866  14.543  1.00  0.00     0.317 C
HETATM   20  O4  UNL     1      21.740  32.329  15.176  1.00  0.00    -0.247 OA
HETATM   21  N4  UNL     1      20.108  32.283  13.469  1.00  0.00    -0.334 N
ATOM     22  H4  UNL     1      19.349  32.812  13.039  1.00  0.00     0.165 HD
ATOM     23  H3  UNL     1      19.597  34.624  14.599  1.00  0.00     0.165 HD
BRANCH  21  24
HETATM   24  C13 UNL     1      20.408  31.001  12.910  1.00  0.00     0.035 A
HETATM   25  C23 UNL     1      20.695  30.819  11.490  1.00  0.00     0.033 A
HETATM   26  C24 UNL     1      21.853  30.863  12.379  1.00  0.00     0.033 A
BRANCH  24  27
HETATM   27  C14 UNL     1      19.978  29.775  13.744  1.00  0.00     0.031 C
BRANCH  27  28
HETATM   28  C15 UNL     1      18.629  29.266  13.395  1.00  0.00     0.002 C
BRANCH  28  29
HETATM   29  C16 UNL     1      18.547  27.782  13.126  1.00  0.00     0.000 C
BRANCH  29  30
HETATM   30  C17 UNL     1      18.251  27.490  11.675  1.00  0.00     0.000 C
BRANCH  30  31
HETATM   31  C18 UNL     1      19.414  26.666  11.127  1.00  0.00     0.000 C
BRANCH  31  32
HETATM   32  C19 UNL     1      20.187  27.520  10.130  1.00  0.00     0.004 C
BRANCH  32  33
HETATM   33  C20 UNL     1      21.636  27.182  10.234  1.00  0.00    -0.023 C
HETATM   34  C21 UNL     1      22.456  28.196   9.444  1.00  0.00     0.009 C
HETATM   35  C22 UNL     1      22.077  27.237  11.690  1.00  0.00     0.009 C
ENDBRANCH  32  33
ENDBRANCH  31  32
ENDBRANCH  30  31
ENDBRANCH  29  30
ENDBRANCH  28  29
ENDBRANCH  27  28
ENDBRANCH  24  27
ENDBRANCH  21  24
ENDBRANCH   1  18
BRANCH   1  36
HETATM   36  C25 UNL     1      21.891  35.890  15.725  1.00  0.00     0.248 C
HETATM   37  O5  UNL     1      23.046  35.670  15.317  1.00  0.00    -0.271 OA
HETATM   38  N5  UNL     1      21.414  37.201  15.780  1.00  0.00    -0.354 N
ATOM     39  H5  UNL     1      20.463  37.348  16.117  1.00  0.00     0.163 HD
BRANCH  38  40
HETATM   40  C26 UNL     1      22.184  38.371  15.389  1.00  0.00     0.092 C
HETATM   41  C27 UNL     1      22.569  39.268  16.513  1.00  0.00     0.009 C
HETATM   42  C28 UNL     1      23.610  40.249  15.953  1.00  0.00     0.011 C
HETATM   43  C32 UNL     1      21.451  40.136  17.039  1.00  0.00     0.011 C
HETATM   44  C29 UNL     1      22.943  41.049  14.859  1.00  0.00    -0.013 C
HETATM   45  C30 UNL     1      21.758  41.847  15.341  1.00  0.00     0.009 C
HETATM   46  C35 UNL     1      22.501  40.127  13.747  1.00  0.00     0.011 C
HETATM   47  C31 UNL     1      20.738  40.855  15.915  1.00  0.00    -0.013 C
HETATM   48  C33 UNL     1      20.312  39.943  14.801  1.00  0.00     0.011 C
HETATM   49  C34 UNL     1      21.480  39.152  14.296  1.00  0.00     0.009 C
ENDBRANCH  38  40
ENDBRANCH   1  36
TORSDOF 15
ENDMDL