MODEL 2
REMARK VINA RESULT: -6.468284790      0.914      1.105
REMARK  16 active torsions:
REMARK  status: ('A' for Active; 'I' for Inactive)
REMARK    1  A    between atoms: C3_3  and  C4_4
REMARK    2  A    between atoms: C4_4  and  S1_5
REMARK    3  A    between atoms: S1_5  and  C5_8
REMARK    4  A    between atoms: C5_8  and  C6_9
REMARK    5  A    between atoms: C6_9  and  C7_10
REMARK    6  A    between atoms: C20_23  and  N1_24
REMARK    7  A    between atoms: N1_24  and  C21_26
REMARK    8  A    between atoms: C21_26  and  C22_27
REMARK    9  A    between atoms: C22_27  and  N2_28
REMARK   10  A    between atoms: C22_27  and  C23_32
REMARK   11  A    between atoms: C22_27  and  C25_34
REMARK   12  A    between atoms: N3_38  and  C28_39
REMARK   13  A    between atoms: C28_39  and  C29_40
REMARK   14  A    between atoms: C29_40  and  C30_41
REMARK   15  A    between atoms: C30_41  and  C31_42
REMARK   16  A    between atoms: C31_42  and  N4_43
ROOT
HETATM    1  C7  UNL     1      18.892  25.461  10.335  1.00  0.00    -0.006 C
HETATM    2  C8  UNL     1      18.872  24.214  11.239  1.00  0.00     0.005 C
HETATM    3  C9  UNL     1      20.353  24.025  11.614  1.00  0.00     0.007 C
HETATM    4  C10 UNL     1      20.888  24.362  10.276  1.00  0.00     0.016 C
HETATM    5  C11 UNL     1      22.365  24.287  10.112  1.00  0.00     0.092 C
HETATM    6  C12 UNL     1      23.181  25.226  10.851  1.00  0.00     0.035 C
HETATM    7  C13 UNL     1      23.581  26.536  10.393  1.00  0.00    -0.034 C
HETATM    8  C14 UNL     1      23.500  27.519  11.577  1.00  0.00     0.010 C
HETATM    9  C15 UNL     1      24.703  28.428  11.480  1.00  0.00     0.005 C
HETATM   10  C16 UNL     1      25.058  28.183  10.005  1.00  0.00    -0.013 C
HETATM   11  C17 UNL     1      23.827  28.527   9.240  1.00  0.00     0.010 C
HETATM   12  C18 UNL     1      23.091  27.162   9.170  1.00  0.00    -0.003 C
HETATM   13  C19 UNL     1      21.646  27.465   9.043  1.00  0.00     0.046 C
HETATM   14  C20 UNL     1      20.757  26.249   8.727  1.00  0.00     0.112 C
HETATM   15  C27 UNL     1      21.769  25.336   8.034  1.00  0.00     0.248 C
HETATM   16  O3  UNL     1      22.016  25.520   6.801  1.00  0.00    -0.271 OA
HETATM   17  N3  UNL     1      22.469  24.285   8.651  1.00  0.00    -0.345 N
HETATM   18  C33 UNL     1      20.296  25.733  10.030  1.00  0.00     0.033 C
HETATM   19  C34 UNL     1      25.097  26.657  10.096  1.00  0.00     0.014 C
ENDROOT
BRANCH  14  20
HETATM   20  N1  UNL     1      19.859  26.511   7.694  1.00  0.00    -0.402 N
ATOM     21  H1  UNL     1      20.095  27.314   7.113  1.00  0.00     0.154 HD
BRANCH  20  22
HETATM   22  C21 UNL     1      18.717  25.865   7.340  1.00  0.00     0.153 C
BRANCH  22  23
HETATM   23  C22 UNL     1      18.559  25.914   5.797  1.00  0.00     0.138 C
BRANCH  23  24
HETATM   24  N2  UNL     1      19.731  25.367   5.191  1.00  0.00    -0.069 N
ATOM     25  H23 UNL     1      19.568  25.071   4.228  1.00  0.00     0.275 HD
ATOM     26  H22 UNL     1      20.439  26.077   5.005  1.00  0.00     0.275 HD
ATOM     27  H21 UNL     1      20.085  24.609   5.775  1.00  0.00     0.275 HD
ENDBRANCH  23  24
BRANCH  23  28
HETATM   28  C23 UNL     1      17.347  25.083   5.486  1.00  0.00     0.036 C
HETATM   29  C24 UNL     1      17.504  23.685   6.073  1.00  0.00     0.007 C
ENDBRANCH  23  28
BRANCH  23  30
HETATM   30  C25 UNL     1      18.363  27.305   5.312  1.00  0.00     0.036 C
HETATM   31  C26 UNL     1      18.408  27.390   3.795  1.00  0.00     0.007 C
ENDBRANCH  23  30
ENDBRANCH  22  23
ENDBRANCH  20  22
ENDBRANCH  14  20
BRANCH  17  32
HETATM   32  C28 UNL     1      23.194  23.274   7.916  1.00  0.00     0.126 C
BRANCH  32  33
HETATM   33  C29 UNL     1      24.541  23.677   7.442  1.00  0.00     0.021 C
BRANCH  33  34
HETATM   34  C30 UNL     1      24.629  23.252   5.970  1.00  0.00     0.021 C
BRANCH  34  35
HETATM   35  C31 UNL     1      23.597  22.205   5.652  1.00  0.00     0.122 C
BRANCH  35  36
HETATM   36  N4  UNL     1      22.908  22.622   4.446  1.00  0.00    -0.367 N
HETATM   37  C32 UNL     1      21.629  22.702   4.399  1.00  0.00     0.196 C
HETATM   38  N5  UNL     1      21.035  23.117   3.182  1.00  0.00    -0.067 NA
HETATM   39  N6  UNL     1      20.881  22.378   5.547  1.00  0.00    -0.067 NA
ATOM     40  H4  UNL     1      23.453  22.857   3.616  1.00  0.00     0.161 HD
ENDBRANCH  35  36
ENDBRANCH  34  35
ENDBRANCH  33  34
ENDBRANCH  32  33
ENDBRANCH  17  32
BRANCH   1  41
HETATM   41  C6  UNL     1      18.142  26.473  11.143  1.00  0.00     0.020 C
BRANCH  41  42
HETATM   42  C5  UNL     1      18.939  27.414  11.961  1.00  0.00     0.141 C
BRANCH  42  43
HETATM   43  S1  UNL     1      18.788  29.029  11.161  1.00  0.00     0.147 S
HETATM   44  O1  UNL     1      18.119  29.968  12.119  1.00  0.00    -0.228 OA
HETATM   45  O2  UNL     1      18.042  28.889   9.872  1.00  0.00    -0.228 OA
BRANCH  43  46
HETATM   46  C4  UNL     1      20.412  29.652  10.828  1.00  0.00     0.167 C
BRANCH  46  47
HETATM   47  C3  UNL     1      20.840  30.704  11.756  1.00  0.00    -0.016 C
HETATM   48  C2  UNL     1      21.938  30.720  12.468  1.00  0.00    -0.034 C
HETATM   49  C1  UNL     1      22.244  31.856  13.369  1.00  0.00     0.036 C
ENDBRANCH  46  47
ENDBRANCH  43  46
ENDBRANCH  42  43
ENDBRANCH  41  42
ENDBRANCH   1  41
TORSDOF 16
ENDMDL