MODEL 3
REMARK VINA RESULT: -8.853618060      3.647     10.573
REMARK  15 active torsions:
REMARK  status: ('A' for Active; 'I' for Inactive)
REMARK    1  A    between atoms: C2_2  and  C3_3
REMARK    2  A    between atoms: C3_3  and  N1_4
REMARK    3  A    between atoms: C3_3  and  C35_46
REMARK       I    between atoms: N1_4  and  C4_6
REMARK    4  A    between atoms: C4_6  and  C5_8
REMARK    5  A    between atoms: C5_8  and  N2_9
REMARK    6  A    between atoms: C5_8  and  C31_42
REMARK       I    between atoms: N2_9  and  C6_11
REMARK    7  A    between atoms: C6_11  and  C7_13
REMARK    8  A    between atoms: C7_13  and  N3_14
REMARK       I    between atoms: N3_14  and  C8_16
REMARK    9  A    between atoms: C8_16  and  C9_18
REMARK   10  A    between atoms: C9_18  and  C10_19
REMARK   11  A    between atoms: C9_18  and  N4_26
REMARK   12  A    between atoms: C10_19  and  C11_20
REMARK   13  A    between atoms: C23_34  and  C24_35
REMARK   14  A    between atoms: C24_35  and  C25_36
REMARK   15  A    between atoms: C31_42  and  C33_44
ROOT
HETATM    1  N3  UNL     1      18.924  30.652  13.576  1.00  0.00    -0.347 N
ATOM      2  H3  UNL     1      18.723  31.229  12.760  1.00  0.00     0.163 HD
HETATM    3  C8  UNL     1      19.725  29.500  13.389  1.00  0.00     0.264 C
HETATM    4  O3  UNL     1      19.967  28.788  14.442  1.00  0.00    -0.266 OA
ENDROOT
BRANCH   3   5
HETATM    5  C9  UNL     1      20.329  29.008  12.159  1.00  0.00     0.083 C
BRANCH   5   6
HETATM    6  C10 UNL     1      19.900  29.439  10.824  1.00  0.00     0.067 C
BRANCH   6   7
HETATM    7  C11 UNL     1      18.952  28.605  10.040  1.00  0.00    -0.009 C
HETATM    8  C12 UNL     1      17.738  28.325  10.978  1.00  0.00     0.005 C
HETATM    9  C13 UNL     1      16.524  28.027  10.160  1.00  0.00     0.000 C
HETATM   10  C14 UNL     1      16.927  27.396   8.849  1.00  0.00     0.000 C
HETATM   11  C15 UNL     1      18.128  26.525   9.084  1.00  0.00     0.000 C
HETATM   12  C16 UNL     1      19.363  27.287   9.538  1.00  0.00     0.005 C
ENDBRANCH   6   7
ENDBRANCH   5   6
BRANCH   5  13
HETATM   13  N4  UNL     1      21.754  28.664  12.297  1.00  0.00    -0.311 N
HETATM   14  C17 UNL     1      22.285  27.388  11.977  1.00  0.00     0.229 C
HETATM   15  O4  UNL     1      21.754  26.373  11.452  1.00  0.00    -0.273 OA
HETATM   16  C18 UNL     1      23.732  27.351  12.374  1.00  0.00     0.084 C
HETATM   17  C19 UNL     1      24.574  26.666  11.352  1.00  0.00     0.014 C
HETATM   18  C22 UNL     1      24.033  28.865  12.167  1.00  0.00     0.022 C
HETATM   19  C20 UNL     1      24.797  27.661  10.227  1.00  0.00     0.001 C
HETATM   20  C21 UNL     1      24.033  28.913  10.677  1.00  0.00     0.007 C
HETATM   21  C23 UNL     1      22.847  29.522  12.799  1.00  0.00     0.098 C
BRANCH  21  22
HETATM   22  C24 UNL     1      22.578  30.923  12.462  1.00  0.00     0.031 C
BRANCH  22  23
HETATM   23  C25 UNL     1      22.225  31.908  13.498  1.00  0.00    -0.013 C
HETATM   24  C26 UNL     1      23.312  33.019  13.384  1.00  0.00     0.005 C
HETATM   25  C27 UNL     1      22.899  34.244  14.128  1.00  0.00     0.000 C
HETATM   26  C28 UNL     1      22.696  33.858  15.585  1.00  0.00     0.000 C
HETATM   27  C29 UNL     1      21.672  32.753  15.691  1.00  0.00     0.000 C
HETATM   28  C30 UNL     1      22.214  31.528  14.919  1.00  0.00     0.005 C
ENDBRANCH  22  23
ENDBRANCH  21  22
ENDBRANCH   5  13
ENDBRANCH   3   5
BRANCH   1  29
HETATM   29  C7  UNL     1      18.378  31.061  14.831  1.00  0.00     0.225 C
BRANCH  29  30
HETATM   30  C6  UNL     1      17.737  32.364  14.882  1.00  0.00     0.236 C
HETATM   31  N2  UNL     1      17.471  33.049  16.106  1.00  0.00    -0.346 N
ATOM     32  H2  UNL     1      17.754  32.589  16.971  1.00  0.00     0.163 HD
HETATM   33  O2  UNL     1      17.382  32.955  13.840  1.00  0.00    -0.272 OA
BRANCH  31  34
HETATM   34  C5  UNL     1      16.841  34.325  16.217  1.00  0.00     0.180 C
BRANCH  34  35
HETATM   35  C4  UNL     1      17.697  35.278  16.962  1.00  0.00     0.241 C
HETATM   36  N1  UNL     1      17.922  36.572  16.475  1.00  0.00    -0.346 N
ATOM     37  H1  UNL     1      17.496  36.868  15.597  1.00  0.00     0.163 HD
HETATM   38  O1  UNL     1      18.214  34.900  18.040  1.00  0.00    -0.271 OA
BRANCH  36  39
HETATM   39  C3  UNL     1      18.770  37.499  17.229  1.00  0.00     0.173 C
BRANCH  39  40
HETATM   40  C2  UNL     1      18.078  38.860  17.205  1.00  0.00     0.030 C
HETATM   41  C1  UNL     1      16.690  38.775  16.661  1.00  0.00     0.007 C
ENDBRANCH  39  40
BRANCH  39  42
HETATM   42  C35 UNL     1      20.109  37.548  16.639  1.00  0.00     0.254 C
HETATM   43  N5  UNL     1      21.232  36.842  17.121  1.00  0.00    -0.060 NA
HETATM   44  O5  UNL     1      20.287  38.281  15.612  1.00  0.00    -0.275 OA
ENDBRANCH  39  42
ENDBRANCH  36  39
ENDBRANCH  34  35
BRANCH  34  45
HETATM   45  C31 UNL     1      15.470  34.244  16.856  1.00  0.00     0.013 C
HETATM   46  C32 UNL     1      14.959  35.633  17.143  1.00  0.00     0.012 C
BRANCH  45  47
HETATM   47  C33 UNL     1      14.494  33.454  16.010  1.00  0.00     0.002 C
HETATM   48  C34 UNL     1      13.099  34.052  16.088  1.00  0.00     0.005 C
ENDBRANCH  45  47
ENDBRANCH  34  45
ENDBRANCH  31  34
ENDBRANCH  29  30
ENDBRANCH   1  29
TORSDOF 15
ENDMDL