MODEL 5
REMARK VINA RESULT: -9.204049961      1.835      3.210
REMARK  18 active torsions:
REMARK  status: ('A' for Active; 'I' for Inactive)
REMARK    1  A    between atoms: C2_2  and  C4_4
REMARK    2  A    between atoms: C4_4  and  C5_5
REMARK    3  A    between atoms: C5_5  and  N1_6
REMARK    4  A    between atoms: C5_5  and  C26_37
REMARK       I    between atoms: N1_6  and  C6_8
REMARK    5  A    between atoms: C6_8  and  C7_10
REMARK    6  A    between atoms: C7_10  and  N2_11
REMARK    7  A    between atoms: C7_10  and  C22_33
REMARK       I    between atoms: N2_11  and  C8_12
REMARK       I    between atoms: C8_12  and  N4_16
REMARK    8  A    between atoms: N4_16  and  C9_18
REMARK    9  A    between atoms: C9_18  and  C10_19
REMARK   10  A    between atoms: C9_18  and  C17_26
REMARK   11  A    between atoms: C17_26  and  O2_27
REMARK   12  A    between atoms: C17_26  and  C18_29
REMARK       I    between atoms: C26_37  and  N5_39
REMARK   13  A    between atoms: N5_39  and  C27_41
REMARK   14  A    between atoms: C27_41  and  C28_42
REMARK   15  A    between atoms: C27_41  and  C30_47
REMARK   16  A    between atoms: N6_43  and  O4_45
REMARK   17  A    between atoms: C30_47  and  C31_48
REMARK   18  A    between atoms: C31_48  and  C32_49
ROOT
HETATM    1  C7  UNL     1      20.768  31.825  15.045  1.00  0.00     0.163 C
ENDROOT
BRANCH   1   2
HETATM    2  C6  UNL     1      19.774  32.881  15.460  1.00  0.00     0.279 C
HETATM    3  N1  UNL     1      18.511  32.580  16.043  1.00  0.00    -0.342 N
ATOM      4  H1  UNL     1      18.227  31.612  16.193  1.00  0.00     0.163 HD
HETATM    5  O1  UNL     1      20.100  34.065  15.275  1.00  0.00    -0.265 OA
BRANCH   3   6
HETATM    6  C5  UNL     1      17.635  33.673  16.420  1.00  0.00     0.177 C
BRANCH   6   7
HETATM    7  C4  UNL     1      16.807  34.119  15.227  1.00  0.00     0.038 C
BRANCH   7   8
HETATM    8  C2  UNL     1      15.336  33.939  15.323  1.00  0.00    -0.020 C
HETATM    9  C1  UNL     1      15.040  32.404  15.130  1.00  0.00     0.009 C
HETATM   10  C3  UNL     1      14.778  34.215  16.698  1.00  0.00     0.009 C
ENDBRANCH   7   8
ENDBRANCH   6   7
BRANCH   6  11
HETATM   11  C26 UNL     1      18.213  34.778  17.138  1.00  0.00     0.241 C
HETATM   12  O3  UNL     1      18.710  34.674  18.321  1.00  0.00    -0.271 OA
HETATM   13  N5  UNL     1      18.229  36.054  16.479  1.00  0.00    -0.350 N
ATOM     14  H5  UNL     1      17.829  36.116  15.544  1.00  0.00     0.163 HD
BRANCH  13  15
HETATM   15  C27 UNL     1      18.771  37.237  17.054  1.00  0.00     0.125 C
BRANCH  15  16
HETATM   16  C28 UNL     1      19.968  37.701  16.253  1.00  0.00     0.114 C
HETATM   17  N6  UNL     1      21.091  37.133  16.464  1.00  0.00    -0.278 N
HETATM   18  C29 UNL     1      22.323  37.479  15.776  1.00  0.00     0.184 C
BRANCH  17  19
HETATM   19  O4  UNL     1      21.174  36.128  17.399  1.00  0.00    -0.289 OA
ATOM     20  H4  UNL     1      20.392  35.863  17.868  1.00  0.00     0.244 HD
ENDBRANCH  17  19
ENDBRANCH  15  16
BRANCH  15  21
HETATM   21  C30 UNL     1      17.760  38.348  17.172  1.00  0.00     0.039 C
BRANCH  21  22
HETATM   22  C31 UNL     1      16.381  37.913  16.705  1.00  0.00     0.102 C
BRANCH  22  23
HETATM   23  C32 UNL     1      15.355  38.257  17.734  1.00  0.00     0.231 C
HETATM   24  N7  UNL     1      15.076  39.594  18.051  1.00  0.00    -0.062 NA
HETATM   25  O5  UNL     1      14.747  37.337  18.316  1.00  0.00    -0.277 OA
ENDBRANCH  22  23
ENDBRANCH  21  22
ENDBRANCH  15  21
ENDBRANCH  13  15
ENDBRANCH   6  11
ENDBRANCH   3   6
ENDBRANCH   1   2
BRANCH   1  26
HETATM   26  N2  UNL     1      20.323  30.742  14.921  1.00  0.00    -0.370 NA
HETATM   27  C8  UNL     1      19.867  29.493  14.736  1.00  0.00     0.249 C
HETATM   28  N3  UNL     1      20.296  28.572  15.624  1.00  0.00    -0.360 N
HETATM   29  N4  UNL     1      18.963  28.999  13.788  1.00  0.00    -0.340 N
ATOM     30  H32 UNL     1      20.955  28.932  16.315  1.00  0.00     0.160 HD
ATOM     31  H31 UNL     1      19.949  27.623  15.483  1.00  0.00     0.160 HD
ATOM     32  H4  UNL     1      18.065  29.472  13.689  1.00  0.00     0.164 HD
BRANCH  29  33
HETATM   33  C9  UNL     1      19.247  27.785  12.888  1.00  0.00     0.138 C
BRANCH  33  34
HETATM   34  C10 UNL     1      17.955  27.491  12.310  1.00  0.00     0.003 C
HETATM   35  C11 UNL     1      17.669  27.209  10.920  1.00  0.00    -0.082 C
HETATM   36  C12 UNL     1      17.977  28.193   9.852  1.00  0.00     0.034 C
HETATM   37  C16 UNL     1      18.067  25.785  10.521  1.00  0.00     0.034 C
HETATM   38  C13 UNL     1      17.641  27.511   8.507  1.00  0.00     0.004 C
HETATM   39  C14 UNL     1      18.842  26.596   8.278  1.00  0.00     0.001 C
HETATM   40  C15 UNL     1      19.115  25.750   9.460  1.00  0.00     0.004 C
ENDBRANCH  33  34
BRANCH  33  41
HETATM   41  C17 UNL     1      20.413  28.243  12.192  1.00  0.00     0.152 C
BRANCH  41  42
HETATM   42  O2  UNL     1      21.485  27.630  12.652  1.00  0.00    -0.392 OA
ATOM     43  H2  UNL     1      21.532  27.719  13.596  1.00  0.00     0.210 HD
ENDBRANCH  41  42
BRANCH  41  44
HETATM   44  C18 UNL     1      20.910  29.140  11.165  1.00  0.00    -0.016 A
HETATM   45  C19 UNL     1      21.561  28.549   9.899  1.00  0.00     0.018 C
HETATM   46  C20 UNL     1      21.596  30.400  11.633  1.00  0.00     0.012 A
HETATM   47  C21 UNL     1      20.250  30.487  10.988  1.00  0.00     0.012 A
ENDBRANCH  41  44
ENDBRANCH  33  41
ENDBRANCH  29  33
ENDBRANCH   1  26
BRANCH   1  48
HETATM   48  C22 UNL     1      22.158  32.338  14.893  1.00  0.00     0.010 C
HETATM   49  C23 UNL     1      22.418  33.375  13.881  1.00  0.00     0.022 C
HETATM   50  C24 UNL     1      23.082  31.152  14.564  1.00  0.00     0.022 C
HETATM   51  C25 UNL     1      22.603  32.840  16.298  1.00  0.00     0.022 C
ENDBRANCH   1  48
TORSDOF 18
ENDMDL