MODEL 2
REMARK VINA RESULT: -9.966587106      2.999      9.961
REMARK  11 active torsions:
REMARK  status: ('A' for Active; 'I' for Inactive)
REMARK    1  A    between atoms: C12_14  and  N2_15
REMARK    2  A    between atoms: N2_15  and  C13_16
REMARK    3  A    between atoms: C13_16  and  C14_17
REMARK    4  A    between atoms: C14_17  and  C15_18
REMARK    5  A    between atoms: C15_18  and  N3_19
REMARK    6  A    between atoms: N3_19  and  C16_21
REMARK    7  A    between atoms: N5_25  and  C18_27
REMARK    8  A    between atoms: C18_27  and  C19_28
REMARK    9  A    between atoms: C19_28  and  N6_29
REMARK   10  A    between atoms: N9_37  and  C23_39
REMARK   11  A    between atoms: C23_39  and  C24_40
ROOT
HETATM    1  C16 UNL     1     -14.541  59.042   6.480  1.00  0.00     0.162 A
HETATM    2  N4  UNL     1     -15.694  59.686   6.590  1.00  0.00    -0.172 N
ATOM      3  H4  UNL     1     -16.217  59.855   5.730  1.00  0.00     0.186 HD
HETATM    4  C17 UNL     1     -16.232  60.133   7.724  1.00  0.00     0.694 A
HETATM    5  N5  UNL     1     -17.348  60.749   7.822  1.00  0.00    -0.223 N
ATOM      6  H5  UNL     1     -17.628  61.029   8.762  1.00  0.00     0.177 HD
HETATM    7  N7  UNL     1     -15.541  59.910   8.864  1.00  0.00    -0.131 N
ATOM      8  H7  UNL     1     -15.911  60.233   9.758  1.00  0.00     0.205 HD
HETATM    9  N8  UNL     1     -14.370  59.266   8.818  1.00  0.00    -0.268 N
ATOM     10  H8  UNL     1     -13.864  59.109   9.690  1.00  0.00     0.189 HD
HETATM   11  C22 UNL     1     -13.836  58.817   7.674  1.00  0.00     0.162 A
HETATM   12  N9  UNL     1     -12.700  58.187   7.640  1.00  0.00    -0.368 N
ATOM     13  H9  UNL     1     -12.326  57.859   6.750  1.00  0.00     0.161 HD
ENDROOT
BRANCH   1  14
HETATM   14  N3  UNL     1     -14.006  58.587   5.406  1.00  0.00    -0.372 N
ATOM     15  H3  UNL     1     -13.261  59.117   4.953  1.00  0.00     0.161 HD
BRANCH  14  16
HETATM   16  C15 UNL     1     -14.437  57.346   4.835  1.00  0.00     0.127 C
BRANCH  16  17
HETATM   17  C14 UNL     1     -13.790  57.048   3.504  1.00  0.00     0.079 C
BRANCH  17  18
HETATM   18  C13 UNL     1     -12.970  55.756   3.667  1.00  0.00     0.157 C
BRANCH  18  19
HETATM   19  N2  UNL     1     -13.076  54.846   2.720  1.00  0.00    -0.420 NA
BRANCH  19  20
HETATM   20  C12 UNL     1     -13.174  54.041   1.867  1.00  0.00     0.131 A
HETATM   21  C11 UNL     1     -13.002  54.387   0.514  1.00  0.00     0.032 A
HETATM   22  C6  UNL     1     -13.129  53.418  -0.433  1.00  0.00     0.046 A
HETATM   23  C10 UNL     1     -12.704  55.715   0.184  1.00  0.00     0.017 A
HETATM   24  N1  UNL     1     -13.415  52.142  -0.114  1.00  0.00    -0.355 N
HETATM   25  C7  UNL     1     -12.951  53.794  -1.769  1.00  0.00     0.030 A
HETATM   26  C5  UNL     1     -13.584  51.795   1.177  1.00  0.00     0.046 A
ATOM     27  H1  UNL     1     -13.503  51.439  -0.848  1.00  0.00     0.166 HD
HETATM   28  C4  UNL     1     -13.880  50.468   1.516  1.00  0.00     0.031 A
HETATM   29  C32 UNL     1     -13.475  52.700   2.199  1.00  0.00     0.033 A
HETATM   30  C3  UNL     1     -14.062  50.053   2.819  1.00  0.00     0.009 A
HETATM   31  C2  UNL     1     -13.950  50.973   3.840  1.00  0.00    -0.061 A
HETATM   32  C1  UNL     1     -14.143  50.561   5.265  1.00  0.00     0.048 C
HETATM   33  C33 UNL     1     -13.655  52.297   3.507  1.00  0.00     0.024 A
HETATM   34  C8  UNL     1     -12.659  55.091  -2.112  1.00  0.00     0.002 A
HETATM   35  C9  UNL     1     -12.532  56.069  -1.133  1.00  0.00     0.001 A
ENDBRANCH  19  20
ENDBRANCH  18  19
ENDBRANCH  17  18
ENDBRANCH  16  17
ENDBRANCH  14  16
ENDBRANCH   1  14
BRANCH  12  36
HETATM   36  C23 UNL     1     -11.964  57.950   8.864  1.00  0.00     0.162 C
BRANCH  36  37
HETATM   37  C24 UNL     1     -12.390  56.671   9.478  1.00  0.00    -0.013 A
HETATM   38  C25 UNL     1     -12.696  56.407  10.794  1.00  0.00     0.098 A
HETATM   39  N10 UNL     1     -13.034  55.091  10.903  1.00  0.00    -0.365 N
HETATM   40  C26 UNL     1     -12.957  54.500   9.712  1.00  0.00     0.043 A
ATOM     41  H10 UNL     1     -13.306  54.627  11.770  1.00  0.00     0.165 HD
HETATM   42  C27 UNL     1     -13.189  53.217   9.283  1.00  0.00     0.030 A
HETATM   43  C31 UNL     1     -12.556  55.472   8.810  1.00  0.00    -0.000 A
HETATM   44  C28 UNL     1     -13.030  52.877   7.959  1.00  0.00     0.002 A
HETATM   45  C29 UNL     1     -12.633  53.821   7.038  1.00  0.00     0.001 A
HETATM   46  C30 UNL     1     -12.405  55.101   7.494  1.00  0.00     0.014 A
ENDBRANCH  36  37
ENDBRANCH  12  36
BRANCH   5  47
HETATM   47  C18 UNL     1     -18.249  61.088   6.765  1.00  0.00     0.168 C
BRANCH  47  48
HETATM   48  C19 UNL     1     -19.610  60.477   7.110  1.00  0.00     0.291 C
BRANCH  48  49
HETATM   49  N6  UNL     1     -20.610  61.199   6.375  1.00  0.00     0.081 N
HETATM   50  C20 UNL     1     -20.572  62.611   6.576  1.00  0.00     0.309 C
HETATM   51  C21 UNL     1     -20.682  60.821   4.986  1.00  0.00     0.309 C
ENDBRANCH  48  49
ENDBRANCH  47  48
ENDBRANCH   5  47
TORSDOF 11
ENDMDL