MODEL 3
REMARK VINA RESULT: -10.217673754      3.364      6.330
REMARK  13 active torsions:
REMARK  status: ('A' for Active; 'I' for Inactive)
REMARK    1  A    between atoms: O1_2  and  C2_3
REMARK    2  A    between atoms: C5_6  and  C6_7
REMARK    3  A    between atoms: C6_7  and  N1_8
REMARK    4  A    between atoms: N1_8  and  C7_9
REMARK    5  A    between atoms: C8_12  and  N3_13
REMARK    6  A    between atoms: N3_13  and  C9_14
REMARK    7  A    between atoms: C9_14  and  C10_15
REMARK    8  A    between atoms: C13_18  and  C14_19
REMARK    9  A    between atoms: C14_19  and  C15_20
REMARK   10  A    between atoms: C15_20  and  C16_21
REMARK       I    between atoms: C16_21  and  N4_23
REMARK   11  A    between atoms: N4_23  and  C17_25
REMARK   12  A    between atoms: C22_36  and  N8_37
REMARK   13  A    between atoms: N8_37  and  C23_39
ROOT
HETATM    1  C7  UNL     1     -13.511  54.779   3.717  1.00  0.00     0.276 A
HETATM    2  N2  UNL     1     -13.092  54.859   2.461  1.00  0.00    -0.275 N
ATOM      3  H2  UNL     1     -12.650  54.029   2.065  1.00  0.00     0.174 HD
HETATM    4  C8  UNL     1     -13.202  55.962   1.647  1.00  0.00     0.276 A
HETATM    5  N7  UNL     1     -13.815  57.039   2.266  1.00  0.00    -0.148 N
ATOM      6  H7  UNL     1     -13.934  57.898   1.727  1.00  0.00     0.188 HD
HETATM    7  C22 UNL     1     -14.253  57.023   3.512  1.00  0.00     0.689 A
HETATM    8  N9  UNL     1     -14.104  55.911   4.226  1.00  0.00    -0.148 N
ATOM      9  H9  UNL     1     -14.443  55.897   5.187  1.00  0.00     0.188 HD
ENDROOT
BRANCH   4  10
HETATM   10  N3  UNL     1     -12.807  56.001   0.545  1.00  0.00    -0.382 NA
BRANCH  10  11
HETATM   11  C9  UNL     1     -12.566  55.938  -0.761  1.00  0.00     0.197 C
BRANCH  11  12
HETATM   12  C10 UNL     1     -13.133  54.725  -1.477  1.00  0.00    -0.007 A
HETATM   13  C11 UNL     1     -14.469  54.439  -1.372  1.00  0.00     0.014 A
HETATM   14  C12 UNL     1     -15.024  53.337  -2.024  1.00  0.00     0.012 A
HETATM   15  C13 UNL     1     -14.254  52.504  -2.792  1.00  0.00    -0.036 A
HETATM   16  C20 UNL     1     -12.891  52.812  -2.887  1.00  0.00     0.012 A
HETATM   17  C21 UNL     1     -12.349  53.902  -2.239  1.00  0.00     0.014 A
BRANCH  15  18
HETATM   18  C14 UNL     1     -14.764  51.330  -3.503  1.00  0.00     0.017 C
BRANCH  18  19
HETATM   19  C15 UNL     1     -14.140  50.177  -3.501  1.00  0.00     0.075 C
BRANCH  19  20
HETATM   20  C16 UNL     1     -14.129  49.359  -2.308  1.00  0.00     0.246 C
HETATM   21  O2  UNL     1     -14.890  48.378  -2.212  1.00  0.00    -0.268 OA
HETATM   22  N4  UNL     1     -13.254  49.665  -1.245  1.00  0.00    -0.308 N
ATOM     23  H4  UNL     1     -12.255  49.610  -1.447  1.00  0.00     0.170 HD
BRANCH  22  24
HETATM   24  C17 UNL     1     -13.575  50.000  -0.066  1.00  0.00     0.123 A
HETATM   25  C18 UNL     1     -13.125  51.110   0.610  1.00  0.00     0.068 A
HETATM   26  C19 UNL     1     -13.696  51.122   1.855  1.00  0.00     0.111 A
HETATM   27  N5  UNL     1     -14.481  50.023   1.914  1.00  0.00    -0.310 N
HETATM   28  N6  UNL     1     -14.402  49.368   0.773  1.00  0.00    -0.286 N
ATOM     29  H5  UNL     1     -15.045  49.744   2.716  1.00  0.00     0.186 HD
ATOM     30  H6  UNL     1     -14.901  48.504   0.561  1.00  0.00     0.188 HD
ENDBRANCH  22  24
ENDBRANCH  19  20
ENDBRANCH  18  19
ENDBRANCH  15  18
ENDBRANCH  11  12
ENDBRANCH  10  11
ENDBRANCH   4  10
BRANCH   1  31
HETATM   31  N1  UNL     1     -13.411  53.809   4.420  1.00  0.00    -0.382 NA
BRANCH  31  32
HETATM   32  C6  UNL     1     -13.300  52.741   5.200  1.00  0.00     0.197 C
BRANCH  32  33
HETATM   33  C5  UNL     1     -13.468  53.040   6.663  1.00  0.00    -0.007 A
HETATM   34  C4  UNL     1     -14.413  53.909   7.127  1.00  0.00     0.016 A
HETATM   35  C3  UNL     1     -14.523  54.158   8.480  1.00  0.00     0.037 A
HETATM   36  C2  UNL     1     -13.685  53.540   9.380  1.00  0.00     0.068 A
HETATM   37  C30 UNL     1     -12.746  52.673   8.883  1.00  0.00     0.037 A
HETATM   38  C29 UNL     1     -12.622  52.412   7.536  1.00  0.00     0.016 A
BRANCH  36  39
HETATM   39  O1  UNL     1     -13.815  53.808  10.728  1.00  0.00    -0.356 OA
HETATM   40  C1  UNL     1     -14.210  55.122  11.096  1.00  0.00     0.210 C
ENDBRANCH  36  39
ENDBRANCH  32  33
ENDBRANCH  31  32
ENDBRANCH   1  31
BRANCH   7  41
HETATM   41  N8  UNL     1     -14.816  58.084   4.019  1.00  0.00    -0.191 N
ATOM     42  H8  UNL     1     -15.740  58.370   3.697  1.00  0.00     0.184 HD
BRANCH  41  43
HETATM   43  C23 UNL     1     -14.145  58.847   5.022  1.00  0.00     0.049 A
HETATM   44  C24 UNL     1     -12.928  59.438   4.715  1.00  0.00     0.030 A
HETATM   45  C25 UNL     1     -12.243  60.174   5.655  1.00  0.00     0.002 A
HETATM   46  C26 UNL     1     -12.737  60.351   6.929  1.00  0.00     0.000 A
HETATM   47  C27 UNL     1     -13.967  59.748   7.224  1.00  0.00     0.002 A
HETATM   48  C28 UNL     1     -14.645  59.017   6.282  1.00  0.00     0.030 A
ENDBRANCH  41  43
ENDBRANCH   7  41
TORSDOF 13
ENDMDL