MODEL 2
REMARK VINA RESULT: -11.131095640      5.077     12.370
REMARK  10 active torsions:
REMARK  status: ('A' for Active; 'I' for Inactive)
REMARK    1  A    between atoms: C7_7  and  C8_8
REMARK    2  A    between atoms: C8_8  and  N1_9
REMARK    3  A    between atoms: N1_9  and  C9_11
REMARK    4  A    between atoms: N3_15  and  C11_17
REMARK    5  A    between atoms: C11_17  and  C12_18
REMARK    6  A    between atoms: C12_18  and  C13_19
REMARK    7  A    between atoms: C16_22  and  N4_23
REMARK    8  A    between atoms: N4_23  and  S1_25
REMARK    9  A    between atoms: S1_25  and  C17_28
REMARK   10  A    between atoms: C20_31  and  C21_32
ROOT
HETATM    1  C1  UNL     1     -13.214  52.340   6.420  1.00  0.00     0.103 C
HETATM    2  C2  UNL     1     -13.081  53.027   7.420  1.00  0.00    -0.149 C
HETATM    3  C3  UNL     1     -12.951  53.843   8.589  1.00  0.00     0.005 A
HETATM    4  C4  UNL     1     -13.058  53.279   9.861  1.00  0.00     0.020 A
HETATM    5  C5  UNL     1     -12.926  54.097  10.934  1.00  0.00     0.002 A
HETATM    6  C6  UNL     1     -12.691  55.468  10.765  1.00  0.00     0.009 A
HETATM    7  C7  UNL     1     -12.586  56.016   9.513  1.00  0.00    -0.039 A
HETATM    8  C30 UNL     1     -12.717  55.193   8.421  1.00  0.00     0.028 A
ENDROOT
BRANCH   7   9
HETATM    9  C8  UNL     1     -12.361  57.455   9.349  1.00  0.00     0.160 C
BRANCH   9  10
HETATM   10  N1  UNL     1     -12.995  58.229  10.386  1.00  0.00    -0.371 N
ATOM     11  H1  UNL     1     -12.465  58.321  11.253  1.00  0.00     0.161 HD
BRANCH  10  12
HETATM   12  C9  UNL     1     -14.104  58.804  10.374  1.00  0.00     0.131 A
HETATM   13  N2  UNL     1     -14.622  59.397   9.305  1.00  0.00    -0.176 N
HETATM   14  C10 UNL     1     -15.844  59.977   9.362  1.00  0.00     0.681 A
ATOM     15  H2  UNL     1     -14.094  59.415   8.432  1.00  0.00     0.186 HD
HETATM   16  N3  UNL     1     -16.348  60.590   8.367  1.00  0.00    -0.226 N
HETATM   17  N5  UNL     1     -16.571  59.968  10.524  1.00  0.00    -0.176 N
ATOM     18  H3  UNL     1     -17.273  61.006   8.474  1.00  0.00     0.177 HD
HETATM   19  C26 UNL     1     -16.086  59.378  11.633  1.00  0.00     0.135 A
ATOM     20  H5  UNL     1     -17.490  60.411  10.548  1.00  0.00     0.186 HD
HETATM   21  N6  UNL     1     -16.553  59.214  12.888  1.00  0.00    -0.351 N
HETATM   22  C29 UNL     1     -14.844  58.795  11.550  1.00  0.00     0.054 A
HETATM   23  C27 UNL     1     -15.653  58.547  13.613  1.00  0.00     0.091 A
ATOM     24  H6  UNL     1     -17.455  59.547  13.229  1.00  0.00     0.166 HD
HETATM   25  C28 UNL     1     -14.579  58.274  12.805  1.00  0.00     0.036 A
BRANCH  16  26
HETATM   26  C11 UNL     1     -15.687  60.725   7.112  1.00  0.00     0.142 C
BRANCH  26  27
HETATM   27  C12 UNL     1     -16.367  59.743   6.147  1.00  0.00     0.058 C
BRANCH  27  28
HETATM   28  C13 UNL     1     -15.287  58.981   5.429  1.00  0.00    -0.057 A
HETATM   29  C14 UNL     1     -14.330  58.312   6.195  1.00  0.00     0.009 A
HETATM   30  C15 UNL     1     -13.314  57.551   5.631  1.00  0.00     0.030 A
HETATM   31  C16 UNL     1     -13.222  57.436   4.263  1.00  0.00     0.042 A
HETATM   32  C24 UNL     1     -14.170  58.103   3.512  1.00  0.00     0.030 A
HETATM   33  C25 UNL     1     -15.189  58.865   4.073  1.00  0.00     0.009 A
BRANCH  31  34
HETATM   34  N4  UNL     1     -12.226  56.663   3.633  1.00  0.00    -0.281 N
ATOM     35  H4  UNL     1     -11.345  57.095   3.352  1.00  0.00     0.179 HD
BRANCH  34  36
HETATM   36  S1  UNL     1     -12.497  54.996   3.341  1.00  0.00     0.263 S
HETATM   37  O1  UNL     1     -11.448  54.191   4.030  1.00  0.00    -0.200 OA
HETATM   38  O2  UNL     1     -13.874  54.622   3.915  1.00  0.00    -0.200 OA
BRANCH  36  39
HETATM   39  C17 UNL     1     -12.568  54.598   1.654  1.00  0.00     0.079 A
HETATM   40  C18 UNL     1     -12.649  55.595   0.726  1.00  0.00     0.026 A
HETATM   41  C19 UNL     1     -12.707  55.349  -0.629  1.00  0.00     0.020 A
HETATM   42  C20 UNL     1     -12.685  54.045  -1.067  1.00  0.00     0.040 A
HETATM   43  C22 UNL     1     -12.601  53.010  -0.136  1.00  0.00     0.020 A
HETATM   44  C23 UNL     1     -12.543  53.282   1.210  1.00  0.00     0.026 A
BRANCH  42  45
HETATM   45  C21 UNL     1     -12.757  53.728  -2.485  1.00  0.00     0.209 C
HETATM   46  O3  UNL     1     -11.885  52.997  -3.041  1.00  0.00    -0.644 OA
HETATM   47  O4  UNL     1     -13.790  54.215  -3.278  1.00  0.00    -0.644 OA
ENDBRANCH  42  45
ENDBRANCH  36  39
ENDBRANCH  34  36
ENDBRANCH  31  34
ENDBRANCH  27  28
ENDBRANCH  26  27
ENDBRANCH  16  26
ENDBRANCH  10  12
ENDBRANCH   9  10
ENDBRANCH   7   9
TORSDOF 10
ENDMDL