MODEL 4
REMARK VINA RESULT: -10.072491716      2.501     11.355
REMARK  10 active torsions:
REMARK  status: ('A' for Active; 'I' for Inactive)
REMARK       I    between atoms: N1_2  and  C2_4
REMARK    1  A    between atoms: C2_4  and  C3_6
REMARK    2  A    between atoms: C7_10  and  N2_11
REMARK    3  A    between atoms: N2_11  and  C8_12
REMARK    4  A    between atoms: C11_15  and  C12_16
REMARK    5  A    between atoms: C12_16  and  N3_17
REMARK       I    between atoms: N3_17  and  C13_18
REMARK    6  A    between atoms: C13_18  and  C14_20
REMARK    7  A    between atoms: C20_29  and  N6_30
REMARK    8  A    between atoms: C21_32  and  C22_33
REMARK    9  A    between atoms: C22_33  and  C23_34
REMARK   10  A    between atoms: C23_34  and  O3_35
ROOT
HETATM    1  C14 UNL     1     -12.799  51.330  -1.630  1.00  0.00     0.049 A
HETATM    2  C15 UNL     1     -13.508  50.533  -2.551  1.00  0.00     0.041 A
HETATM    3  C16 UNL     1     -14.001  49.321  -2.087  1.00  0.00     0.058 A
HETATM    4  C17 UNL     1     -14.786  48.450  -2.880  1.00  0.00     0.100 C
HETATM    5  N4  UNL     1     -15.438  47.761  -3.552  1.00  0.00    -0.191 NA
HETATM    6  C18 UNL     1     -13.771  48.966  -0.737  1.00  0.00     0.010 A
HETATM    7  C19 UNL     1     -14.382  47.802  -0.216  1.00  0.00     0.103 A
HETATM    8  N5  UNL     1     -14.274  47.513   1.114  1.00  0.00    -0.351 N
ATOM      9  H5  UNL     1     -14.731  46.671   1.461  1.00  0.00     0.166 HD
HETATM   10  C20 UNL     1     -13.612  48.261   1.973  1.00  0.00     0.105 A
HETATM   11  C25 UNL     1     -12.978  49.422   1.472  1.00  0.00     0.060 A
HETATM   12  C26 UNL     1     -13.081  49.738   0.130  1.00  0.00    -0.018 A
HETATM   13  C27 UNL     1     -12.569  50.969  -0.344  1.00  0.00     0.030 A
ENDROOT
BRANCH   1  14
HETATM   14  C13 UNL     1     -12.602  52.696  -2.186  1.00  0.00     0.325 C
HETATM   15  N3  UNL     1     -13.138  53.795  -1.660  1.00  0.00    -0.378 NA
HETATM   16  O2  UNL     1     -11.816  52.637  -3.205  1.00  0.00    -0.251 OA
BRANCH  15  17
HETATM   17  C12 UNL     1     -13.679  54.951  -1.137  1.00  0.00     0.198 C
BRANCH  17  18
HETATM   18  C11 UNL     1     -13.763  54.960   0.352  1.00  0.00    -0.007 A
HETATM   19  C10 UNL     1     -12.947  55.924   0.960  1.00  0.00     0.017 A
HETATM   20  C9  UNL     1     -12.868  55.990   2.325  1.00  0.00     0.045 A
HETATM   21  C8  UNL     1     -13.581  55.123   3.165  1.00  0.00     0.107 A
HETATM   22  C29 UNL     1     -14.368  54.210   2.516  1.00  0.00     0.045 A
HETATM   23  C28 UNL     1     -14.469  54.116   1.142  1.00  0.00     0.017 A
BRANCH  21  24
HETATM   24  N2  UNL     1     -13.354  55.110   4.478  1.00  0.00    -0.405 NA
BRANCH  24  25
HETATM   25  C7  UNL     1     -13.175  55.117   5.636  1.00  0.00     0.121 A
HETATM   26  C6  UNL     1     -13.358  56.392   6.284  1.00  0.00     0.031 A
HETATM   27  C5  UNL     1     -13.747  57.480   5.583  1.00  0.00     0.018 A
HETATM   28  C32 UNL     1     -13.185  56.519   7.651  1.00  0.00     0.046 A
HETATM   29  C4  UNL     1     -13.989  58.694   6.182  1.00  0.00     0.018 A
HETATM   30  C3  UNL     1     -13.814  58.827   7.561  1.00  0.00     0.034 A
HETATM   31  C33 UNL     1     -13.421  57.755   8.286  1.00  0.00     0.047 A
HETATM   32  N7  UNL     1     -12.848  55.457   8.370  1.00  0.00    -0.365 N
HETATM   33  C31 UNL     1     -12.662  54.245   7.824  1.00  0.00     0.091 A
ATOM     34  H7  UNL     1     -12.724  55.565   9.376  1.00  0.00     0.165 HD
HETATM   35  C30 UNL     1     -12.835  54.090   6.432  1.00  0.00     0.062 A
BRANCH  30  36
HETATM   36  C2  UNL     1     -14.160  60.146   8.128  1.00  0.00     0.251 C
HETATM   37  N1  UNL     1     -15.194  60.174   9.066  1.00  0.00    -0.361 N
HETATM   38  C1  UNL     1     -15.574  61.378   9.748  1.00  0.00     0.149 C
ATOM     39  H1  UNL     1     -15.695  59.310   9.273  1.00  0.00     0.162 HD
HETATM   40  O1  UNL     1     -13.572  61.197   7.807  1.00  0.00    -0.268 OA
ENDBRANCH  30  36
ENDBRANCH  24  25
ENDBRANCH  21  24
ENDBRANCH  17  18
ENDBRANCH  15  17
ENDBRANCH   1  14
BRANCH  10  41
HETATM   41  N6  UNL     1     -13.620  48.084   3.213  1.00  0.00    -0.356 N
HETATM   42  C21 UNL     1     -14.104  48.453   4.407  1.00  0.00     0.064 C
ATOM     43  H6  UNL     1     -12.969  47.320   3.395  1.00  0.00     0.166 HD
BRANCH  42  44
HETATM   44  C22 UNL     1     -15.198  49.519   4.453  1.00  0.00     0.071 C
BRANCH  44  45
HETATM   45  C23 UNL     1     -14.412  50.856   4.634  1.00  0.00     0.172 C
BRANCH  45  46
HETATM   46  O3  UNL     1     -13.084  50.599   4.611  1.00  0.00    -0.396 OA
HETATM   47  C24 UNL     1     -12.321  51.549   4.041  1.00  0.00     0.201 C
ENDBRANCH  45  46
ENDBRANCH  44  45
ENDBRANCH  42  44
ENDBRANCH  10  41
TORSDOF 10
ENDMDL