MODEL 4
REMARK VINA RESULT: -8.500222391     11.810     17.179
REMARK  10 active torsions:
REMARK  status: ('A' for Active; 'I' for Inactive)
REMARK    1  A    between atoms: C7_7  and  C8_8
REMARK    2  A    between atoms: C8_8  and  C9_9
REMARK    3  A    between atoms: C11_14  and  C12_15
REMARK    4  A    between atoms: C12_15  and  C13_16
REMARK    5  A    between atoms: C16_21  and  O2_22
REMARK    6  A    between atoms: C17_24  and  C18_25
REMARK    7  A    between atoms: C18_25  and  C19_26
REMARK    8  A    between atoms: C23_33  and  C24_34
REMARK    9  A    between atoms: C24_34  and  C25_35
REMARK   10  A    between atoms: C29_42  and  C30_43
ROOT
HETATM    1  C9  UNL     1     -15.299  60.491   8.262  1.00  0.00     0.105 C
HETATM    2  N1  UNL     1     -13.864  60.516   8.220  1.00  0.00    -0.308 N
ATOM      3  H1  UNL     1     -13.454  61.384   8.565  1.00  0.00     0.170 HD
HETATM    4  C10 UNL     1     -12.917  59.567   7.793  1.00  0.00     0.269 C
HETATM    5  O1  UNL     1     -11.984  60.056   7.037  1.00  0.00    -0.266 OA
HETATM    6  C11 UNL     1     -12.784  58.130   8.046  1.00  0.00     0.080 C
HETATM    7  N2  UNL     1     -12.538  57.846   9.437  1.00  0.00    -0.338 N
ATOM      8  H2  UNL     1     -11.973  58.579   9.864  1.00  0.00     0.167 HD
HETATM    9  C16 UNL     1     -12.843  56.879  10.340  1.00  0.00     0.139 C
HETATM   10  C17 UNL     1     -14.028  56.035  10.540  1.00  0.00     0.159 C
HETATM   11  N3  UNL     1     -14.874  56.456  11.641  1.00  0.00    -0.347 N
ATOM     12  H3  UNL     1     -15.360  55.692  12.110  1.00  0.00     0.163 HD
HETATM   13  C22 UNL     1     -15.145  57.720  12.175  1.00  0.00     0.241 C
HETATM   14  O3  UNL     1     -16.398  58.032  12.103  1.00  0.00    -0.271 OA
HETATM   15  C23 UNL     1     -14.286  58.739  12.798  1.00  0.00     0.177 C
HETATM   16  N4  UNL     1     -13.862  59.849  12.025  1.00  0.00    -0.346 N
ATOM     17  H4  UNL     1     -12.873  59.760  11.788  1.00  0.00     0.163 HD
HETATM   18  C28 UNL     1     -14.377  61.009  11.498  1.00  0.00     0.241 C
HETATM   19  O4  UNL     1     -13.733  62.083  11.838  1.00  0.00    -0.271 OA
HETATM   20  C29 UNL     1     -15.538  61.294  10.602  1.00  0.00     0.178 C
HETATM   21  N5  UNL     1     -15.850  60.443   9.589  1.00  0.00    -0.363 N
ATOM     22  H5  UNL     1     -16.532  59.710   9.786  1.00  0.00     0.162 HD
ENDROOT
BRANCH   1  23
HETATM   23  C8  UNL     1     -16.073  61.215   7.242  1.00  0.00     0.060 C
BRANCH  23  24
HETATM   24  C7  UNL     1     -17.115  62.178   7.514  1.00  0.00    -0.027 A
HETATM   25  C2  UNL     1     -18.438  61.860   7.569  1.00  0.00    -0.052 A
HETATM   26  C1  UNL     1     -18.982  60.485   7.437  1.00  0.00     0.049 C
HETATM   27  C3  UNL     1     -19.370  62.864   7.820  1.00  0.00     0.007 A
HETATM   28  C4  UNL     1     -19.038  64.183   8.023  1.00  0.00     0.001 A
HETATM   29  C5  UNL     1     -17.686  64.465   7.962  1.00  0.00     0.001 A
HETATM   30  C6  UNL     1     -16.768  63.493   7.717  1.00  0.00     0.012 A
ENDBRANCH  23  24
ENDBRANCH   1  23
BRANCH  20  31
HETATM   31  C30 UNL     1     -16.696  61.564  11.554  1.00  0.00     0.009 C
HETATM   32  C31 UNL     1     -17.958  60.822  11.212  1.00  0.00     0.012 C
HETATM   33  C32 UNL     1     -16.974  63.079  11.610  1.00  0.00     0.012 C
ENDBRANCH  20  31
BRANCH   6  34
HETATM   34  C12 UNL     1     -13.655  57.179   7.317  1.00  0.00     0.067 C
BRANCH  34  35
HETATM   35  C13 UNL     1     -13.159  56.637   6.008  1.00  0.00    -0.017 C
HETATM   36  C14 UNL     1     -14.112  56.530   4.876  1.00  0.00     0.010 C
HETATM   37  C15 UNL     1     -12.585  55.218   6.217  1.00  0.00     0.010 C
ENDBRANCH  34  35
ENDBRANCH   6  34
BRANCH   9  38
HETATM   38  O2  UNL     1     -11.925  56.622  11.229  1.00  0.00    -0.348 OA
ATOM     39  H2  UNL     1     -12.083  55.864  11.780  1.00  0.00     0.219 HD
ENDBRANCH   9  38
BRANCH  15  40
HETATM   40  C24 UNL     1     -14.943  59.137  14.142  1.00  0.00     0.038 C
BRANCH  40  41
HETATM   41  C25 UNL     1     -14.084  60.002  14.982  1.00  0.00    -0.020 C
HETATM   42  C26 UNL     1     -13.715  59.292  16.269  1.00  0.00     0.009 C
HETATM   43  C27 UNL     1     -14.976  61.179  15.423  1.00  0.00     0.009 C
ENDBRANCH  40  41
ENDBRANCH  15  40
BRANCH  10  44
HETATM   44  C18 UNL     1     -13.727  54.575  10.763  1.00  0.00     0.037 C
BRANCH  44  45
HETATM   45  C19 UNL     1     -14.259  53.591   9.817  1.00  0.00    -0.020 C
HETATM   46  C20 UNL     1     -13.022  52.927   9.149  1.00  0.00     0.009 C
HETATM   47  C21 UNL     1     -15.087  54.062   8.676  1.00  0.00     0.009 C
ENDBRANCH  44  45
ENDBRANCH  10  44
TORSDOF 10
ENDMDL