MODEL 2
REMARK VINA RESULT: -8.269185582      2.213      9.200
REMARK  10 active torsions:
REMARK  status: ('A' for Active; 'I' for Inactive)
REMARK    1  A    between atoms: C2_2  and  C33_43
REMARK    2  A    between atoms: C3_3  and  C4_4
REMARK    3  A    between atoms: C20_25  and  O2_26
REMARK    4  A    between atoms: O2_26  and  C21_27
REMARK    5  A    between atoms: C21_27  and  C22_28
REMARK    6  A    between atoms: C22_28  and  N3_29
REMARK    7  A    between atoms: N3_29  and  C23_32
REMARK    8  A    between atoms: C23_32  and  C24_33
REMARK    9  A    between atoms: C24_33  and  C25_34
REMARK   10  A    between atoms: C25_34  and  N4_35
ROOT
HETATM    1  C4  UNL     1     -12.779  50.656   0.837  1.00  0.00     0.116 C
HETATM    2  N1  UNL     1     -12.453  50.870  -0.584  1.00  0.00    -0.335 N
ATOM      3  H1  UNL     1     -11.801  50.271  -1.092  1.00  0.00     0.165 HD
HETATM    4  C5  UNL     1     -13.122  51.986  -1.202  1.00  0.00     0.317 C
HETATM    5  O1  UNL     1     -12.868  52.212  -2.422  1.00  0.00    -0.247 OA
HETATM    6  N2  UNL     1     -14.027  52.800  -0.474  1.00  0.00    -0.338 N
ATOM      7  H2  UNL     1     -14.647  53.424  -0.990  1.00  0.00     0.164 HD
HETATM    8  C6  UNL     1     -14.106  52.781   0.968  1.00  0.00     0.092 C
HETATM    9  C7  UNL     1     -14.001  54.159   1.564  1.00  0.00     0.026 C
HETATM   10  C8  UNL     1     -12.682  54.451   2.177  1.00  0.00     0.012 C
HETATM   11  C9  UNL     1     -12.256  53.441   3.254  1.00  0.00    -0.036 C
HETATM   12  C10 UNL     1     -10.717  53.427   3.113  1.00  0.00     0.016 C
HETATM   13  C11 UNL     1     -12.717  52.061   2.948  1.00  0.00     0.002 C
HETATM   14  C12 UNL     1     -13.895  51.568   3.700  1.00  0.00     0.006 C
HETATM   15  C13 UNL     1     -14.495  52.497   4.701  1.00  0.00     0.006 C
HETATM   16  C14 UNL     1     -13.448  53.174   5.481  1.00  0.00    -0.001 C
HETATM   17  C15 UNL     1     -12.576  53.991   4.568  1.00  0.00    -0.001 C
HETATM   18  C16 UNL     1     -11.353  54.374   5.421  1.00  0.00     0.007 C
HETATM   19  C17 UNL     1     -11.797  55.281   6.566  1.00  0.00     0.013 C
HETATM   20  C18 UNL     1     -12.851  54.606   7.338  1.00  0.00    -0.010 C
HETATM   21  C19 UNL     1     -12.329  53.565   8.266  1.00  0.00     0.018 C
HETATM   22  C20 UNL     1     -13.670  55.584   8.216  1.00  0.00     0.130 C
HETATM   23  C28 UNL     1     -14.806  54.683   8.603  1.00  0.00     0.033 C
HETATM   24  C29 UNL     1     -14.875  53.561   7.559  1.00  0.00     0.013 C
HETATM   25  C30 UNL     1     -14.021  54.123   6.479  1.00  0.00    -0.030 C
HETATM   26  C31 UNL     1     -14.723  55.291   5.885  1.00  0.00     0.016 C
HETATM   27  C32 UNL     1     -12.896  52.011   1.444  1.00  0.00     0.040 C
ENDROOT
BRANCH  22  28
HETATM   28  O2  UNL     1     -12.916  55.986   9.296  1.00  0.00    -0.383 OA
BRANCH  28  29
HETATM   29  C21 UNL     1     -12.719  57.341   9.399  1.00  0.00     0.195 C
BRANCH  29  30
HETATM   30  C22 UNL     1     -13.287  58.177   8.292  1.00  0.00     0.258 C
BRANCH  30  31
HETATM   31  N3  UNL     1     -12.216  58.758   7.528  1.00  0.00    -0.073 N
ATOM     32  H32 UNL     1     -11.396  58.918   8.113  1.00  0.00     0.277 HD
ATOM     33  H31 UNL     1     -11.824  58.078   6.874  1.00  0.00     0.277 HD
BRANCH  31  34
HETATM   34  C23 UNL     1     -12.596  59.946   6.854  1.00  0.00     0.234 C
BRANCH  34  35
HETATM   35  C24 UNL     1     -12.249  59.891   5.376  1.00  0.00     0.057 C
BRANCH  35  36
HETATM   36  C25 UNL     1     -12.749  58.653   4.724  1.00  0.00     0.273 C
BRANCH  36  37
HETATM   37  N4  UNL     1     -14.089  58.740   4.184  1.00  0.00     0.080 N
HETATM   38  C26 UNL     1     -14.195  59.994   3.462  1.00  0.00     0.309 C
HETATM   39  C27 UNL     1     -14.205  57.677   3.176  1.00  0.00     0.309 C
ENDBRANCH  36  37
ENDBRANCH  35  36
ENDBRANCH  34  35
ENDBRANCH  31  34
ENDBRANCH  30  31
ENDBRANCH  29  30
ENDBRANCH  28  29
ENDBRANCH  22  28
BRANCH   1  40
HETATM   40  C3  UNL     1     -13.998  49.852   0.837  1.00  0.00     0.012 C
HETATM   41  C2  UNL     1     -13.999  48.669   1.417  1.00  0.00     0.013 C
HETATM   42  C1  UNL     1     -12.754  48.141   2.078  1.00  0.00     0.055 C
BRANCH  41  43
HETATM   43  C33 UNL     1     -15.195  47.853   1.428  1.00  0.00     0.204 C
HETATM   44  O3  UNL     1     -15.134  46.614   1.287  1.00  0.00    -0.644 OA
HETATM   45  O4  UNL     1     -16.433  48.440   1.599  1.00  0.00    -0.644 OA
ENDBRANCH  41  43
ENDBRANCH   1  40
TORSDOF 10
ENDMDL