MODEL 4
REMARK VINA RESULT: -9.322235177      2.271      2.777
REMARK  10 active torsions:
REMARK  status: ('A' for Active; 'I' for Inactive)
REMARK    1  A    between atoms: N1_1  and  S1_4
REMARK    2  A    between atoms: S1_4  and  N2_7
REMARK    3  A    between atoms: N2_7  and  C1_9
REMARK    4  A    between atoms: C1_9  and  C2_10
REMARK    5  A    between atoms: C5_13  and  C6_14
REMARK    6  A    between atoms: C6_14  and  N3_15
REMARK       I    between atoms: N3_15  and  C7_17
REMARK    7  A    between atoms: C7_17  and  C8_19
REMARK    8  A    between atoms: C12_25  and  C13_26
REMARK    9  A    between atoms: C17_30  and  C18_31
REMARK   10  A    between atoms: C18_31  and  N5_32
ROOT
HETATM    1  C8  UNL     1     -12.967  50.504   0.128  1.00  0.00     0.033 A
HETATM    2  C9  UNL     1     -12.621  49.338   0.772  1.00  0.00     0.019 A
HETATM    3  C10 UNL     1     -12.532  49.261   2.167  1.00  0.00     0.031 A
HETATM    4  C11 UNL     1     -12.789  50.359   2.956  1.00  0.00     0.043 A
HETATM    5  N4  UNL     1     -12.779  50.556   4.287  1.00  0.00    -0.354 N
ATOM      6  H4  UNL     1     -12.552  49.841   4.978  1.00  0.00     0.166 HD
HETATM    7  C12 UNL     1     -13.108  51.825   4.578  1.00  0.00     0.060 A
HETATM    8  C26 UNL     1     -13.331  52.436   3.366  1.00  0.00     0.045 A
HETATM    9  C27 UNL     1     -13.138  51.532   2.335  1.00  0.00    -0.006 A
HETATM   10  C28 UNL     1     -13.222  51.599   0.965  1.00  0.00     0.030 A
ENDROOT
BRANCH   1  11
HETATM   11  C7  UNL     1     -13.072  50.632  -1.313  1.00  0.00     0.251 C
HETATM   12  N3  UNL     1     -14.164  50.077  -2.018  1.00  0.00    -0.353 N
ATOM     13  H3  UNL     1     -14.884  49.578  -1.496  1.00  0.00     0.163 HD
HETATM   14  O3  UNL     1     -12.187  51.244  -1.953  1.00  0.00    -0.268 OA
BRANCH  12  15
HETATM   15  C6  UNL     1     -14.294  50.192  -3.461  1.00  0.00     0.161 C
BRANCH  15  16
HETATM   16  C5  UNL     1     -15.502  49.497  -3.912  1.00  0.00    -0.041 A
HETATM   17  C4  UNL     1     -16.010  49.858  -5.159  1.00  0.00     0.009 A
HETATM   18  C3  UNL     1     -17.145  49.213  -5.608  1.00  0.00     0.009 A
HETATM   19  C2  UNL     1     -17.781  48.239  -4.873  1.00  0.00    -0.040 A
HETATM   20  C30 UNL     1     -17.259  47.909  -3.658  1.00  0.00     0.009 A
HETATM   21  C29 UNL     1     -16.119  48.531  -3.166  1.00  0.00     0.009 A
BRANCH  19  22
HETATM   22  C1  UNL     1     -19.013  47.577  -5.423  1.00  0.00     0.172 C
BRANCH  22  23
HETATM   23  N2  UNL     1     -19.525  48.471  -6.447  1.00  0.00    -0.299 N
ATOM     24  H2  UNL     1     -19.897  49.399  -6.246  1.00  0.00     0.174 HD
BRANCH  23  25
HETATM   25  S1  UNL     1     -19.442  47.810  -8.019  1.00  0.00     0.313 S
HETATM   26  O1  UNL     1     -18.605  46.556  -8.063  1.00  0.00    -0.183 OA
HETATM   27  O2  UNL     1     -20.841  47.547  -8.504  1.00  0.00    -0.183 OA
BRANCH  25  28
HETATM   28  N1  UNL     1     -18.681  48.991  -9.047  1.00  0.00    -0.312 N
ATOM     29  H12 UNL     1     -19.152  49.538  -9.767  1.00  0.00     0.170 HD
ATOM     30  H11 UNL     1     -17.693  49.031  -8.795  1.00  0.00     0.170 HD
ENDBRANCH  25  28
ENDBRANCH  23  25
ENDBRANCH  22  23
ENDBRANCH  19  22
ENDBRANCH  15  16
ENDBRANCH  12  15
ENDBRANCH   1  11
BRANCH   7  31
HETATM   31  C13 UNL     1     -13.201  52.402   5.912  1.00  0.00     0.060 A
HETATM   32  C14 UNL     1     -14.103  53.385   6.301  1.00  0.00     0.045 A
HETATM   33  C15 UNL     1     -13.904  53.688   7.629  1.00  0.00    -0.007 A
HETATM   34  C16 UNL     1     -14.498  54.565   8.506  1.00  0.00     0.022 A
HETATM   35  C25 UNL     1     -12.869  52.877   8.048  1.00  0.00     0.043 A
HETATM   36  C17 UNL     1     -14.095  54.675   9.825  1.00  0.00    -0.029 A
HETATM   37  C23 UNL     1     -13.062  53.861  10.227  1.00  0.00     0.011 A
HETATM   38  C24 UNL     1     -12.446  52.966   9.361  1.00  0.00     0.031 A
HETATM   39  N6  UNL     1     -12.464  52.115   6.999  1.00  0.00    -0.354 N
ATOM     40  H6  UNL     1     -11.712  51.427   7.031  1.00  0.00     0.166 HD
BRANCH  36  41
HETATM   41  C18 UNL     1     -14.727  55.614  10.753  1.00  0.00     0.311 C
BRANCH  41  42
HETATM   42  N5  UNL     1     -13.943  56.742  11.138  1.00  0.00     0.096 N
HETATM   43  C19 UNL     1     -13.019  57.232  10.172  1.00  0.00     0.299 C
HETATM   44  C20 UNL     1     -13.541  58.428   9.403  1.00  0.00     0.198 C
HETATM   45  O4  UNL     1     -13.802  59.507  10.242  1.00  0.00    -0.388 OA
HETATM   46  C21 UNL     1     -14.220  59.137  11.498  1.00  0.00     0.198 C
HETATM   47  C22 UNL     1     -14.887  57.793  11.547  1.00  0.00     0.299 C
ENDBRANCH  41  42
ENDBRANCH  36  41
ENDBRANCH   7  31
TORSDOF 10
ENDMDL