MODEL 1
REMARK VINA RESULT: -7.410760489      0.000      0.000
REMARK  10 active torsions:
REMARK  status: ('A' for Active; 'I' for Inactive)
REMARK    1  A    between atoms: N1_2  and  C2_4
REMARK    2  A    between atoms: C6_8  and  C7_9
REMARK    3  A    between atoms: C8_10  and  C9_11
REMARK    4  A    between atoms: C10_12  and  O1_13
REMARK    5  A    between atoms: N4_30  and  O2_31
REMARK    6  A    between atoms: N5_36  and  C27_37
REMARK    7  A    between atoms: C27_37  and  C28_38
REMARK    8  A    between atoms: C28_38  and  C29_39
REMARK    9  A    between atoms: C29_39  and  C30_40
REMARK   10  A    between atoms: C30_40  and  N6_41
ROOT
HETATM    1  C9  UNL     1     -13.634  57.144   9.525  1.00  0.00     0.010 A
HETATM    2  C10 UNL     1     -13.960  56.281  10.521  1.00  0.00     0.081 A
HETATM    3  C12 UNL     1     -14.467  56.792  11.667  1.00  0.00     0.068 A
HETATM    4  C13 UNL     1     -14.703  58.111  11.971  1.00  0.00     0.046 A
HETATM    5  N2  UNL     1     -15.466  58.522  13.043  1.00  0.00    -0.364 N
ATOM      6  H2  UNL     1     -15.009  58.482  13.954  1.00  0.00     0.165 HD
HETATM    7  C14 UNL     1     -16.779  58.982  13.045  1.00  0.00     0.101 C
HETATM    8  C15 UNL     1     -17.346  60.054  12.346  1.00  0.00    -0.003 C
HETATM    9  C16 UNL     1     -17.776  61.233  13.076  1.00  0.00     0.040 C
HETATM   10  C17 UNL     1     -16.759  62.190  13.298  1.00  0.00     0.047 C
HETATM   11  N3  UNL     1     -17.127  63.429  13.993  1.00  0.00    -0.102 NA
HETATM   12  C18 UNL     1     -15.464  62.002  12.871  1.00  0.00     0.027 C
HETATM   13  C19 UNL     1     -14.685  61.050  12.372  1.00  0.00     0.017 C
HETATM   14  C20 UNL     1     -14.625  60.372  11.117  1.00  0.00     0.007 A
HETATM   15  C21 UNL     1     -14.347  59.030  10.933  1.00  0.00     0.016 A
HETATM   16  C22 UNL     1     -13.836  58.524   9.743  1.00  0.00     0.008 A
HETATM   17  C23 UNL     1     -13.606  59.327   8.652  1.00  0.00     0.136 A
HETATM   18  N4  UNL     1     -13.915  60.631   8.828  1.00  0.00    -0.234 N
HETATM   19  C24 UNL     1     -14.396  61.119   9.969  1.00  0.00     0.074 A
HETATM   20  C25 UNL     1     -15.134  62.362   9.916  1.00  0.00     0.050 C
HETATM   21  C26 UNL     1     -16.535  62.355  10.136  1.00  0.00     0.092 C
HETATM   22  N5  UNL     1     -17.424  61.359  10.216  1.00  0.00    -0.365 N
HETATM   23  C32 UNL     1     -17.499  60.196  10.944  1.00  0.00     0.103 C
ENDROOT
BRANCH   1  24
HETATM   24  C8  UNL     1     -13.056  56.699   8.269  1.00  0.00     0.017 C
HETATM   25  C7  UNL     1     -13.721  56.081   7.333  1.00  0.00     0.030 C
BRANCH  25  26
HETATM   26  C6  UNL     1     -13.042  55.658   6.067  1.00  0.00     0.033 A
HETATM   27  C5  UNL     1     -11.959  54.824   6.055  1.00  0.00     0.029 A
HETATM   28  C4  UNL     1     -11.395  54.484   4.824  1.00  0.00     0.006 A
HETATM   29  C3  UNL     1     -11.881  54.949   3.624  1.00  0.00     0.048 A
HETATM   30  C2  UNL     1     -12.974  55.783   3.707  1.00  0.00     0.101 A
HETATM   31  N9  UNL     1     -13.522  56.116   4.889  1.00  0.00    -0.343 N
ATOM     32  H9  UNL     1     -14.330  56.737   4.896  1.00  0.00     0.167 HD
BRANCH  30  33
HETATM   33  N1  UNL     1     -13.454  56.236   2.599  1.00  0.00    -0.381 N
HETATM   34  C1  UNL     1     -12.965  55.840   1.294  1.00  0.00     0.147 C
ATOM     35  H1  UNL     1     -14.219  56.909   2.643  1.00  0.00     0.160 HD
ENDBRANCH  30  33
ENDBRANCH  25  26
ENDBRANCH   1  24
BRANCH   2  36
HETATM   36  O1  UNL     1     -13.800  54.878  10.429  1.00  0.00    -0.355 OA
HETATM   37  C11 UNL     1     -12.653  54.215  10.868  1.00  0.00     0.210 C
ENDBRANCH   2  36
BRANCH  18  38
HETATM   38  O2  UNL     1     -13.678  61.499   7.731  1.00  0.00    -0.283 OA
ATOM     39  H2  UNL     1     -12.800  61.854   7.648  1.00  0.00     0.245 HD
ENDBRANCH  18  38
BRANCH  22  40
HETATM   40  C27 UNL     1     -18.640  61.559   9.281  1.00  0.00     0.128 C
BRANCH  40  41
HETATM   41  C28 UNL     1     -18.206  61.681   7.901  1.00  0.00     0.022 C
BRANCH  41  42
HETATM   42  C29 UNL     1     -17.928  60.463   7.132  1.00  0.00     0.021 C
BRANCH  42  43
HETATM   43  C30 UNL     1     -16.511  60.106   6.900  1.00  0.00     0.122 C
BRANCH  43  44
HETATM   44  N6  UNL     1     -16.351  59.311   5.724  1.00  0.00    -0.367 N
HETATM   45  C31 UNL     1     -15.322  59.323   4.948  1.00  0.00     0.196 C
HETATM   46  N7  UNL     1     -15.375  58.437   3.815  1.00  0.00    -0.067 NA
HETATM   47  N8  UNL     1     -14.211  60.152   5.191  1.00  0.00    -0.067 NA
ATOM     48  H6  UNL     1     -17.115  58.681   5.478  1.00  0.00     0.161 HD
ENDBRANCH  43  44
ENDBRANCH  42  43
ENDBRANCH  41  42
ENDBRANCH  40  41
ENDBRANCH  22  40
TORSDOF 10
ENDMDL