MODEL 5
REMARK VINA RESULT: -10.741501016      3.215      6.182
REMARK  10 active torsions:
REMARK  status: ('A' for Active; 'I' for Inactive)
REMARK    1  A    between atoms: C5_5  and  S1_6
REMARK    2  A    between atoms: S1_6  and  N1_9
REMARK    3  A    between atoms: N1_9  and  C6_11
REMARK    4  A    between atoms: C8_15  and  C9_16
REMARK    5  A    between atoms: C9_16  and  C10_17
REMARK    6  A    between atoms: C9_16  and  C20_34
REMARK    7  A    between atoms: C10_17  and  N3_18
REMARK    8  A    between atoms: N3_18  and  C11_20
REMARK    9  A    between atoms: C11_20  and  C12_21
REMARK   10  A    between atoms: C12_21  and  C13_22
ROOT
HETATM    1  C9  UNL     1     -13.029  53.871   5.770  1.00  0.00     0.089 C
ENDROOT
BRANCH   1   2
HETATM    2  C8  UNL     1     -12.992  52.614   4.977  1.00  0.00     0.035 A
HETATM    3  N2  UNL     1     -13.999  51.743   5.094  1.00  0.00    -0.364 N
HETATM    4  C7  UNL     1     -14.058  50.589   4.386  1.00  0.00     0.137 A
ATOM      5  H2  UNL     1     -14.755  51.956   5.744  1.00  0.00     0.165 HD
HETATM    6  C6  UNL     1     -13.068  50.270   3.509  1.00  0.00     0.130 A
HETATM    7  N7  UNL     1     -12.032  51.150   3.382  1.00  0.00    -0.349 N
HETATM    8  C28 UNL     1     -11.993  52.285   4.091  1.00  0.00     0.115 A
ATOM      9  H7  UNL     1     -11.273  50.938   2.734  1.00  0.00     0.167 HD
BRANCH   6  10
HETATM   10  N1  UNL     1     -13.099  49.212   2.812  1.00  0.00    -0.265 N
ATOM     11  H1  UNL     1     -13.059  48.342   3.344  1.00  0.00     0.180 HD
BRANCH  10  12
HETATM   12  S1  UNL     1     -13.196  49.023   1.127  1.00  0.00     0.264 S
HETATM   13  O1  UNL     1     -12.888  50.278   0.374  1.00  0.00    -0.200 OA
HETATM   14  O2  UNL     1     -12.177  47.986   0.666  1.00  0.00    -0.200 OA
BRANCH  12  15
HETATM   15  C5  UNL     1     -14.803  48.412   0.710  1.00  0.00     0.079 A
HETATM   16  C4  UNL     1     -15.838  48.631   1.592  1.00  0.00     0.026 A
HETATM   17  C3  UNL     1     -17.104  48.184   1.311  1.00  0.00     0.008 A
HETATM   18  C2  UNL     1     -17.312  47.514   0.136  1.00  0.00    -0.062 A
HETATM   19  C1  UNL     1     -18.661  47.026  -0.177  1.00  0.00     0.048 C
HETATM   20  C30 UNL     1     -16.286  47.284  -0.763  1.00  0.00     0.008 A
HETATM   21  C29 UNL     1     -15.003  47.741  -0.471  1.00  0.00     0.026 A
ENDBRANCH  12  15
ENDBRANCH  10  12
ENDBRANCH   6  10
ENDBRANCH   1   2
BRANCH   1  22
HETATM   22  C10 UNL     1     -14.290  54.633   5.565  1.00  0.00     0.129 C
BRANCH  22  23
HETATM   23  N3  UNL     1     -14.088  55.731   4.671  1.00  0.00    -0.420 N
ATOM     24  H3  UNL     1     -13.843  56.664   5.003  1.00  0.00     0.153 HD
BRANCH  23  25
HETATM   25  C11 UNL     1     -14.251  55.438   3.283  1.00  0.00     0.118 C
BRANCH  25  26
HETATM   26  C12 UNL     1     -12.939  55.735   2.562  1.00  0.00     0.058 C
BRANCH  26  27
HETATM   27  C13 UNL     1     -13.066  55.294   1.130  1.00  0.00    -0.054 A
HETATM   28  C14 UNL     1     -12.580  56.106   0.139  1.00  0.00     0.009 A
HETATM   29  C15 UNL     1     -12.721  55.693  -1.186  1.00  0.00     0.032 A
HETATM   30  C16 UNL     1     -13.337  54.492  -1.493  1.00  0.00     0.063 A
HETATM   31  N4  UNL     1     -13.616  53.843  -2.641  1.00  0.00    -0.307 N
HETATM   32  C18 UNL     1     -13.824  53.679  -0.482  1.00  0.00     0.063 A
HETATM   33  C17 UNL     1     -14.242  52.682  -2.412  1.00  0.00     0.325 A
ATOM     34  H4  UNL     1     -13.379  54.193  -3.570  1.00  0.00     0.170 HD
HETATM   35  O3  UNL     1     -14.662  51.800  -3.223  1.00  0.00    -0.247 OA
HETATM   36  N5  UNL     1     -14.360  52.601  -1.055  1.00  0.00    -0.306 N
ATOM     37  H5  UNL     1     -14.796  51.828  -0.551  1.00  0.00     0.170 HD
HETATM   38  C19 UNL     1     -13.688  54.079   0.831  1.00  0.00     0.039 A
ENDBRANCH  26  27
ENDBRANCH  25  26
ENDBRANCH  23  25
ENDBRANCH  22  23
ENDBRANCH   1  22
BRANCH   1  39
HETATM   39  C20 UNL     1     -12.871  53.507   7.198  1.00  0.00    -0.019 A
HETATM   40  C21 UNL     1     -12.756  52.262   7.779  1.00  0.00     0.097 A
HETATM   41  N6  UNL     1     -12.606  52.394   9.109  1.00  0.00    -0.365 N
HETATM   42  C22 UNL     1     -12.617  53.694   9.448  1.00  0.00     0.042 A
ATOM     43  H6  UNL     1     -12.499  51.620   9.764  1.00  0.00     0.165 HD
HETATM   44  C23 UNL     1     -12.508  54.375  10.649  1.00  0.00     0.030 A
HETATM   45  C27 UNL     1     -12.783  54.405   8.254  1.00  0.00    -0.001 A
HETATM   46  C24 UNL     1     -12.565  55.764  10.642  1.00  0.00     0.002 A
HETATM   47  C25 UNL     1     -12.727  56.481   9.483  1.00  0.00     0.001 A
HETATM   48  C26 UNL     1     -12.834  55.795   8.297  1.00  0.00     0.014 A
ENDBRANCH   1  39
TORSDOF 10
ENDMDL