MODEL 1
REMARK VINA RESULT: -8.748653565      0.000      0.000
REMARK  10 active torsions:
REMARK  status: ('A' for Active; 'I' for Inactive)
REMARK    1  A    between atoms: C2_2  and  C3_3
REMARK    2  A    between atoms: C3_3  and  C4_4
REMARK    3  A    between atoms: C4_4  and  C5_5
REMARK    4  A    between atoms: C9_15  and  C10_16
REMARK    5  A    between atoms: C10_16  and  C12_18
REMARK    6  A    between atoms: C15_24  and  C16_25
REMARK    7  A    between atoms: C16_25  and  C17_26
REMARK    8  A    between atoms: C20_31  and  O4_32
REMARK    9  A    between atoms: C21_34  and  C22_35
REMARK   10  A    between atoms: C22_35  and  C23_36
ROOT
HETATM    1  C23 UNL     1     -12.568  49.220   0.237  1.00  0.00    -0.029 A
HETATM    2  C24 UNL     1     -11.832  48.688   1.286  1.00  0.00     0.096 A
HETATM    3  N5  UNL     1     -12.449  47.584   1.693  1.00  0.00    -0.365 N
ATOM      4  H5  UNL     1     -12.122  46.991   2.455  1.00  0.00     0.165 HD
HETATM    5  C25 UNL     1     -13.557  47.346   0.976  1.00  0.00     0.043 A
HETATM    6  C26 UNL     1     -14.512  46.343   1.001  1.00  0.00     0.032 A
HETATM    7  C27 UNL     1     -15.540  46.356   0.121  1.00  0.00     0.025 A
HETATM    8  C28 UNL     1     -15.641  47.385  -0.817  1.00  0.00     0.045 A
HETATM    9  C29 UNL     1     -16.733  47.371  -1.726  1.00  0.00     0.099 C
HETATM   10  N6  UNL     1     -17.599  47.375  -2.464  1.00  0.00    -0.191 NA
HETATM   11  C30 UNL     1     -14.696  48.386  -0.849  1.00  0.00     0.037 A
HETATM   12  C31 UNL     1     -13.632  48.375   0.061  1.00  0.00    -0.000 A
ENDROOT
BRANCH   1  13
HETATM   13  C22 UNL     1     -12.173  50.472  -0.418  1.00  0.00     0.055 C
BRANCH  13  14
HETATM   14  C21 UNL     1     -12.732  51.672   0.254  1.00  0.00     0.087 C
HETATM   15  C5  UNL     1     -13.549  52.523  -0.756  1.00  0.00     0.096 C
HETATM   16  N1  UNL     1     -12.726  53.389  -1.554  1.00  0.00    -0.354 N
HETATM   17  C6  UNL     1     -12.770  54.751  -1.846  1.00  0.00     0.235 C
ATOM     18  H1  UNL     1     -11.947  52.905  -2.002  1.00  0.00     0.162 HD
HETATM   19  O1  UNL     1     -12.991  55.159  -3.016  1.00  0.00    -0.272 OA
HETATM   20  C7  UNL     1     -12.570  55.900  -0.867  1.00  0.00     0.225 C
HETATM   21  N2  UNL     1     -12.477  55.365   0.468  1.00  0.00    -0.351 N
HETATM   22  C8  UNL     1     -13.020  55.550   1.708  1.00  0.00     0.241 C
ATOM     23  H2  UNL     1     -11.790  54.612   0.496  1.00  0.00     0.163 HD
HETATM   24  O2  UNL     1     -14.208  55.152   1.916  1.00  0.00    -0.271 OA
HETATM   25  C9  UNL     1     -12.512  56.146   2.978  1.00  0.00     0.180 C
HETATM   26  N3  UNL     1     -11.963  55.118   3.860  1.00  0.00    -0.346 N
HETATM   27  C14 UNL     1     -11.960  53.715   3.743  1.00  0.00     0.241 C
ATOM     28  H3  UNL     1     -11.508  55.476   4.699  1.00  0.00     0.163 HD
HETATM   29  O3  UNL     1     -10.845  53.133   3.582  1.00  0.00    -0.271 OA
HETATM   30  C15 UNL     1     -13.095  52.766   3.783  1.00  0.00     0.175 C
HETATM   31  N4  UNL     1     -13.108  51.687   2.871  1.00  0.00    -0.361 N
HETATM   32  C20 UNL     1     -13.451  51.487   1.525  1.00  0.00     0.118 C
ATOM     33  H4  UNL     1     -12.782  50.824   3.306  1.00  0.00     0.162 HD
BRANCH  15  34
HETATM   34  C4  UNL     1     -14.417  51.632  -1.583  1.00  0.00     0.026 C
BRANCH  34  35
HETATM   35  C3  UNL     1     -14.230  51.831  -3.071  1.00  0.00     0.002 C
BRANCH  35  36
HETATM   36  C2  UNL     1     -14.165  50.415  -3.665  1.00  0.00    -0.004 C
HETATM   37  C1  UNL     1     -15.530  49.975  -4.143  1.00  0.00     0.005 C
ENDBRANCH  35  36
ENDBRANCH  34  35
ENDBRANCH  15  34
BRANCH  25  38
HETATM   38  C10 UNL     1     -13.506  57.004   3.700  1.00  0.00     0.013 C
HETATM   39  C11 UNL     1     -14.071  58.170   2.998  1.00  0.00     0.012 C
BRANCH  38  40
HETATM   40  C12 UNL     1     -12.915  57.527   5.021  1.00  0.00     0.002 C
HETATM   41  C13 UNL     1     -12.399  58.924   4.895  1.00  0.00     0.005 C
ENDBRANCH  38  40
ENDBRANCH  25  38
BRANCH  30  42
HETATM   42  C16 UNL     1     -12.992  52.135   5.228  1.00  0.00     0.038 C
BRANCH  42  43
HETATM   43  C17 UNL     1     -13.092  53.239   6.242  1.00  0.00    -0.020 C
HETATM   44  C18 UNL     1     -14.528  53.736   6.247  1.00  0.00     0.009 C
HETATM   45  C19 UNL     1     -12.816  52.743   7.650  1.00  0.00     0.009 C
ENDBRANCH  42  43
ENDBRANCH  30  42
BRANCH  32  46
HETATM   46  O4  UNL     1     -14.658  51.039   1.264  1.00  0.00    -0.349 OA
ATOM     47  H4  UNL     1     -14.960  50.279   1.748  1.00  0.00     0.219 HD
ENDBRANCH  32  46
ENDBRANCH  13  14
ENDBRANCH   1  13
TORSDOF 10
ENDMDL