MODEL 3
REMARK VINA RESULT: -8.821819624      2.323      4.850
REMARK  9 active torsions:
REMARK  status: ('A' for Active; 'I' for Inactive)
REMARK    1  A    between atoms: C2_2  and  C3_3
REMARK    2  A    between atoms: C6_6  and  C7_7
REMARK    3  A    between atoms: C7_7  and  C8_8
REMARK    4  A    between atoms: C10_13  and  C11_14
REMARK    5  A    between atoms: C11_14  and  C12_15
REMARK    6  A    between atoms: C15_18  and  O2_19
REMARK    7  A    between atoms: C20_27  and  C22_29
REMARK    8  A    between atoms: C25_35  and  C26_36
REMARK    9  A    between atoms: C26_36  and  C28_38
ROOT
HETATM    1  C8  UNL     1      -9.140  16.249  28.998  1.00  0.00     0.180 C
HETATM    2  N1  UNL     1      -8.648  14.992  29.403  1.00  0.00    -0.346 N
ATOM      3  H1  UNL     1      -7.745  14.723  29.011  1.00  0.00     0.163 HD
HETATM    4  C9  UNL     1      -9.242  14.052  30.282  1.00  0.00     0.241 C
HETATM    5  O1  UNL     1      -8.566  13.035  30.669  1.00  0.00    -0.271 OA
HETATM    6  C10 UNL     1     -10.625  14.148  30.806  1.00  0.00     0.180 C
HETATM    7  N2  UNL     1     -11.244  12.829  30.824  1.00  0.00    -0.345 N
ATOM      8  H2  UNL     1     -10.789  12.120  31.399  1.00  0.00     0.163 HD
HETATM    9  C19 UNL     1     -12.405  12.429  30.130  1.00  0.00     0.246 C
HETATM   10  O3  UNL     1     -13.307  11.880  30.839  1.00  0.00    -0.271 OA
HETATM   11  C20 UNL     1     -12.671  12.583  28.683  1.00  0.00     0.110 C
HETATM   12  C21 UNL     1     -13.722  11.467  28.353  1.00  0.00     0.049 C
HETATM   13  N3  UNL     1     -11.543  12.271  27.836  1.00  0.00    -0.342 N
ATOM     14  H3  UNL     1     -11.103  11.384  28.083  1.00  0.00     0.163 HD
HETATM   15  C24 UNL     1     -10.921  12.889  26.774  1.00  0.00     0.241 C
HETATM   16  O4  UNL     1     -11.161  12.348  25.618  1.00  0.00    -0.271 OA
HETATM   17  C25 UNL     1     -10.025  14.050  26.652  1.00  0.00     0.180 C
HETATM   18  N4  UNL     1     -10.543  15.311  27.033  1.00  0.00    -0.346 N
ATOM     19  H4  UNL     1     -11.454  15.525  26.628  1.00  0.00     0.163 HD
HETATM   20  C30 UNL     1     -10.042  16.310  27.853  1.00  0.00     0.241 C
HETATM   21  O5  UNL     1     -10.427  17.520  27.575  1.00  0.00    -0.271 OA
ENDROOT
BRANCH   1  22
HETATM   22  C7  UNL     1      -8.091  17.330  28.836  1.00  0.00     0.073 C
BRANCH  22  23
HETATM   23  C6  UNL     1      -7.045  17.049  27.855  1.00  0.00    -0.056 A
HETATM   24  C5  UNL     1      -6.889  17.698  26.649  1.00  0.00     0.007 A
HETATM   25  C4  UNL     1      -5.879  17.399  25.765  1.00  0.00     0.007 A
HETATM   26  C3  UNL     1      -4.965  16.420  26.057  1.00  0.00    -0.059 A
HETATM   27  C32 UNL     1      -5.076  15.747  27.239  1.00  0.00     0.007 A
HETATM   28  C31 UNL     1      -6.093  16.059  28.113  1.00  0.00     0.007 A
BRANCH  26  29
HETATM   29  C2  UNL     1      -3.850  16.068  25.115  1.00  0.00     0.034 C
HETATM   30  C1  UNL     1      -2.869  17.226  25.140  1.00  0.00     0.010 C
ENDBRANCH  26  29
ENDBRANCH  22  23
ENDBRANCH   1  22
BRANCH   6  31
HETATM   31  C11 UNL     1     -10.582  14.757  32.185  1.00  0.00     0.073 C
BRANCH  31  32
HETATM   32  C12 UNL     1     -10.740  13.833  33.300  1.00  0.00    -0.056 A
HETATM   33  C13 UNL     1      -9.633  13.330  33.938  1.00  0.00     0.010 A
HETATM   34  C14 UNL     1      -9.749  12.455  34.966  1.00  0.00     0.037 A
HETATM   35  C15 UNL     1     -10.976  12.042  35.403  1.00  0.00     0.068 A
HETATM   36  C17 UNL     1     -12.108  12.528  34.785  1.00  0.00     0.037 A
HETATM   37  C18 UNL     1     -11.981  13.428  33.729  1.00  0.00     0.010 A
BRANCH  35  38
HETATM   38  O2  UNL     1     -11.102  11.130  36.475  1.00  0.00    -0.356 OA
HETATM   39  C16 UNL     1     -11.441   9.781  36.226  1.00  0.00     0.210 C
ENDBRANCH  35  38
ENDBRANCH  31  32
ENDBRANCH   6  31
BRANCH  17  40
HETATM   40  C26 UNL     1      -9.537  14.216  25.201  1.00  0.00     0.013 C
HETATM   41  C27 UNL     1      -8.069  14.388  25.091  1.00  0.00     0.012 C
BRANCH  40  42
HETATM   42  C28 UNL     1     -10.370  15.202  24.426  1.00  0.00     0.002 C
HETATM   43  C29 UNL     1     -10.393  14.880  22.950  1.00  0.00     0.005 C
ENDBRANCH  40  42
ENDBRANCH  17  40
BRANCH  11  44
HETATM   44  C22 UNL     1     -13.436  13.819  28.350  1.00  0.00     0.036 C
HETATM   45  C23 UNL     1     -14.512  13.466  27.307  1.00  0.00     0.008 C
ENDBRANCH  11  44
TORSDOF 9
ENDMDL