MODEL 3
REMARK VINA RESULT: -7.801214899      1.464      2.016
REMARK  11 active torsions:
REMARK  status: ('A' for Active; 'I' for Inactive)
REMARK    1  A    between atoms: C7_7  and  C8_8
REMARK    2  A    between atoms: C15_19  and  O1_20
REMARK    3  A    between atoms: C16_22  and  O2_23
REMARK    4  A    between atoms: C19_27  and  C20_28
REMARK    5  A    between atoms: C20_28  and  C22_30
REMARK    6  A    between atoms: C22_30  and  C23_31
REMARK    7  A    between atoms: C23_31  and  C24_32
REMARK       I    between atoms: C24_32  and  N3_34
REMARK    8  A    between atoms: N3_34  and  C25_36
REMARK    9  A    between atoms: C25_36  and  C26_37
REMARK   10  A    between atoms: C26_37  and  C27_38
REMARK   11  A    between atoms: C27_38  and  N4_39
ROOT
HETATM    1  C1  UNL     1      -5.268  19.758  27.625  1.00  0.00     0.098 C
HETATM    2  C2  UNL     1      -5.035  18.960  26.727  1.00  0.00    -0.177 C
HETATM    3  C3  UNL     1      -4.724  17.985  25.640  1.00  0.00     0.019 C
HETATM    4  C4  UNL     1      -4.767  18.886  24.433  1.00  0.00     0.022 C
HETATM    5  C5  UNL     1      -4.319  18.219  23.174  1.00  0.00     0.002 C
HETATM    6  C6  UNL     1      -2.846  18.027  23.333  1.00  0.00     0.012 C
HETATM    7  C7  UNL     1      -2.452  17.356  24.590  1.00  0.00     0.055 C
HETATM    8  C9  UNL     1      -3.339  17.432  25.752  1.00  0.00     0.016 C
HETATM    9  C10 UNL     1      -3.285  16.099  26.472  1.00  0.00     0.007 C
HETATM   10  C11 UNL     1      -4.423  16.041  27.463  1.00  0.00     0.006 C
HETATM   11  C12 UNL     1      -5.676  15.848  26.592  1.00  0.00    -0.004 C
HETATM   12  C13 UNL     1      -5.809  16.902  25.599  1.00  0.00     0.012 C
HETATM   13  C14 UNL     1      -7.180  17.491  25.431  1.00  0.00     0.041 C
HETATM   14  C15 UNL     1      -8.167  16.462  25.009  1.00  0.00     0.148 C
HETATM   15  C16 UNL     1      -8.039  15.098  25.495  1.00  0.00     0.155 C
HETATM   16  C17 UNL     1      -7.983  14.761  26.935  1.00  0.00    -0.008 C
HETATM   17  C18 UNL     1      -7.728  13.242  26.933  1.00  0.00     0.019 C
HETATM   18  C19 UNL     1      -9.098  15.147  27.795  1.00  0.00     0.001 C
HETATM   19  C32 UNL     1      -8.548  15.871  29.009  1.00  0.00     0.006 C
HETATM   20  C33 UNL     1      -7.148  16.313  28.624  1.00  0.00     0.006 C
HETATM   21  C34 UNL     1      -6.718  15.433  27.515  1.00  0.00     0.001 C
ENDROOT
BRANCH   7  22
HETATM   22  C8  UNL     1      -1.993  15.976  24.207  1.00  0.00     0.091 C
HETATM   23  N1  UNL     1      -2.731  14.927  24.261  1.00  0.00    -0.391 N
ATOM     24  H12 UNL     1      -3.682  15.105  24.582  1.00  0.00     0.157 HD
ATOM     25  H11 UNL     1      -2.420  13.991  24.001  1.00  0.00     0.157 HD
HETATM   26  N2  UNL     1      -0.655  15.726  23.754  1.00  0.00    -0.088 NA
ENDBRANCH   7  22
BRANCH  14  27
HETATM   27  O1  UNL     1      -9.475  17.003  25.071  1.00  0.00    -0.393 OA
ATOM     28  H1  UNL     1      -9.631  17.549  24.310  1.00  0.00     0.210 HD
ENDBRANCH  14  27
BRANCH  15  29
HETATM   29  O2  UNL     1      -9.012  14.353  24.778  1.00  0.00    -0.392 OA
ATOM     30  H2  UNL     1      -9.797  14.388  25.312  1.00  0.00     0.210 HD
ENDBRANCH  15  29
BRANCH  18  31
HETATM   31  C20 UNL     1     -10.131  14.218  28.308  1.00  0.00    -0.010 C
HETATM   32  C21 UNL     1      -9.713  13.773  29.675  1.00  0.00     0.010 C
BRANCH  31  33
HETATM   33  C22 UNL     1     -11.529  14.566  28.245  1.00  0.00     0.037 C
BRANCH  33  34
HETATM   34  C23 UNL     1     -12.572  13.609  28.684  1.00  0.00     0.048 C
BRANCH  34  35
HETATM   35  C24 UNL     1     -13.053  13.563  30.037  1.00  0.00     0.237 C
HETATM   36  O3  UNL     1     -14.137  13.040  30.365  1.00  0.00    -0.269 OA
HETATM   37  N3  UNL     1     -12.286  14.129  31.092  1.00  0.00    -0.358 N
ATOM     38  H3  UNL     1     -11.394  14.567  30.861  1.00  0.00     0.162 HD
BRANCH  37  39
HETATM   39  C25 UNL     1     -12.704  14.117  32.469  1.00  0.00     0.124 C
BRANCH  39  40
HETATM   40  C26 UNL     1     -11.704  14.660  33.430  1.00  0.00     0.050 C
BRANCH  40  41
HETATM   41  C27 UNL     1     -10.612  13.591  33.578  1.00  0.00     0.274 C
BRANCH  41  42
HETATM   42  N4  UNL     1      -9.330  14.220  33.849  1.00  0.00     0.088 N
HETATM   43  C28 UNL     1      -8.355  13.620  32.960  1.00  0.00     0.272 C
HETATM   44  C29 UNL     1      -7.473  14.716  32.473  1.00  0.00     0.032 C
HETATM   45  C30 UNL     1      -8.192  15.993  32.731  1.00  0.00     0.032 C
HETATM   46  C31 UNL     1      -9.429  15.602  33.466  1.00  0.00     0.272 C
ENDBRANCH  41  42
ENDBRANCH  40  41
ENDBRANCH  39  40
ENDBRANCH  37  39
ENDBRANCH  34  35
ENDBRANCH  33  34
ENDBRANCH  31  33
ENDBRANCH  18  31
TORSDOF 11
ENDMDL