MODEL 1
REMARK VINA RESULT: -6.774959388      0.000      0.000
REMARK  10 active torsions:
REMARK  status: ('A' for Active; 'I' for Inactive)
REMARK    1  A    between atoms: C2_2  and  C3_3
REMARK    2  A    between atoms: C3_3  and  C5_5
REMARK    3  A    between atoms: C8_11  and  C9_12
REMARK    4  A    between atoms: C9_12  and  C10_13
REMARK    5  A    between atoms: C16_22  and  C17_23
REMARK    6  A    between atoms: C17_23  and  C18_24
REMARK    7  A    between atoms: C21_29  and  C22_30
REMARK    8  A    between atoms: C26_37  and  C27_38
REMARK    9  A    between atoms: C27_38  and  C28_39
REMARK   10  A    between atoms: C31_42  and  O4_43
ROOT
HETATM    1  C5  UNL     1     -11.686  14.817  27.523  1.00  0.00     0.095 C
HETATM    2  C6  UNL     1     -10.427  14.879  28.320  1.00  0.00     0.128 C
HETATM    3  C7  UNL     1     -10.190  16.208  28.927  1.00  0.00     0.220 C
HETATM    4  O1  UNL     1     -10.685  17.241  28.336  1.00  0.00    -0.274 OA
HETATM    5  N1  UNL     1      -9.468  16.494  30.105  1.00  0.00    -0.348 N
ATOM      6  H1  UNL     1      -9.997  16.947  30.850  1.00  0.00     0.163 HD
HETATM    7  C8  UNL     1      -8.077  16.229  30.392  1.00  0.00     0.177 C
HETATM    8  C13 UNL     1      -7.489  15.191  29.520  1.00  0.00     0.240 C
HETATM    9  O2  UNL     1      -7.704  13.959  29.787  1.00  0.00    -0.271 OA
HETATM   10  N2  UNL     1      -6.701  15.507  28.407  1.00  0.00    -0.359 N
ATOM     11  H2  UNL     1      -6.892  14.969  27.562  1.00  0.00     0.162 HD
HETATM   12  C14 UNL     1      -5.669  16.480  28.301  1.00  0.00     0.128 C
HETATM   13  C15 UNL     1      -5.480  16.988  26.871  1.00  0.00     0.072 C
HETATM   14  C16 UNL     1      -5.313  15.892  25.856  1.00  0.00    -0.011 C
HETATM   15  N3  UNL     1      -6.380  15.527  25.074  1.00  0.00    -0.362 N
ATOM     16  H3  UNL     1      -6.616  14.536  25.134  1.00  0.00     0.165 HD
HETATM   17  C21 UNL     1      -7.184  16.233  24.235  1.00  0.00     0.081 C
HETATM   18  C25 UNL     1      -8.476  16.781  24.698  1.00  0.00     0.265 C
HETATM   19  O3  UNL     1      -8.566  18.023  24.862  1.00  0.00    -0.266 OA
HETATM   20  N4  UNL     1      -9.647  16.016  24.978  1.00  0.00    -0.344 N
ATOM     21  H4  UNL     1     -10.358  16.436  25.577  1.00  0.00     0.163 HD
HETATM   22  C26 UNL     1      -9.892  14.699  24.475  1.00  0.00     0.159 C
HETATM   23  C31 UNL     1     -10.648  13.789  25.369  1.00  0.00     0.135 C
HETATM   24  N5  UNL     1     -11.646  14.068  26.308  1.00  0.00    -0.367 N
ATOM     25  H5  UNL     1     -12.543  13.644  26.073  1.00  0.00     0.161 HD
ENDROOT
BRANCH   1  26
HETATM   26  C3  UNL     1     -12.875  14.339  28.383  1.00  0.00     0.004 C
HETATM   27  C4  UNL     1     -13.972  13.747  27.579  1.00  0.00     0.012 C
BRANCH  26  28
HETATM   28  C2  UNL     1     -12.455  13.560  29.572  1.00  0.00     0.002 C
HETATM   29  C1  UNL     1     -12.609  12.048  29.349  1.00  0.00     0.005 C
ENDBRANCH  26  28
ENDBRANCH   1  26
BRANCH  23  30
HETATM   30  O4  UNL     1     -10.267  12.552  25.193  1.00  0.00    -0.348 OA
ATOM     31  H4  UNL     1     -10.629  11.992  25.869  1.00  0.00     0.219 HD
ENDBRANCH  23  30
BRANCH  22  32
HETATM   32  C27 UNL     1     -10.384  14.651  23.071  1.00  0.00     0.037 C
BRANCH  32  33
HETATM   33  C28 UNL     1      -9.495  14.242  21.985  1.00  0.00    -0.020 C
HETATM   34  C29 UNL     1      -8.112  13.773  22.391  1.00  0.00     0.009 C
HETATM   35  C30 UNL     1      -9.330  15.143  20.815  1.00  0.00     0.009 C
ENDBRANCH  32  33
ENDBRANCH  22  32
BRANCH   7  36
HETATM   36  C9  UNL     1      -7.809  15.962  31.839  1.00  0.00     0.038 C
BRANCH  36  37
HETATM   37  C10 UNL     1      -8.848  15.329  32.668  1.00  0.00    -0.020 C
HETATM   38  C11 UNL     1      -9.136  15.968  34.003  1.00  0.00     0.009 C
HETATM   39  C12 UNL     1      -8.413  13.881  33.040  1.00  0.00     0.009 C
ENDBRANCH  36  37
ENDBRANCH   7  36
BRANCH  17  40
HETATM   40  C22 UNL     1      -6.506  17.225  23.274  1.00  0.00     0.033 C
HETATM   41  C23 UNL     1      -7.476  17.617  22.169  1.00  0.00     0.016 C
HETATM   42  C24 UNL     1      -5.377  16.480  22.542  1.00  0.00     0.016 C
ENDBRANCH  17  40
BRANCH  14  43
HETATM   43  C17 UNL     1      -3.945  15.991  25.165  1.00  0.00     0.056 C
BRANCH  43  44
HETATM   44  C18 UNL     1      -3.327  17.363  25.364  1.00  0.00    -0.018 C
HETATM   45  C19 UNL     1      -2.264  17.466  24.256  1.00  0.00     0.010 C
HETATM   46  C20 UNL     1      -2.566  17.468  26.660  1.00  0.00     0.010 C
ENDBRANCH  43  44
ENDBRANCH  14  43
TORSDOF 10
ENDMDL