MODEL 4
REMARK VINA RESULT: -10.045749300      1.080      1.332
REMARK  12 active torsions:
REMARK  status: ('A' for Active; 'I' for Inactive)
REMARK    1  A    between atoms: C2_2  and  C3_3
REMARK    2  A    between atoms: C3_3  and  C4_4
REMARK    3  A    between atoms: C4_4  and  C5_5
REMARK    4  A    between atoms: C5_5  and  C6_6
REMARK    5  A    between atoms: C6_6  and  C7_7
REMARK    6  A    between atoms: C8_10  and  O1_11
REMARK    7  A    between atoms: C10_15  and  C11_16
REMARK    8  A    between atoms: C11_16  and  C12_17
REMARK    9  A    between atoms: C20_29  and  O3_30
REMARK   10  A    between atoms: C21_32  and  C22_33
REMARK   11  A    between atoms: C22_33  and  C23_34
REMARK   12  A    between atoms: C27_41  and  C28_42
ROOT
HETATM    1  C7  UNL     1      -5.147  17.189  23.986  1.00  0.00     0.176 C
HETATM    2  N1  UNL     1      -5.267  17.963  25.216  1.00  0.00    -0.355 N
ATOM      3  H1  UNL     1      -5.496  18.953  25.122  1.00  0.00     0.162 HD
HETATM    4  C8  UNL     1      -5.094  17.462  26.525  1.00  0.00     0.185 C
HETATM    5  C9  UNL     1      -5.780  16.390  27.182  1.00  0.00     0.222 C
HETATM    6  O2  UNL     1      -5.106  15.372  27.536  1.00  0.00    -0.286 OA
HETATM    7  C10 UNL     1      -7.251  16.311  27.524  1.00  0.00     0.166 C
HETATM    8  N3  UNL     1      -8.010  17.211  26.728  1.00  0.00    -0.360 N
ATOM      9  H3  UNL     1      -7.755  18.188  26.881  1.00  0.00     0.162 HD
HETATM   10  C20 UNL     1      -9.017  17.060  25.792  1.00  0.00     0.135 C
HETATM   11  C21 UNL     1      -9.309  16.019  24.798  1.00  0.00     0.159 C
HETATM   12  N4  UNL     1      -8.244  15.112  24.497  1.00  0.00    -0.347 N
ATOM     13  H4  UNL     1      -7.800  14.679  25.307  1.00  0.00     0.163 HD
HETATM   14  C26 UNL     1      -7.722  14.731  23.257  1.00  0.00     0.241 C
HETATM   15  O4  UNL     1      -7.700  13.471  22.977  1.00  0.00    -0.271 OA
HETATM   16  C27 UNL     1      -7.171  15.575  22.182  1.00  0.00     0.180 C
HETATM   17  N5  UNL     1      -7.146  16.974  22.417  1.00  0.00    -0.346 N
ATOM     18  H5  UNL     1      -7.994  17.497  22.198  1.00  0.00     0.163 HD
HETATM   19  C31 UNL     1      -6.036  17.715  22.935  1.00  0.00     0.241 C
HETATM   20  O5  UNL     1      -5.821  18.857  22.470  1.00  0.00    -0.271 OA
ENDROOT
BRANCH   7  21
HETATM   21  C11 UNL     1      -7.375  16.819  28.985  1.00  0.00     0.074 C
BRANCH  21  22
HETATM   22  C12 UNL     1      -8.526  16.294  29.699  1.00  0.00    -0.028 A
HETATM   23  C13 UNL     1      -9.886  16.380  29.417  1.00  0.00     0.096 A
HETATM   24  N2  UNL     1     -10.604  15.714  30.345  1.00  0.00    -0.365 N
HETATM   25  C14 UNL     1      -9.757  15.193  31.225  1.00  0.00     0.042 A
ATOM     26  H2  UNL     1     -11.619  15.626  30.366  1.00  0.00     0.165 HD
HETATM   27  C15 UNL     1      -9.991  14.413  32.360  1.00  0.00     0.030 A
HETATM   28  C19 UNL     1      -8.480  15.526  30.865  1.00  0.00    -0.002 A
HETATM   29  C16 UNL     1      -8.912  13.976  33.124  1.00  0.00     0.002 A
HETATM   30  C17 UNL     1      -7.623  14.305  32.774  1.00  0.00     0.001 A
HETATM   31  C18 UNL     1      -7.439  15.081  31.639  1.00  0.00     0.014 A
ENDBRANCH  21  22
ENDBRANCH   7  21
BRANCH   4  32
HETATM   32  O1  UNL     1      -4.164  18.096  27.200  1.00  0.00    -0.344 OA
ATOM     33  H1  UNL     1      -4.040  17.751  28.077  1.00  0.00     0.219 HD
ENDBRANCH   4  32
BRANCH  10  34
HETATM   34  O3  UNL     1      -9.911  18.022  25.753  1.00  0.00    -0.348 OA
ATOM     35  H3  UNL     1     -10.819  17.744  25.775  1.00  0.00     0.219 HD
ENDBRANCH  10  34
BRANCH  11  36
HETATM   36  C22 UNL     1     -10.465  15.144  25.286  1.00  0.00     0.037 C
BRANCH  36  37
HETATM   37  C23 UNL     1     -10.054  13.821  25.827  1.00  0.00    -0.020 C
HETATM   38  C24 UNL     1      -9.584  13.811  27.239  1.00  0.00     0.009 C
HETATM   39  C25 UNL     1     -11.313  12.925  25.728  1.00  0.00     0.009 C
ENDBRANCH  36  37
ENDBRANCH  11  36
BRANCH   1  40
HETATM   40  C6  UNL     1      -3.734  17.010  23.524  1.00  0.00     0.035 C
BRANCH  40  41
HETATM   41  C5  UNL     1      -2.732  18.002  24.010  1.00  0.00     0.002 C
BRANCH  41  42
HETATM   42  C4  UNL     1      -1.384  17.274  23.937  1.00  0.00     0.000 C
BRANCH  42  43
HETATM   43  C3  UNL     1      -1.602  15.859  23.526  1.00  0.00    -0.000 C
BRANCH  43  44
HETATM   44  C2  UNL     1      -0.296  15.227  23.129  1.00  0.00    -0.005 C
HETATM   45  C1  UNL     1      -0.369  13.759  23.526  1.00  0.00     0.005 C
ENDBRANCH  43  44
ENDBRANCH  42  43
ENDBRANCH  41  42
ENDBRANCH  40  41
ENDBRANCH   1  40
BRANCH  16  46
HETATM   46  C28 UNL     1      -7.835  15.222  20.849  1.00  0.00     0.009 C
HETATM   47  C29 UNL     1      -6.857  15.074  19.726  1.00  0.00     0.012 C
HETATM   48  C30 UNL     1      -8.887  16.225  20.453  1.00  0.00     0.012 C
ENDBRANCH  16  46
TORSDOF 12
ENDMDL