MODEL 4
REMARK VINA RESULT: -4.319072179     15.152     20.128
REMARK  12 active torsions:
REMARK  status: ('A' for Active; 'I' for Inactive)
REMARK    1  A    between atoms: C2_2  and  C3_3
REMARK    2  A    between atoms: C3_3  and  C5_5
REMARK    3  A    between atoms: C6_8  and  O1_9
REMARK    4  A    between atoms: C7_11  and  C8_12
REMARK    5  A    between atoms: C8_12  and  C9_13
REMARK    6  A    between atoms: C13_20  and  C14_21
REMARK    7  A    between atoms: C14_21  and  C15_22
REMARK    8  A    between atoms: C19_28  and  C20_29
REMARK    9  A    between atoms: C20_29  and  C21_30
REMARK   10  A    between atoms: N5_39  and  C27_40
REMARK   11  A    between atoms: C27_40  and  C28_41
REMARK   12  A    between atoms: C31_44  and  O4_45
ROOT
HETATM    1  C5  UNL     1     -14.504   7.847  35.736  1.00  0.00     0.066 C
HETATM    2  N1  UNL     1     -14.191   6.950  34.674  1.00  0.00    -0.338 N
ATOM      3  H1  UNL     1     -14.735   6.091  34.754  1.00  0.00     0.167 HD
HETATM    4  C6  UNL     1     -13.366   6.906  33.571  1.00  0.00     0.139 C
HETATM    5  C7  UNL     1     -13.424   7.499  32.216  1.00  0.00     0.159 C
HETATM    6  N2  UNL     1     -14.510   8.456  32.040  1.00  0.00    -0.347 N
ATOM      7  H2  UNL     1     -15.412   8.192  32.436  1.00  0.00     0.163 HD
HETATM    8  C12 UNL     1     -14.462   9.680  31.401  1.00  0.00     0.240 C
HETATM    9  O2  UNL     1     -15.525  10.395  31.370  1.00  0.00    -0.271 OA
HETATM   10  C13 UNL     1     -13.287  10.295  30.717  1.00  0.00     0.170 C
HETATM   11  N3  UNL     1     -12.344  10.737  31.630  1.00  0.00    -0.404 N
ATOM     12  H3  UNL     1     -11.903  10.056  32.249  1.00  0.00     0.154 HD
HETATM   13  C18 UNL     1     -11.969  12.098  31.736  1.00  0.00     0.167 C
HETATM   14  C19 UNL     1     -12.673  12.946  32.734  1.00  0.00     0.007 C
HETATM   15  N4  UNL     1     -13.551  12.267  33.666  1.00  0.00    -0.331 N
ATOM     16  H4  UNL     1     -14.533  12.252  33.387  1.00  0.00     0.168 HD
HETATM   17  C24 UNL     1     -13.286  11.626  34.885  1.00  0.00     0.244 C
HETATM   18  O3  UNL     1     -13.916  12.179  35.875  1.00  0.00    -0.271 OA
HETATM   19  C25 UNL     1     -12.454  10.486  35.217  1.00  0.00     0.179 C
HETATM   20  C26 UNL     1     -10.950  10.737  35.164  1.00  0.00     0.043 C
HETATM   21  N5  UNL     1     -12.781   9.753  36.458  1.00  0.00    -0.326 N
HETATM   22  C31 UNL     1     -13.404   8.477  36.477  1.00  0.00     0.166 C
ENDROOT
BRANCH   1  23
HETATM   23  C3  UNL     1     -15.722   8.719  35.494  1.00  0.00     0.036 C
HETATM   24  C4  UNL     1     -16.298   9.205  36.834  1.00  0.00     0.016 C
BRANCH  23  25
HETATM   25  C2  UNL     1     -16.805   7.801  34.904  1.00  0.00     0.006 C
HETATM   26  C1  UNL     1     -17.632   8.435  33.850  1.00  0.00     0.006 C
ENDBRANCH  23  25
ENDBRANCH   1  23
BRANCH  22  27
HETATM   27  O4  UNL     1     -12.874   7.674  37.363  1.00  0.00    -0.344 OA
ATOM     28  H4  UNL     1     -11.958   7.869  37.527  1.00  0.00     0.219 HD
ENDBRANCH  22  27
BRANCH   4  29
HETATM   29  O1  UNL     1     -12.284   6.194  33.709  1.00  0.00    -0.348 OA
ATOM     30  H1  UNL     1     -11.507   6.677  33.966  1.00  0.00     0.219 HD
ENDBRANCH   4  29
BRANCH  21  31
HETATM   31  C27 UNL     1     -12.385  10.419  37.710  1.00  0.00     0.071 C
BRANCH  31  32
HETATM   32  C28 UNL     1     -13.340  10.749  38.743  1.00  0.00     0.016 C
HETATM   33  C29 UNL     1     -12.840   9.895  39.958  1.00  0.00     0.015 C
HETATM   34  C30 UNL     1     -13.441  12.093  39.351  1.00  0.00     0.015 C
ENDBRANCH  31  32
ENDBRANCH  21  31
BRANCH   5  35
HETATM   35  C8  UNL     1     -13.734   6.408  31.218  1.00  0.00     0.037 C
BRANCH  35  36
HETATM   36  C9  UNL     1     -12.690   6.073  30.230  1.00  0.00    -0.020 C
HETATM   37  C10 UNL     1     -12.026   4.767  30.580  1.00  0.00     0.009 C
HETATM   38  C11 UNL     1     -11.566   7.137  30.402  1.00  0.00     0.009 C
ENDBRANCH  35  36
ENDBRANCH   5  35
BRANCH  10  39
HETATM   39  C14 UNL     1     -13.694  11.294  29.658  1.00  0.00     0.038 C
BRANCH  39  40
HETATM   40  C15 UNL     1     -12.851  11.156  28.408  1.00  0.00    -0.020 C
HETATM   41  C16 UNL     1     -13.776  11.424  27.209  1.00  0.00     0.009 C
HETATM   42  C17 UNL     1     -11.776  12.219  28.339  1.00  0.00     0.009 C
ENDBRANCH  39  40
ENDBRANCH  10  39
BRANCH  14  43
HETATM   43  C20 UNL     1     -11.820  14.020  33.370  1.00  0.00     0.058 C
BRANCH  43  44
HETATM   44  C21 UNL     1     -10.399  14.073  32.983  1.00  0.00    -0.017 C
HETATM   45  C22 UNL     1      -9.416  13.864  34.111  1.00  0.00     0.010 C
HETATM   46  C23 UNL     1     -10.034  15.170  32.042  1.00  0.00     0.010 C
ENDBRANCH  43  44
ENDBRANCH  14  43
TORSDOF 12
ENDMDL