MODEL 4
REMARK VINA RESULT: -9.191638693      0.177      1.181
REMARK  10 active torsions:
REMARK  status: ('A' for Active; 'I' for Inactive)
REMARK    1  A    between atoms: N1_2  and  C3_4
REMARK    2  A    between atoms: N1_2  and  C5_10
REMARK    3  A    between atoms: C3_4  and  C4_5
REMARK    4  A    between atoms: C4_5  and  N2_6
REMARK    5  A    between atoms: C5_10  and  C6_11
REMARK    6  A    between atoms: C16_24  and  C17_25
REMARK    7  A    between atoms: N5_27  and  O1_29
REMARK    8  A    between atoms: C21_34  and  N6_35
REMARK       I    between atoms: N6_35  and  C22_37
REMARK    9  A    between atoms: C22_37  and  C23_39
REMARK   10  A    between atoms: C23_39  and  C24_40
ROOT
HETATM    1  C6  UNL     1      -8.146  15.665  24.301  1.00  0.00     0.010 C
HETATM    2  C7  UNL     1      -7.160  16.739  24.885  1.00  0.00     0.244 C
HETATM    3  N3  UNL     1      -7.951  17.597  25.710  1.00  0.00    -0.070 N
ATOM      4  H31 UNL     1      -7.829  18.584  25.481  1.00  0.00     0.277 HD
ATOM      5  H32 UNL     1      -7.615  17.635  26.672  1.00  0.00     0.277 HD
HETATM    6  C8  UNL     1      -9.340  17.170  25.620  1.00  0.00     0.187 C
HETATM    7  C9  UNL     1      -9.301  16.575  24.200  1.00  0.00     0.046 C
HETATM    8  C10 UNL     1      -9.671  16.171  26.671  1.00  0.00     0.045 C
HETATM    9  C11 UNL     1      -9.328  14.771  26.345  1.00  0.00    -0.013 C
HETATM   10  C12 UNL     1     -10.509  14.168  25.536  1.00  0.00     0.016 C
HETATM   11  C13 UNL     1     -10.752  12.701  25.910  1.00  0.00     0.040 C
HETATM   12  C14 UNL     1     -11.312  12.816  27.306  1.00  0.00    -0.049 A
HETATM   13  C15 UNL     1     -12.543  12.340  27.670  1.00  0.00     0.022 A
HETATM   14  C16 UNL     1     -13.003  12.592  28.954  1.00  0.00     0.007 A
HETATM   15  C18 UNL     1     -12.168  13.324  29.805  1.00  0.00     0.015 A
HETATM   16  C19 UNL     1     -10.912  13.799  29.407  1.00  0.00     0.011 A
HETATM   17  C20 UNL     1     -10.490  13.530  28.137  1.00  0.00    -0.028 A
HETATM   18  C21 UNL     1      -9.146  13.960  27.603  1.00  0.00     0.127 C
HETATM   19  C34 UNL     1      -8.172  14.625  25.392  1.00  0.00     0.025 C
ENDROOT
BRANCH  18  20
HETATM   20  N6  UNL     1      -8.402  14.388  28.685  1.00  0.00    -0.352 N
HETATM   21  C22 UNL     1      -7.969  15.535  29.357  1.00  0.00     0.218 C
HETATM   22  O2  UNL     1      -8.236  16.679  28.985  1.00  0.00    -0.274 OA
ATOM     23  H6  UNL     1      -8.032  13.570  29.169  1.00  0.00     0.163 HD
BRANCH  21  24
HETATM   24  C23 UNL     1      -7.130  15.421  30.606  1.00  0.00     0.112 C
BRANCH  24  25
HETATM   25  C24 UNL     1      -7.893  15.172  31.846  1.00  0.00    -0.031 C
HETATM   26  C25 UNL     1      -9.376  15.364  31.436  1.00  0.00     0.014 C
HETATM   27  C26 UNL     1     -10.317  15.038  32.535  1.00  0.00    -0.013 C
HETATM   28  C27 UNL     1     -10.148  13.632  33.020  1.00  0.00     0.009 C
HETATM   29  C31 UNL     1     -10.077  15.987  33.693  1.00  0.00     0.009 C
HETATM   30  C28 UNL     1      -8.699  13.507  33.476  1.00  0.00    -0.013 C
HETATM   31  C29 UNL     1      -8.376  14.457  34.587  1.00  0.00     0.009 C
HETATM   32  C33 UNL     1      -7.838  13.711  32.280  1.00  0.00     0.014 C
HETATM   33  C30 UNL     1      -8.641  15.865  34.095  1.00  0.00    -0.013 C
HETATM   34  C32 UNL     1      -7.674  16.137  32.960  1.00  0.00     0.014 C
ENDBRANCH  24  25
ENDBRANCH  21  24
ENDBRANCH  18  20
BRANCH   1  35
HETATM   35  C5  UNL     1      -7.481  15.258  23.058  1.00  0.00     0.247 C
BRANCH  35  36
HETATM   36  N1  UNL     1      -7.946  15.478  21.770  1.00  0.00    -0.072 N
HETATM   37  C1  UNL     1      -7.076  14.580  20.932  1.00  0.00     0.272 C
HETATM   38  C2  UNL     1      -9.265  15.050  21.406  1.00  0.00     0.272 C
BRANCH  36  39
HETATM   39  C3  UNL     1      -7.664  16.771  21.165  1.00  0.00     0.263 C
BRANCH  39  40
HETATM   40  C4  UNL     1      -6.234  17.206  21.264  1.00  0.00     0.257 C
BRANCH  40  41
HETATM   41  N2  UNL     1      -6.194  18.502  21.950  1.00  0.00    -0.078 N
ATOM     42  H23 UNL     1      -7.123  18.892  22.110  1.00  0.00     0.274 HD
ATOM     43  H22 UNL     1      -5.908  18.422  22.926  1.00  0.00     0.274 HD
ATOM     44  H21 UNL     1      -5.591  19.128  21.415  1.00  0.00     0.274 HD
ENDBRANCH  40  41
ENDBRANCH  39  40
ENDBRANCH  36  39
ENDBRANCH  35  36
ENDBRANCH   1  35
BRANCH  14  45
HETATM   45  C17 UNL     1     -14.283  12.131  29.425  1.00  0.00     0.146 C
HETATM   46  N4  UNL     1     -15.394  13.060  29.253  1.00  0.00    -0.080 NA
HETATM   47  N5  UNL     1     -14.570  11.051  29.957  1.00  0.00    -0.255 N
ATOM     48  H5  UNL     1     -15.556  10.965  30.203  1.00  0.00     0.195 HD
BRANCH  47  49
HETATM   49  O1  UNL     1     -13.842   9.977  30.271  1.00  0.00    -0.288 OA
ATOM     50  H1  UNL     1     -13.601   9.199  29.782  1.00  0.00     0.244 HD
ENDBRANCH  47  49
ENDBRANCH  14  45
TORSDOF 10
ENDMDL