MODEL 4
REMARK VINA RESULT: -7.412599614      2.526      3.841
REMARK  13 active torsions:
REMARK  status: ('A' for Active; 'I' for Inactive)
REMARK    1  A    between atoms: C2_2  and  C4_4
REMARK    2  A    between atoms: C4_4  and  C5_5
REMARK    3  A    between atoms: C9_14  and  O2_15
REMARK    4  A    between atoms: C10_17  and  C11_18
REMARK    5  A    between atoms: C14_21  and  C15_22
REMARK    6  A    between atoms: C15_22  and  C17_24
REMARK    7  A    between atoms: C17_24  and  C18_25
REMARK    8  A    between atoms: C18_25  and  C19_26
REMARK    9  A    between atoms: C19_26  and  C20_27
REMARK   10  A    between atoms: C20_27  and  C21_28
REMARK       I    between atoms: C21_28  and  N3_30
REMARK   11  A    between atoms: N3_30  and  C22_32
REMARK   12  A    between atoms: C28_38  and  O4_39
REMARK   13  A    between atoms: C31_46  and  O6_47
ROOT
HETATM    1  C5  UNL     1      -6.309  16.240  24.393  1.00  0.00     0.159 C
HETATM    2  N1  UNL     1      -5.903  17.582  24.215  1.00  0.00    -0.347 N
ATOM      3  H1  UNL     1      -6.633  18.213  23.884  1.00  0.00     0.163 HD
HETATM    4  C6  UNL     1      -4.649  18.184  24.425  1.00  0.00     0.240 C
HETATM    5  O1  UNL     1      -4.573  19.463  24.316  1.00  0.00    -0.271 OA
HETATM    6  C7  UNL     1      -3.374  17.542  24.761  1.00  0.00     0.171 C
HETATM    7  C8  UNL     1      -3.227  17.778  26.291  1.00  0.00     0.042 C
HETATM    8  N2  UNL     1      -2.194  18.115  24.195  1.00  0.00    -0.357 N
ATOM      9  H2  UNL     1      -2.049  19.097  24.428  1.00  0.00     0.162 HD
HETATM   10  C9  UNL     1      -1.191  17.557  23.368  1.00  0.00     0.147 C
HETATM   11  C10 UNL     1      -1.361  16.785  22.129  1.00  0.00     0.023 C
HETATM   12  C14 UNL     1      -0.686  17.279  20.907  1.00  0.00    -0.040 C
HETATM   13  C25 UNL     1      -1.343  17.253  19.731  1.00  0.00     0.008 C
HETATM   14  C26 UNL     1      -2.720  16.791  19.443  1.00  0.00    -0.001 C
HETATM   15  C27 UNL     1      -3.894  17.134  19.756  1.00  0.00     0.005 C
HETATM   16  C28 UNL     1      -5.323  16.750  19.540  1.00  0.00     0.149 C
HETATM   17  C29 UNL     1      -5.901  16.965  20.972  1.00  0.00     0.138 C
HETATM   18  C30 UNL     1      -7.308  16.719  21.124  1.00  0.00     0.226 C
HETATM   19  O5  UNL     1      -8.031  16.925  20.088  1.00  0.00    -0.273 OA
HETATM   20  N4  UNL     1      -7.919  16.271  22.336  1.00  0.00    -0.309 N
ATOM     21  H4  UNL     1      -8.934  16.374  22.371  1.00  0.00     0.170 HD
HETATM   22  C31 UNL     1      -7.348  15.718  23.470  1.00  0.00     0.141 C
ENDROOT
BRANCH  12  23
HETATM   23  C15 UNL     1       0.683  17.951  21.002  1.00  0.00     0.015 C
HETATM   24  C16 UNL     1       1.587  17.395  19.923  1.00  0.00     0.015 C
BRANCH  23  25
HETATM   25  C17 UNL     1       0.589  19.431  20.700  1.00  0.00     0.009 C
BRANCH  25  26
HETATM   26  C18 UNL     1       0.977  19.922  19.400  1.00  0.00     0.001 C
BRANCH  26  27
HETATM   27  C19 UNL     1       0.226  20.796  18.517  1.00  0.00     0.009 C
BRANCH  27  28
HETATM   28  C20 UNL     1      -1.143  20.345  18.077  1.00  0.00     0.103 C
BRANCH  28  29
HETATM   29  C21 UNL     1      -2.036  21.551  18.075  1.00  0.00     0.217 C
HETATM   30  O3  UNL     1      -1.973  22.419  18.999  1.00  0.00    -0.274 OA
HETATM   31  N3  UNL     1      -2.982  21.763  17.041  1.00  0.00    -0.357 N
ATOM     32  H3  UNL     1      -3.052  21.081  16.286  1.00  0.00     0.162 HD
BRANCH  31  33
HETATM   33  C22 UNL     1      -3.850  22.918  17.027  1.00  0.00     0.076 C
HETATM   34  C23 UNL     1      -3.204  24.111  16.394  1.00  0.00     0.032 C
HETATM   35  C24 UNL     1      -5.152  22.596  16.326  1.00  0.00     0.032 C
ENDBRANCH  31  33
ENDBRANCH  28  29
ENDBRANCH  27  28
ENDBRANCH  26  27
ENDBRANCH  25  26
ENDBRANCH  23  25
ENDBRANCH  12  23
BRANCH  11  36
HETATM   36  C11 UNL     1      -1.462  15.356  22.429  1.00  0.00    -0.073 C
HETATM   37  C12 UNL     1      -0.744  14.355  21.608  1.00  0.00     0.044 C
HETATM   38  C13 UNL     1      -1.461  14.910  23.868  1.00  0.00     0.044 C
ENDBRANCH  11  36
BRANCH  10  39
HETATM   39  O2  UNL     1       0.018  17.779  23.794  1.00  0.00    -0.346 OA
ATOM     40  H2  UNL     1       0.671  17.216  23.394  1.00  0.00     0.219 HD
ENDBRANCH  10  39
BRANCH  16  41
HETATM   41  O4  UNL     1      -5.660  15.500  19.176  1.00  0.00    -0.391 OA
ATOM     42  H4  UNL     1      -6.333  15.017  19.642  1.00  0.00     0.210 HD
ENDBRANCH  16  41
BRANCH   1  43
HETATM   43  C4  UNL     1      -6.575  15.849  25.824  1.00  0.00     0.037 C
BRANCH  43  44
HETATM   44  C2  UNL     1      -7.108  16.837  26.747  1.00  0.00    -0.020 C
HETATM   45  C1  UNL     1      -8.545  17.215  26.623  1.00  0.00     0.009 C
HETATM   46  C3  UNL     1      -6.833  16.538  28.206  1.00  0.00     0.009 C
ENDBRANCH  43  44
ENDBRANCH   1  43
BRANCH  22  47
HETATM   47  O6  UNL     1      -7.746  14.534  23.855  1.00  0.00    -0.348 OA
ATOM     48  H6  UNL     1      -7.207  14.220  24.572  1.00  0.00     0.219 HD
ENDBRANCH  22  47
TORSDOF 13
ENDMDL