MODEL 3
REMARK VINA RESULT: -9.414557376      1.905      5.320
REMARK  12 active torsions:
REMARK  status: ('A' for Active; 'I' for Inactive)
REMARK    1  A    between atoms: C2_2  and  C3_3
REMARK    2  A    between atoms: C4_4  and  C5_5
REMARK    3  A    between atoms: C13_19  and  C14_20
REMARK    4  A    between atoms: C14_20  and  C15_21
REMARK    5  A    between atoms: C19_25  and  C20_26
REMARK    6  A    between atoms: C22_32  and  O3_33
REMARK    7  A    between atoms: N5_35  and  C23_36
REMARK    8  A    between atoms: C23_36  and  C24_37
REMARK    9  A    between atoms: C24_37  and  C25_38
REMARK   10  A    between atoms: C25_38  and  C26_39
REMARK   11  A    between atoms: C26_39  and  C27_40
REMARK   12  A    between atoms: C32_45  and  O4_46
ROOT
HETATM    1  C5  UNL     1      -8.363  15.358  23.097  1.00  0.00     0.050 C
HETATM    2  C6  UNL     1      -9.640  14.617  23.302  1.00  0.00     0.084 C
HETATM    3  C7  UNL     1     -10.354  14.586  21.927  1.00  0.00     0.020 C
HETATM    4  C8  UNL     1     -10.549  15.327  24.239  1.00  0.00     0.223 C
HETATM    5  O1  UNL     1     -10.608  16.584  23.927  1.00  0.00    -0.273 OA
HETATM    6  N1  UNL     1     -11.293  14.890  25.310  1.00  0.00    -0.343 N
ATOM      7  H1  UNL     1     -12.299  14.908  25.142  1.00  0.00     0.163 HD
HETATM    8  C9  UNL     1     -10.935  14.410  26.628  1.00  0.00     0.106 C
HETATM    9  C10 UNL     1     -10.017  13.251  26.676  1.00  0.00     0.048 C
HETATM   10  C11 UNL     1     -12.233  13.758  27.239  1.00  0.00     0.048 C
HETATM   11  C12 UNL     1     -10.652  15.526  27.558  1.00  0.00     0.246 C
HETATM   12  O2  UNL     1     -11.726  16.064  28.053  1.00  0.00    -0.271 OA
HETATM   13  N2  UNL     1      -9.431  16.070  27.967  1.00  0.00    -0.347 N
ATOM     14  H2  UNL     1      -9.391  17.087  27.888  1.00  0.00     0.163 HD
HETATM   15  C13 UNL     1      -8.239  15.494  28.467  1.00  0.00     0.163 C
HETATM   16  C22 UNL     1      -7.084  15.377  27.580  1.00  0.00     0.137 C
HETATM   17  N5  UNL     1      -6.407  16.308  26.805  1.00  0.00    -0.363 N
HETATM   18  C29 UNL     1      -6.887  17.376  25.996  1.00  0.00     0.131 C
HETATM   19  C30 UNL     1      -7.196  17.028  24.555  1.00  0.00     0.029 C
HETATM   20  C31 UNL     1      -6.025  17.350  23.645  1.00  0.00     0.014 C
HETATM   21  C32 UNL     1      -7.556  15.609  24.352  1.00  0.00     0.132 C
ENDROOT
BRANCH  15  22
HETATM   22  C14 UNL     1      -7.826  16.238  29.761  1.00  0.00     0.072 C
BRANCH  22  23
HETATM   23  C15 UNL     1      -8.315  15.540  30.973  1.00  0.00    -0.055 A
HETATM   24  C16 UNL     1      -7.384  15.008  31.875  1.00  0.00     0.007 A
HETATM   25  C17 UNL     1      -7.794  14.360  33.020  1.00  0.00     0.002 A
HETATM   26  C18 UNL     1      -9.130  14.219  33.309  1.00  0.00     0.015 A
HETATM   27  C19 UNL     1     -10.058  14.738  32.426  1.00  0.00     0.005 A
HETATM   28  C21 UNL     1      -9.642  15.392  31.272  1.00  0.00     0.022 A
BRANCH  27  29
HETATM   29  C20 UNL     1     -11.462  14.579  32.744  1.00  0.00     0.120 C
HETATM   30  N3  UNL     1     -12.333  14.740  31.818  1.00  0.00    -0.387 N
ATOM     31  H32 UNL     1     -12.030  14.977  30.873  1.00  0.00     0.157 HD
ATOM     32  H31 UNL     1     -13.322  14.629  32.042  1.00  0.00     0.157 HD
HETATM   33  N4  UNL     1     -11.881  14.252  34.048  1.00  0.00    -0.082 NA
ENDBRANCH  27  29
ENDBRANCH  22  23
ENDBRANCH  15  22
BRANCH  16  34
HETATM   34  O3  UNL     1      -6.582  14.179  27.491  1.00  0.00    -0.348 OA
ATOM     35  H3  UNL     1      -5.759  14.125  27.020  1.00  0.00     0.219 HD
ENDBRANCH  16  34
BRANCH  17  36
HETATM   36  C23 UNL     1      -4.925  16.156  26.823  1.00  0.00     0.124 C
BRANCH  36  37
HETATM   37  C24 UNL     1      -4.350  17.529  26.857  1.00  0.00     0.020 C
BRANCH  37  38
HETATM   38  C25 UNL     1      -3.115  17.607  25.974  1.00  0.00     0.002 C
BRANCH  38  39
HETATM   39  C26 UNL     1      -2.940  16.322  25.212  1.00  0.00    -0.000 C
BRANCH  39  40
HETATM   40  C27 UNL     1      -2.417  16.581  23.816  1.00  0.00    -0.005 C
HETATM   41  C28 UNL     1      -1.408  17.711  23.817  1.00  0.00     0.005 C
ENDBRANCH  39  40
ENDBRANCH  38  39
ENDBRANCH  37  38
ENDBRANCH  36  37
ENDBRANCH  17  36
BRANCH  21  42
HETATM   42  O4  UNL     1      -6.340  14.885  24.228  1.00  0.00    -0.394 OA
ATOM     43  H4  UNL     1      -6.226  14.382  25.026  1.00  0.00     0.210 HD
ENDBRANCH  21  42
BRANCH   1  44
HETATM   44  C4  UNL     1      -7.479  14.789  22.039  1.00  0.00    -0.019 C
HETATM   45  C3  UNL     1      -7.132  15.419  20.941  1.00  0.00    -0.004 C
BRANCH  45  46
HETATM   46  C2  UNL     1      -6.258  14.776  19.964  1.00  0.00    -0.011 C
HETATM   47  C1  UNL     1      -5.115  15.295  19.563  1.00  0.00     0.011 C
ENDBRANCH  45  46
ENDBRANCH   1  44
TORSDOF 12
ENDMDL