MODEL 2
REMARK VINA RESULT: -5.043727204      1.599      1.881
REMARK  1 active torsions:
REMARK  status: ('A' for Active; 'I' for Inactive)
REMARK    1  A    between atoms: C2_2  and  C3_3
ROOT
HETATM    1  C1  UNL     1      49.451  23.391  29.387  1.00  0.00     0.026 C
HETATM    2  C2  UNL     1      50.789  22.951  29.929  1.00  0.00     0.047 C
HETATM    3  C4  UNL     1      51.996  23.385  29.200  1.00  0.00     0.038 C
HETATM    4  C5  UNL     1      51.520  22.488  28.083  1.00  0.00     0.017 C
HETATM    5  C6  UNL     1      51.315  21.669  29.334  1.00  0.00     0.038 C
HETATM    6  C7  UNL     1      52.663  22.137  29.722  1.00  0.00     0.180 C
HETATM    7  F1  UNL     1      53.675  21.644  28.924  1.00  0.00    -0.249 F
ENDROOT
BRANCH   2   8
HETATM    8  C3  UNL     1      50.809  22.969  31.407  1.00  0.00     0.240 C
HETATM    9  N1  UNL     1      50.047  21.970  32.070  1.00  0.00    -0.061 NA
HETATM   10  O1  UNL     1      51.468  23.831  32.045  1.00  0.00    -0.276 OA
ENDBRANCH   2   8
TORSDOF 1
ENDMDL