MODEL 3
REMARK VINA RESULT: -4.156711997      1.823      2.382
REMARK  1 active torsions:
REMARK  status: ('A' for Active; 'I' for Inactive)
REMARK    1  A    between atoms: C2_2  and  C3_4
ROOT
HETATM    1  C3  UNL     1      52.315  21.780  29.087  1.00  0.00     0.250 A
HETATM    2  C4  UNL     1      53.031  22.663  28.110  1.00  0.00     0.271 A
HETATM    3  N1  UNL     1      53.747  21.851  29.109  1.00  0.00    -0.062 N
ATOM      4  H11 UNL     1      54.489  21.153  29.052  1.00  0.00     0.278 HD
ATOM      5  H12 UNL     1      54.433  22.065  29.834  1.00  0.00     0.278 HD
ENDROOT
BRANCH   1   6
HETATM    6  C2  UNL     1      51.512  22.446  30.109  1.00  0.00     0.011 C
HETATM    7  C1  UNL     1      51.884  22.420  31.378  1.00  0.00     0.029 C
HETATM    8 BR1  UNL     1      49.912  23.367  29.656  1.00  0.00    -0.054 Br
ENDBRANCH   1   6
TORSDOF 1
ENDMDL