MODEL 1
REMARK VINA RESULT: -4.021378739      0.000      0.000
REMARK  2 active torsions:
REMARK  status: ('A' for Active; 'I' for Inactive)
REMARK    1  A    between atoms: C2_2  and  C3_3
REMARK    2  A    between atoms: C3_3  and  N1_4
ROOT
HETATM    1  C3  UNL     1      52.542  21.631  29.647  1.00  0.00     0.276 C
HETATM    2 BR1  UNL     1      51.325  22.955  28.892  1.00  0.00    -0.057 Br
ENDROOT
BRANCH   1   3
HETATM    3  C2  UNL     1      52.580  21.773  31.093  1.00  0.00     0.007 C
HETATM    4  C1  UNL     1      51.695  22.514  31.728  1.00  0.00     0.010 C
ENDBRANCH   1   3
BRANCH   1   5
HETATM    5  N1  UNL     1      53.822  21.818  29.001  1.00  0.00    -0.062 N
ATOM      6  H13 UNL     1      53.695  22.161  28.048  1.00  0.00     0.276 HD
ATOM      7  H12 UNL     1      54.314  22.613  29.407  1.00  0.00     0.276 HD
ATOM      8  H11 UNL     1      54.417  20.990  29.005  1.00  0.00     0.276 HD
ENDBRANCH   1   5
TORSDOF 2
ENDMDL