MODEL 4
REMARK VINA RESULT: -6.088272221      1.714      2.742
REMARK  1 active torsions:
REMARK  status: ('A' for Active; 'I' for Inactive)
REMARK    1  A    between atoms: C2_2  and  N1_3
ROOT
HETATM    1  N1  UNL     1      50.670  23.344  31.126  1.00  0.00    -0.262 NA
HETATM    2  C3  UNL     1      51.132  22.097  31.467  1.00  0.00     0.098 C
HETATM    3  C4  UNL     1      52.534  21.582  31.231  1.00  0.00     0.026 C
HETATM    4  C5  UNL     1      52.942  21.676  29.721  1.00  0.00     0.081 C
HETATM    5  C6  UNL     1      51.980  22.495  29.102  1.00  0.00    -0.179 C
HETATM    6  C7  UNL     1      50.963  23.339  28.633  1.00  0.00     0.133 C
HETATM    7  C8  UNL     1      49.997  23.598  29.838  1.00  0.00     0.259 C
HETATM    8  F1  UNL     1      48.979  22.664  29.771  1.00  0.00    -0.232 F
ENDROOT
BRANCH   1   9
HETATM    9  C2  UNL     1      49.547  23.616  32.026  1.00  0.00     0.052 C
HETATM   10  C1  UNL     1      48.964  24.767  32.155  1.00  0.00     0.024 C
ENDBRANCH   1   9
TORSDOF 1
ENDMDL