MODEL 4
REMARK VINA RESULT: -5.934593034      1.083      1.083
REMARK  1 active torsions:
REMARK  status: ('A' for Active; 'I' for Inactive)
REMARK    1  A    between atoms: C5_5  and  C6_6
ROOT
HETATM    1  C1  UNL     1      52.217  23.786  27.813  1.00  0.00     0.011 C
HETATM    2  C2  UNL     1      51.443  22.701  28.586  1.00  0.00    -0.009 A
HETATM    3  C3  UNL     1      50.146  23.037  29.027  1.00  0.00    -0.004 A
HETATM    4  C4  UNL     1      49.746  23.807  30.292  1.00  0.00     0.019 C
HETATM    5  C5  UNL     1      50.129  22.433  30.883  1.00  0.00     0.080 C
HETATM    6  C7  UNL     1      51.352  22.717  30.008  1.00  0.00     0.007 A
ENDROOT
BRANCH   5   7
HETATM    7  C6  UNL     1      50.391  22.416  32.297  1.00  0.00     0.235 C
HETATM    8  N1  UNL     1      49.330  22.369  33.231  1.00  0.00    -0.062 NA
HETATM    9  O1  UNL     1      51.565  22.441  32.728  1.00  0.00    -0.276 OA
ENDBRANCH   5   7
TORSDOF 1
ENDMDL