MODEL 2
REMARK VINA RESULT: -5.872034463      2.075      4.401
REMARK  2 active torsions:
REMARK  status: ('A' for Active; 'I' for Inactive)
REMARK    1  A    between atoms: C2_2  and  N1_4
REMARK    2  A    between atoms: C4_6  and  C5_8
ROOT
HETATM    1  N1  UNL     1      51.908  22.912  29.883  1.00  0.00    -0.352 N
ATOM      2  H1  UNL     1      52.706  22.757  30.497  1.00  0.00     0.166 HD
HETATM    3  C4  UNL     1      50.796  23.251  30.407  1.00  0.00     0.100 C
HETATM    4  N2  UNL     1      49.660  23.477  29.585  1.00  0.00    -0.087 NA
ENDROOT
BRANCH   3   5
HETATM    5  C5  UNL     1      50.629  23.426  31.866  1.00  0.00     0.087 A
HETATM    6  C6  UNL     1      49.501  22.601  32.450  1.00  0.00     0.052 A
HETATM    7  C7  UNL     1      49.468  24.105  32.445  1.00  0.00     0.182 A
HETATM    8  F1  UNL     1      48.537  24.760  31.672  1.00  0.00    -0.249 F
ENDBRANCH   3   5
BRANCH   1   9
HETATM    9  C2  UNL     1      52.085  22.743  28.506  1.00  0.00    -0.003 C
HETATM   10  C1  UNL     1      51.805  21.602  27.917  1.00  0.00     0.037 C
HETATM   11  C3  UNL     1      52.595  23.851  27.675  1.00  0.00     0.067 C
ENDBRANCH   1   9
TORSDOF 2
ENDMDL