MODEL 3
REMARK VINA RESULT: -5.732461001      1.445      2.478
REMARK  1 active torsions:
REMARK  status: ('A' for Active; 'I' for Inactive)
REMARK    1  A    between atoms: C4_5  and  C5_6
ROOT
HETATM    1  C1  UNL     1      51.365  22.982  31.738  1.00  0.00     0.309 C
HETATM    2  N1  UNL     1      51.008  22.285  30.497  1.00  0.00     0.084 N
HETATM    3  C2  UNL     1      50.487  23.161  29.530  1.00  0.00     0.272 C
HETATM    4  C3  UNL     1      51.407  23.598  28.438  1.00  0.00     0.039 C
HETATM    5  C4  UNL     1      52.329  22.501  27.954  1.00  0.00     0.013 C
HETATM    6  C7  UNL     1      53.092  22.079  29.193  1.00  0.00     0.039 C
HETATM    7  C8  UNL     1      52.095  21.443  30.109  1.00  0.00     0.272 C
ENDROOT
BRANCH   5   8
HETATM    8  C5  UNL     1      53.227  23.035  26.904  1.00  0.00     0.007 C
HETATM    9  C6  UNL     1      54.507  23.243  27.155  1.00  0.00     0.184 C
HETATM   10  F1  UNL     1      55.290  23.732  26.164  1.00  0.00    -0.220 F
ENDBRANCH   5   8
TORSDOF 1
ENDMDL