MODEL 3
REMARK VINA RESULT: -5.826246888      0.755      2.141
REMARK  1 active torsions:
REMARK  status: ('A' for Active; 'I' for Inactive)
REMARK    1  A    between atoms: C6_6  and  C7_7
ROOT
HETATM    1  C1  UNL     1      50.091  23.497  29.154  1.00  0.00     0.011 C
HETATM    2  C2  UNL     1      50.573  22.564  30.220  1.00  0.00    -0.006 C
HETATM    3  C3  UNL     1      51.894  21.974  29.755  1.00  0.00     0.005 C
HETATM    4  C4  UNL     1      52.781  21.882  30.953  1.00  0.00     0.001 C
HETATM    5  C5  UNL     1      51.829  22.128  32.123  1.00  0.00     0.014 C
HETATM    6  C6  UNL     1      50.937  23.213  31.505  1.00  0.00     0.079 C
ENDROOT
BRANCH   6   7
HETATM    7  C7  UNL     1      49.822  23.465  32.414  1.00  0.00     0.235 C
HETATM    8  N1  UNL     1      49.196  22.429  33.155  1.00  0.00    -0.062 NA
HETATM    9  O1  UNL     1      49.356  24.634  32.587  1.00  0.00    -0.276 OA
ENDBRANCH   6   7
TORSDOF 1
ENDMDL