MODEL 1
REMARK VINA RESULT: -5.855658000      0.000      0.000
REMARK  1 active torsions:
REMARK  status: ('A' for Active; 'I' for Inactive)
REMARK       I    between atoms: N2_4  and  C3_6
REMARK    1  A    between atoms: C3_6  and  C4_8
ROOT
HETATM    1  C1  UNL     1      56.206  22.443  25.337  1.00  0.00     0.085 C
HETATM    2  C2  UNL     1      55.258  22.841  26.391  1.00  0.00     0.091 C
HETATM    3  N1  UNL     1      55.724  23.167  27.677  1.00  0.00    -0.088 NA
HETATM    4  N2  UNL     1      54.009  22.887  26.127  1.00  0.00    -0.319 N
ATOM      5  H2  UNL     1      53.683  22.649  25.190  1.00  0.00     0.169 HD
HETATM    6  C3  UNL     1      53.069  23.266  27.122  1.00  0.00     0.226 C
HETATM    7  O1  UNL     1      53.088  24.468  27.500  1.00  0.00    -0.273 OA
ENDROOT
BRANCH   6   8
HETATM    8  C4  UNL     1      52.117  22.294  27.683  1.00  0.00     0.078 A
HETATM    9  C5  UNL     1      52.299  21.911  29.143  1.00  0.00     0.015 A
HETATM   10  C6  UNL     1      51.109  22.742  28.718  1.00  0.00     0.015 A
ENDBRANCH   6   8
TORSDOF 1
ENDMDL