MODEL 4
REMARK VINA RESULT: -4.968957879      3.203      4.676
REMARK  1 active torsions:
REMARK  status: ('A' for Active; 'I' for Inactive)
REMARK    1  A    between atoms: C4_5  and  C5_6
ROOT
HETATM    1  C1  UNL     1      49.883  23.391  30.930  1.00  0.00     0.309 C
HETATM    2  N1  UNL     1      51.077  23.180  30.138  1.00  0.00     0.085 N
HETATM    3  C2  UNL     1      51.865  22.060  30.675  1.00  0.00     0.272 C
HETATM    4  C3  UNL     1      52.907  21.926  29.562  1.00  0.00     0.043 C
HETATM    5  C4  UNL     1      52.159  22.342  28.290  1.00  0.00     0.080 C
HETATM    6  C7  UNL     1      50.786  22.709  28.813  1.00  0.00     0.283 C
ENDROOT
BRANCH   5   7
HETATM    7  C5  UNL     1      52.826  23.480  27.627  1.00  0.00     0.126 C
HETATM    8  F1  UNL     1      52.206  24.653  27.357  1.00  0.00    -0.208 F
HETATM    9  C6  UNL     1      54.100  23.335  27.280  1.00  0.00     0.226 C
HETATM   10  F2  UNL     1      54.797  22.201  27.509  1.00  0.00    -0.216 F
ENDBRANCH   5   7
TORSDOF 1
ENDMDL