MODEL 2
REMARK VINA RESULT: -4.394253197      0.887      1.132
REMARK  3 active torsions:
REMARK  status: ('A' for Active; 'I' for Inactive)
REMARK    1  A    between atoms: N1_2  and  N2_3
REMARK    2  A    between atoms: N1_2  and  N3_6
REMARK    3  A    between atoms: C2_8  and  C3_9
ROOT
HETATM    1  N3  UNL     1      17.885  32.965  78.332  1.00  0.00    -0.294 N
ATOM      2  H3  UNL     1      17.582  33.918  78.135  1.00  0.00     0.187 HD
HETATM    3  C2  UNL     1      19.086  32.719  78.736  1.00  0.00     0.145 C
ENDROOT
BRANCH   1   4
HETATM    4  N1  UNL     1      17.020  31.896  78.175  1.00  0.00    -0.246 N
HETATM    5  C1  UNL     1      15.953  31.944  77.231  1.00  0.00     0.199 C
BRANCH   4   6
HETATM    6  N2  UNL     1      17.225  30.774  78.964  1.00  0.00    -0.329 N
ATOM      7  H22 UNL     1      17.036  29.860  78.552  1.00  0.00     0.178 HD
ATOM      8  H21 UNL     1      17.552  30.861  79.926  1.00  0.00     0.178 HD
ENDBRANCH   4   6
ENDBRANCH   1   4
BRANCH   3   9
HETATM    9  C3  UNL     1      20.017  33.836  78.908  1.00  0.00     0.091 A
HETATM   10  C4  UNL     1      21.384  33.802  78.709  1.00  0.00     0.040 A
HETATM   11  C5  UNL     1      21.890  35.059  78.978  1.00  0.00     0.027 A
HETATM   12  C6  UNL     1      20.782  35.814  79.335  1.00  0.00     0.142 A
HETATM   13  O1  UNL     1      19.733  35.046  79.273  1.00  0.00    -0.321 OA
ENDBRANCH   3   9
TORSDOF 3
ENDMDL