MODEL 5
REMARK VINA RESULT: -4.231131943      1.881      4.262
REMARK  2 active torsions:
REMARK  status: ('A' for Active; 'I' for Inactive)
REMARK    1  A    between atoms: N1_1  and  N2_4
REMARK    2  A    between atoms: C1_6  and  C2_7
ROOT
HETATM    1  C2  UNL     1      20.591  34.127  78.896  1.00  0.00    -0.019 A
HETATM    2  C3  UNL     1      20.631  35.426  79.358  1.00  0.00     0.014 A
HETATM    3  C4  UNL     1      21.827  36.078  79.582  1.00  0.00     0.027 A
HETATM    4  C5  UNL     1      23.043  35.461  79.352  1.00  0.00     0.046 A
HETATM    5  N3  UNL     1      24.273  36.137  79.583  1.00  0.00    -0.102 NA
HETATM    6  C6  UNL     1      23.003  34.162  78.889  1.00  0.00     0.027 A
HETATM    7  C7  UNL     1      21.806  33.509  78.666  1.00  0.00     0.014 A
ENDROOT
BRANCH   1   8
HETATM    8  C1  UNL     1      19.335  33.429  78.657  1.00  0.00     0.118 C
HETATM    9  N2  UNL     1      19.272  32.152  78.806  1.00  0.00    -0.318 N
ATOM     10  H2  UNL     1      20.112  31.648  79.091  1.00  0.00     0.185 HD
BRANCH   9  11
HETATM   11  N1  UNL     1      18.094  31.435  78.589  1.00  0.00    -0.345 N
ATOM     12  H12 UNL     1      18.160  30.420  78.513  1.00  0.00     0.176 HD
ATOM     13  H11 UNL     1      17.186  31.893  78.507  1.00  0.00     0.176 HD
ENDBRANCH   9  11
ENDBRANCH   1   8
TORSDOF 2
ENDMDL