MODEL 2
REMARK VINA RESULT: -6.013338227      1.618      2.194
REMARK  3 active torsions:
REMARK  status: ('A' for Active; 'I' for Inactive)
REMARK    1  A    between atoms: O1_1  and  N1_3
REMARK    2  A    between atoms: C5_8  and  C6_9
REMARK    3  A    between atoms: N2_10  and  O2_12
ROOT
HETATM    1  N1  UNL     1      22.689  39.593  72.829  1.00  0.00    -0.235 N
HETATM    2  C1  UNL     1      23.184  40.224  73.913  1.00  0.00     0.123 A
HETATM    3  C2  UNL     1      22.593  40.087  75.144  1.00  0.00     0.020 A
HETATM    4  C3  UNL     1      21.485  39.291  75.259  1.00  0.00     0.004 A
HETATM    5  C4  UNL     1      20.971  38.635  74.129  1.00  0.00     0.033 A
HETATM    6  C5  UNL     1      21.598  38.805  72.919  1.00  0.00     0.079 A
ENDROOT
BRANCH   6   7
HETATM    7  C6  UNL     1      21.122  38.156  71.705  1.00  0.00     0.145 C
HETATM    8  N2  UNL     1      20.972  36.925  71.518  1.00  0.00    -0.278 N
ATOM      9  H2  UNL     1      20.623  36.732  70.580  1.00  0.00     0.193 HD
BRANCH   8  10
HETATM   10  O2  UNL     1      21.141  35.817  72.201  1.00  0.00    -0.290 OA
ATOM     11  H2  UNL     1      21.628  35.006  72.108  1.00  0.00     0.244 HD
ENDBRANCH   8  10
ENDBRANCH   6   7
BRANCH   1  12
HETATM   12  O1  UNL     1      23.317  39.767  71.624  1.00  0.00    -0.283 OA
ATOM     13  H1  UNL     1      22.868  39.496  70.832  1.00  0.00     0.245 HD
ENDBRANCH   1  12
TORSDOF 3
ENDMDL