MODEL 1
REMARK VINA RESULT: -4.944136391      0.000      0.000
REMARK  3 active torsions:
REMARK  status: ('A' for Active; 'I' for Inactive)
REMARK    1  A    between atoms: N1_1  and  C1_4
REMARK    2  A    between atoms: C4_11  and  C5_12
REMARK    3  A    between atoms: N4_13  and  N5_15
ROOT
HETATM    1  C1  UNL     1      21.598  39.737  74.029  1.00  0.00     0.112 A
HETATM    2  N2  UNL     1      22.319  40.870  74.275  1.00  0.00    -0.338 N
ATOM      3  H2  UNL     1      22.107  41.430  75.100  1.00  0.00     0.168 HD
HETATM    4  C2  UNL     1      23.307  41.259  73.447  1.00  0.00     0.181 A
HETATM    5  N3  UNL     1      23.575  40.510  72.366  1.00  0.00    -0.361 N
ATOM      6  H3  UNL     1      24.324  40.804  71.738  1.00  0.00     0.166 HD
HETATM    7  C3  UNL     1      22.885  39.374  72.075  1.00  0.00     0.105 A
HETATM    8  C4  UNL     1      21.872  38.969  72.918  1.00  0.00     0.040 A
ENDROOT
BRANCH   8   9
HETATM    9  C5  UNL     1      21.089  37.759  72.668  1.00  0.00     0.123 C
HETATM   10  N4  UNL     1      21.670  36.707  72.199  1.00  0.00    -0.317 N
ATOM     11  H4  UNL     1      22.672  36.740  72.010  1.00  0.00     0.185 HD
BRANCH  10  12
HETATM   12  N5  UNL     1      20.982  35.538  71.945  1.00  0.00    -0.345 N
ATOM     13  H52 UNL     1      20.136  35.355  72.486  1.00  0.00     0.176 HD
ATOM     14  H51 UNL     1      21.293  34.866  71.243  1.00  0.00     0.176 HD
ENDBRANCH  10  12
ENDBRANCH   8   9
BRANCH   1  15
HETATM   15  N1  UNL     1      20.652  39.357  74.813  1.00  0.00    -0.385 N
ATOM     16  H12 UNL     1      19.694  39.610  74.572  1.00  0.00     0.157 HD
ATOM     17  H11 UNL     1      20.842  38.818  75.658  1.00  0.00     0.157 HD
ENDBRANCH   1  15
TORSDOF 3
ENDMDL