MODEL 3
REMARK VINA RESULT: -3.930684981     14.927     15.401
REMARK  3 active torsions:
REMARK  status: ('A' for Active; 'I' for Inactive)
REMARK    1  A    between atoms: N1_1  and  C1_4
REMARK    2  A    between atoms: C3_6  and  N2_7
REMARK    3  A    between atoms: N4_13  and  O1_14
ROOT
HETATM    1  C1  UNL     1      29.142  45.775  75.391  1.00  0.00     0.128 A
HETATM    2  C2  UNL     1      29.348  46.009  76.735  1.00  0.00     0.079 A
HETATM    3  C3  UNL     1      28.325  46.524  77.506  1.00  0.00     0.037 A
HETATM    4  C5  UNL     1      27.136  46.775  76.861  1.00  0.00     0.049 A
HETATM    5  C6  UNL     1      26.976  46.525  75.514  1.00  0.00     0.127 A
HETATM    6  N4  UNL     1      27.977  46.023  74.767  1.00  0.00    -0.220 N
ENDROOT
BRANCH   3   7
HETATM    7  N2  UNL     1      28.511  46.777  78.901  1.00  0.00    -0.354 N
HETATM    8  C4  UNL     1      29.586  46.380  79.512  1.00  0.00     0.190 C
HETATM    9  N3  UNL     1      29.815  46.605  80.884  1.00  0.00    -0.097 NA
ATOM     10  H2  UNL     1      27.790  47.275  79.422  1.00  0.00     0.166 HD
ENDBRANCH   3   7
BRANCH   1  11
HETATM   11  N1  UNL     1      30.094  45.291  74.659  1.00  0.00    -0.384 N
ATOM     12  H12 UNL     1      30.862  45.925  74.439  1.00  0.00     0.157 HD
ATOM     13  H11 UNL     1      30.053  44.326  74.333  1.00  0.00     0.157 HD
ENDBRANCH   1  11
BRANCH   6  14
HETATM   14  O1  UNL     1      27.806  45.776  73.415  1.00  0.00    -0.282 OA
ATOM     15  H1  UNL     1      28.112  46.384  72.753  1.00  0.00     0.245 HD
ENDBRANCH   6  14
TORSDOF 3
ENDMDL