MODEL 2
REMARK VINA RESULT: -5.154204463      1.127      1.270
REMARK  1 active torsions:
REMARK  status: ('A' for Active; 'I' for Inactive)
REMARK    1  A    between atoms: C3_3  and  C4_4
ROOT
HETATM    1  C1  UNL     1      20.832  36.410  71.718  1.00  0.00     0.012 C
HETATM    2  C2  UNL     1      20.837  37.341  72.503  1.00  0.00    -0.113 C
HETATM    3  C3  UNL     1      20.824  38.458  73.453  1.00  0.00     0.133 C
ENDROOT
BRANCH   3   4
HETATM    4  C4  UNL     1      22.091  39.255  73.322  1.00  0.00    -0.019 A
HETATM    5  C5  UNL     1      22.791  39.461  72.222  1.00  0.00     0.064 A
HETATM    6  C6  UNL     1      23.963  40.288  72.491  1.00  0.00     0.174 A
HETATM    7  O1  UNL     1      24.861  40.696  71.714  1.00  0.00    -0.288 OA
HETATM    8  C7  UNL     1      23.877  40.562  73.935  1.00  0.00     0.082 A
HETATM    9  C8  UNL     1      22.791  39.957  74.390  1.00  0.00     0.057 A
HETATM   10  N1  UNL     1      22.337  39.968  75.730  1.00  0.00    -0.102 NA
ENDBRANCH   3   4
TORSDOF 1
ENDMDL