MODEL 4
REMARK VINA RESULT: -3.806562181      1.586      5.753
REMARK  4 active torsions:
REMARK  status: ('A' for Active; 'I' for Inactive)
REMARK    1  A    between atoms: N1_1  and  C1_5
REMARK    2  A    between atoms: C1_5  and  C2_6
REMARK    3  A    between atoms: C2_6  and  C3_7
REMARK    4  A    between atoms: C4_8  and  C5_9
ROOT
HETATM    1  C5  UNL     1      18.096  32.849  78.409  1.00  0.00     0.088 A
HETATM    2  C6  UNL     1      16.910  33.379  77.935  1.00  0.00     0.056 A
HETATM    3  C7  UNL     1      15.790  32.608  77.709  1.00  0.00     0.091 A
HETATM    4  N2  UNL     1      15.863  31.296  77.962  1.00  0.00    -0.362 N
ATOM      5  H2  UNL     1      15.053  30.697  77.805  1.00  0.00     0.165 HD
HETATM    6  C8  UNL     1      17.013  30.774  78.423  1.00  0.00     0.181 A
HETATM    7  N3  UNL     1      18.111  31.521  78.645  1.00  0.00    -0.345 N
ATOM      8  H3  UNL     1      18.961  31.079  78.995  1.00  0.00     0.167 HD
ENDROOT
BRANCH   1   9
HETATM    9  C4  UNL     1      19.261  33.673  78.639  1.00  0.00    -0.049 C
HETATM   10  C3  UNL     1      20.245  34.350  78.837  1.00  0.00    -0.098 C
BRANCH  10  11
HETATM   11  C2  UNL     1      21.452  35.155  79.090  1.00  0.00     0.121 C
BRANCH  11  12
HETATM   12  C1  UNL     1      22.628  34.341  78.611  1.00  0.00     0.241 C
BRANCH  12  13
HETATM   13  N1  UNL     1      22.690  33.122  79.360  1.00  0.00    -0.079 N
ATOM     14  H13 UNL     1      21.774  32.828  79.697  1.00  0.00     0.274 HD
ATOM     15  H12 UNL     1      22.893  32.315  78.771  1.00  0.00     0.274 HD
ATOM     16  H11 UNL     1      23.366  33.230  80.117  1.00  0.00     0.274 HD
ENDBRANCH  12  13
ENDBRANCH  11  12
ENDBRANCH  10  11
ENDBRANCH   1   9
TORSDOF 4
ENDMDL