MODEL 4
REMARK VINA RESULT: -3.599590252      9.514     10.825
REMARK  1 active torsions:
REMARK  status: ('A' for Active; 'I' for Inactive)
REMARK    1  A    between atoms: C3_3  and  N1_4
ROOT
HETATM    1  C1  UNL     1      30.094  44.719  73.740  1.00  0.00     0.014 C
HETATM    2  C2  UNL     1      29.702  45.805  74.101  1.00  0.00    -0.097 C
HETATM    3  C3  UNL     1      29.204  47.116  74.555  1.00  0.00     0.239 C
ENDROOT
BRANCH   3   4
HETATM    4  N1  UNL     1      28.656  47.019  75.885  1.00  0.00    -0.180 N
HETATM    5  C4  UNL     1      29.282  47.407  77.013  1.00  0.00     0.151 A
HETATM    6  C5  UNL     1      28.468  47.171  78.103  1.00  0.00     0.145 A
HETATM    7  C6  UNL     1      28.728  47.429  79.491  1.00  0.00     0.119 C
HETATM    8  N3  UNL     1      27.333  46.630  77.624  1.00  0.00    -0.181 N
HETATM    9  N2  UNL     1      28.925  47.648  80.620  1.00  0.00    -0.190 NA
HETATM   10  C7  UNL     1      27.459  46.545  76.288  1.00  0.00     0.679 A
ATOM     11  H3  UNL     1      26.524  46.338  78.173  1.00  0.00     0.185 HD
HETATM   12  N4  UNL     1      26.591  46.081  75.427  1.00  0.00    -0.234 N
ATOM     13  H42 UNL     1      26.687  46.016  74.413  1.00  0.00     0.174 HD
ATOM     14  H41 UNL     1      25.686  45.723  75.731  1.00  0.00     0.174 HD
ENDBRANCH   3   4
TORSDOF 1
ENDMDL