MODEL 1
REMARK VINA RESULT: -5.181607938      0.000      0.000
REMARK  2 active torsions:
REMARK  status: ('A' for Active; 'I' for Inactive)
REMARK    1  A    between atoms: C2_3  and  N2_4
REMARK    2  A    between atoms: N2_4  and  C3_6
ROOT
HETATM    1  N1  UNL     1      25.951  32.302  80.710  1.00  0.00    -0.196 NA
HETATM    2  C1  UNL     1      25.431  33.168  80.137  1.00  0.00     0.078 C
HETATM    3  C2  UNL     1      24.765  34.251  79.425  1.00  0.00     0.244 C
ENDROOT
BRANCH   3   4
HETATM    4  N2  UNL     1      23.589  33.724  78.803  1.00  0.00    -0.377 N
ATOM      5  H2  UNL     1      23.692  32.887  78.231  1.00  0.00     0.160 HD
BRANCH   4   6
HETATM    6  C3  UNL     1      22.411  34.229  78.913  1.00  0.00     0.033 A
HETATM    7  C4  UNL     1      22.161  35.557  79.173  1.00  0.00     0.046 A
HETATM    8  C5  UNL     1      20.874  36.046  79.281  1.00  0.00     0.091 A
HETATM    9  N3  UNL     1      19.814  35.236  79.134  1.00  0.00    -0.354 N
HETATM   10  C6  UNL     1      20.047  33.941  78.881  1.00  0.00     0.118 A
ATOM     11  H3  UNL     1      18.862  35.594  79.213  1.00  0.00     0.166 HD
HETATM   12  N4  UNL     1      18.956  33.055  78.720  1.00  0.00    -0.083 NA
HETATM   13  C7  UNL     1      21.318  33.401  78.763  1.00  0.00     0.074 A
ENDBRANCH   4   6
ENDBRANCH   3   4
TORSDOF 2
ENDMDL