MODEL 3
REMARK VINA RESULT: -1.849097726     13.234     14.117
REMARK  3 active torsions:
REMARK  status: ('A' for Active; 'I' for Inactive)
REMARK    1  A    between atoms: N1_2  and  N2_4
REMARK    2  A    between atoms: C4_9  and  N3_11
REMARK    3  A    between atoms: N3_11  and  N4_12
ROOT
HETATM    1  N2  UNL     1      10.098  27.298  35.879  1.00  0.00    -0.311 N
ATOM      2  H2  UNL     1      10.200  26.323  35.594  1.00  0.00     0.186 HD
HETATM    3  C2  UNL     1      10.419  28.246  35.051  1.00  0.00     0.031 C
HETATM    4  C3  UNL     1      10.340  29.717  35.287  1.00  0.00     0.224 C
HETATM    5  O1  UNL     1      11.337  30.270  34.506  1.00  0.00    -0.357 OA
HETATM    6  C4  UNL     1      11.545  29.459  33.421  1.00  0.00     0.151 C
HETATM    7  C5  UNL     1      10.805  30.099  32.238  1.00  0.00     0.068 C
HETATM    8  C6  UNL     1      10.943  28.129  33.671  1.00  0.00     0.113 C
ENDROOT
BRANCH   1   9
HETATM    9  N1  UNL     1       9.615  27.598  37.153  1.00  0.00    -0.341 N
HETATM   10  C1  UNL     1      10.479  27.974  38.223  1.00  0.00     0.167 C
ATOM     11  H1  UNL     1       8.611  27.548  37.324  1.00  0.00     0.179 HD
ENDBRANCH   1   9
BRANCH   6  12
HETATM   12  N3  UNL     1      12.936  29.425  33.044  1.00  0.00    -0.109 NA
BRANCH  12  13
HETATM   13  N4  UNL     1      13.742  30.266  33.775  1.00  0.00    -0.346 N
ATOM     14  H42 UNL     1      14.694  30.488  33.486  1.00  0.00     0.172 HD
ATOM     15  H41 UNL     1      13.305  30.639  34.619  1.00  0.00     0.172 HD
ENDBRANCH  12  13
ENDBRANCH   6  12
TORSDOF 3
ENDMDL