MODEL 4
REMARK VINA RESULT: -5.403398594      1.736      2.376
REMARK  2 active torsions:
REMARK  status: ('A' for Active; 'I' for Inactive)
REMARK    1  A    between atoms: C2_3  and  C3_4
REMARK    2  A    between atoms: C6_10  and  N3_11
ROOT
HETATM    1  N1  UNL     1      16.487  25.417  33.246  1.00  0.00    -0.197 NA
HETATM    2  C1  UNL     1      16.495  24.517  32.515  1.00  0.00     0.065 C
HETATM    3  C2  UNL     1      16.521  23.388  31.584  1.00  0.00     0.181 C
ENDROOT
BRANCH   3   4
HETATM    4  C3  UNL     1      17.509  22.403  32.107  1.00  0.00     0.044 A
HETATM    5  C4  UNL     1      18.573  22.051  31.311  1.00  0.00     0.101 A
HETATM    6  C5  UNL     1      19.490  21.139  31.788  1.00  0.00     0.261 A
HETATM    7  O1  UNL     1      20.466  20.827  31.038  1.00  0.00    -0.268 OA
HETATM    8  N2  UNL     1      19.376  20.589  33.004  1.00  0.00    -0.156 N
HETATM    9  C6  UNL     1      18.311  20.966  33.756  1.00  0.00     0.678 A
ATOM     10  H2  UNL     1      20.060  19.916  33.350  1.00  0.00     0.187 HD
HETATM   11  N4  UNL     1      17.398  21.852  33.319  1.00  0.00    -0.195 N
ATOM     12  H4  UNL     1      16.614  22.105  33.920  1.00  0.00     0.184 HD
BRANCH   9  13
HETATM   13  N3  UNL     1      18.208  20.438  34.911  1.00  0.00    -0.234 N
ATOM     14  H32 UNL     1      18.029  21.014  35.733  1.00  0.00     0.174 HD
ATOM     15  H31 UNL     1      18.314  19.425  34.965  1.00  0.00     0.174 HD
ENDBRANCH   9  13
ENDBRANCH   3   4
TORSDOF 2
ENDMDL