MODEL 1
REMARK VINA RESULT: -4.573644683      0.000      0.000
REMARK  3 active torsions:
REMARK  status: ('A' for Active; 'I' for Inactive)
REMARK    1  A    between atoms: C3_3  and  N1_4
REMARK    2  A    between atoms: N1_4  and  N2_6
REMARK    3  A    between atoms: C6_9  and  N3_10
ROOT
HETATM    1  C1  UNL     1      26.487  24.649  40.833  1.00  0.00     0.018 C
HETATM    2  C2  UNL     1      25.490  25.200  40.423  1.00  0.00    -0.071 C
HETATM    3  C3  UNL     1      24.252  25.870  39.941  1.00  0.00     0.171 C
ENDROOT
BRANCH   3   4
HETATM    4  N1  UNL     1      23.709  25.201  38.834  1.00  0.00    -0.294 N
ATOM      5  H1  UNL     1      23.764  25.731  37.965  1.00  0.00     0.187 HD
BRANCH   4   6
HETATM    6  N2  UNL     1      23.115  23.959  38.697  1.00  0.00    -0.217 N
HETATM    7  C4  UNL     1      23.890  22.879  38.397  1.00  0.00     0.125 A
HETATM    8  C5  UNL     1      23.395  21.604  38.257  1.00  0.00     0.067 A
HETATM    9  C6  UNL     1      22.043  21.412  38.429  1.00  0.00     0.103 A
HETATM   10  N4  UNL     1      21.261  22.460  38.725  1.00  0.00    -0.293 N
HETATM   11  C7  UNL     1      21.811  23.690  38.849  1.00  0.00     0.346 A
ATOM     12  H4  UNL     1      20.258  22.332  38.855  1.00  0.00     0.172 HD
HETATM   13  O1  UNL     1      21.046  24.645  39.129  1.00  0.00    -0.245 OA
BRANCH   9  14
HETATM   14  N3  UNL     1      21.478  20.239  38.316  1.00  0.00    -0.385 N
ATOM     15  H32 UNL     1      21.897  19.456  38.818  1.00  0.00     0.157 HD
ATOM     16  H31 UNL     1      20.643  20.084  37.751  1.00  0.00     0.157 HD
ENDBRANCH   9  14
ENDBRANCH   4   6
ENDBRANCH   3   4
TORSDOF 3
ENDMDL