MODEL 4
REMARK VINA RESULT: -3.463214338      2.287      4.415
REMARK  3 active torsions:
REMARK  status: ('A' for Active; 'I' for Inactive)
REMARK    1  A    between atoms: N1_2  and  C2_4
REMARK    2  A    between atoms: C4_6  and  O1_7
REMARK    3  A    between atoms: C6_11  and  N3_12
ROOT
HETATM    1  C2  UNL     1      17.372  22.165  33.931  1.00  0.00     0.120 A
HETATM    2  C3  UNL     1      18.356  21.316  33.415  1.00  0.00     0.105 A
HETATM    3  C4  UNL     1      18.684  21.427  32.080  1.00  0.00     0.160 A
HETATM    4  N2  UNL     1      18.062  22.338  31.304  1.00  0.00    -0.171 N
ATOM      5  H2  UNL     1      18.314  22.409  30.318  1.00  0.00     0.186 HD
HETATM    6  C6  UNL     1      17.115  23.155  31.800  1.00  0.00     0.679 A
HETATM    7  N4  UNL     1      16.799  23.044  33.098  1.00  0.00    -0.177 N
ATOM      8  H4  UNL     1      16.082  23.665  33.473  1.00  0.00     0.185 HD
ENDROOT
BRANCH   1   9
HETATM    9  N1  UNL     1      17.050  22.077  35.177  1.00  0.00    -0.380 N
HETATM   10  C1  UNL     1      16.570  23.279  35.833  1.00  0.00     0.147 C
ATOM     11  H1  UNL     1      17.131  21.195  35.682  1.00  0.00     0.160 HD
ENDBRANCH   1   9
BRANCH   3  12
HETATM   12  O1  UNL     1      19.641  20.620  31.521  1.00  0.00    -0.340 OA
HETATM   13  C5  UNL     1      20.890  21.042  31.066  1.00  0.00     0.211 C
ENDBRANCH   3  12
BRANCH   6  14
HETATM   14  N3  UNL     1      16.551  24.009  31.015  1.00  0.00    -0.234 N
ATOM     15  H32 UNL     1      17.007  24.376  30.180  1.00  0.00     0.174 HD
ATOM     16  H31 UNL     1      15.609  24.334  31.234  1.00  0.00     0.174 HD
ENDBRANCH   6  14
TORSDOF 3
ENDMDL