MODEL 4
REMARK VINA RESULT: -4.917036164      1.843      3.594
REMARK  1 active torsions:
REMARK  status: ('A' for Active; 'I' for Inactive)
REMARK    1  A    between atoms: N2_3  and  C2_5
ROOT
HETATM    1  N1  UNL     1      16.741  25.167  32.130  1.00  0.00    -0.172 NA
HETATM    2  C1  UNL     1      17.082  24.125  31.737  1.00  0.00     0.182 C
HETATM    3  N2  UNL     1      17.501  22.877  31.247  1.00  0.00    -0.286 N
ATOM      4  H2  UNL     1      17.267  22.620  30.288  1.00  0.00     0.178 HD
ENDROOT
BRANCH   3   5
HETATM    5  C2  UNL     1      18.240  21.961  32.042  1.00  0.00     0.150 A
HETATM    6  C3  UNL     1      18.137  21.724  33.395  1.00  0.00     0.161 A
HETATM    7  C4  UNL     1      17.229  22.373  34.323  1.00  0.00     0.121 C
HETATM    8  N4  UNL     1      19.046  20.773  33.671  1.00  0.00    -0.286 N
HETATM    9  N3  UNL     1      16.496  22.898  35.050  1.00  0.00    -0.190 NA
HETATM   10  N5  UNL     1      19.710  20.396  32.601  1.00  0.00    -0.263 N
ATOM     11  H4  UNL     1      19.202  20.388  34.603  1.00  0.00     0.188 HD
HETATM   12  C5  UNL     1      19.222  21.129  31.559  1.00  0.00     0.290 A
ATOM     13  H5  UNL     1      20.447  19.691  32.558  1.00  0.00     0.190 HD
HETATM   14  O1  UNL     1      19.643  21.013  30.394  1.00  0.00    -0.264 OA
ENDBRANCH   3   5
TORSDOF 1
ENDMDL