MODEL 5
REMARK VINA RESULT: -3.564556486      1.027      2.866
REMARK  2 active torsions:
REMARK  status: ('A' for Active; 'I' for Inactive)
REMARK    1  A    between atoms: N1_2  and  C2_4
REMARK    2  A    between atoms: N2_11  and  N3_13
ROOT
HETATM    1  C2  UNL     1      17.248  22.328  33.818  1.00  0.00     0.059 A
HETATM    2  C3  UNL     1      16.847  23.337  33.019  1.00  0.00     0.086 A
HETATM    3  C4  UNL     1      17.277  23.501  31.653  1.00  0.00     0.174 A
HETATM    4  O1  UNL     1      16.848  24.482  30.974  1.00  0.00    -0.288 OA
HETATM    5  C5  UNL     1      18.202  22.526  31.088  1.00  0.00     0.057 A
HETATM    6  C6  UNL     1      18.620  21.522  31.838  1.00  0.00     0.037 A
HETATM    7  C7  UNL     1      18.157  21.376  33.252  1.00  0.00     0.074 A
HETATM    8  N2  UNL     1      18.592  20.393  33.916  1.00  0.00    -0.305 N
ATOM      9  H2  UNL     1      19.238  19.747  33.461  1.00  0.00     0.186 HD
ENDROOT
BRANCH   1  10
HETATM   10  N1  UNL     1      16.774  22.263  35.114  1.00  0.00    -0.392 N
HETATM   11  C1  UNL     1      16.589  23.360  36.031  1.00  0.00     0.146 C
ATOM     12  H1  UNL     1      16.527  21.336  35.461  1.00  0.00     0.159 HD
ENDBRANCH   1  10
BRANCH   8  13
HETATM   13  N3  UNL     1      18.238  20.152  35.222  1.00  0.00    -0.345 N
ATOM     14  H32 UNL     1      18.157  20.959  35.841  1.00  0.00     0.176 HD
ATOM     15  H31 UNL     1      18.057  19.217  35.588  1.00  0.00     0.176 HD
ENDBRANCH   8  13
TORSDOF 2
ENDMDL