MODEL 4
REMARK VINA RESULT: -4.748984091      1.771      2.611
REMARK  2 active torsions:
REMARK  status: ('A' for Active; 'I' for Inactive)
REMARK    1  A    between atoms: N1_1  and  C1_4
REMARK    2  A    between atoms: C3_8  and  N3_9
ROOT
HETATM    1  C1  UNL     1      19.400  21.113  32.129  1.00  0.00     0.678 A
HETATM    2  N2  UNL     1      19.012  21.879  31.090  1.00  0.00    -0.200 N
ATOM      3  H2  UNL     1      19.460  21.775  30.180  1.00  0.00     0.183 HD
HETATM    4  C2  UNL     1      18.030  22.780  31.261  1.00  0.00     0.148 A
HETATM    5  C3  UNL     1      17.387  22.963  32.468  1.00  0.00     0.186 A
HETATM    6  C4  UNL     1      17.803  22.164  33.522  1.00  0.00     0.294 A
HETATM    7  O3  UNL     1      17.258  22.287  34.631  1.00  0.00    -0.265 OA
HETATM    8  N4  UNL     1      18.791  21.269  33.319  1.00  0.00    -0.154 N
ATOM      9  H4  UNL     1      19.090  20.685  34.100  1.00  0.00     0.187 HD
ENDROOT
BRANCH   1  10
HETATM   10  N1  UNL     1      20.356  20.222  31.998  1.00  0.00    -0.234 N
ATOM     11  H12 UNL     1      20.134  19.229  32.063  1.00  0.00     0.174 HD
ATOM     12  H11 UNL     1      21.322  20.504  31.829  1.00  0.00     0.174 HD
ENDBRANCH   1  10
BRANCH   5  13
HETATM   13  N3  UNL     1      16.354  23.925  32.608  1.00  0.00    -0.108 N
HETATM   14  O1  UNL     1      15.237  23.686  32.126  1.00  0.00    -0.532 OA
HETATM   15  O2  UNL     1      16.555  25.116  33.258  1.00  0.00    -0.532 OA
ENDBRANCH   5  13
TORSDOF 2
ENDMDL