MODEL 5
REMARK VINA RESULT: -4.117724696      1.888      3.192
REMARK  2 active torsions:
REMARK  status: ('A' for Active; 'I' for Inactive)
REMARK    1  A    between atoms: C2_2  and  N1_3
REMARK    2  A    between atoms: C4_8  and  N3_9
ROOT
HETATM    1  N1  UNL     1      17.696  22.475  32.293  1.00  0.00    -0.226 N
HETATM    2  C3  UNL     1      16.878  22.287  33.336  1.00  0.00     0.348 A
HETATM    3  O1  UNL     1      15.836  22.976  33.417  1.00  0.00    -0.245 OA
HETATM    4  N2  UNL     1      17.155  21.365  34.308  1.00  0.00    -0.141 N
ATOM      5  H2  UNL     1      16.501  21.259  35.083  1.00  0.00     0.189 HD
HETATM    6  C4  UNL     1      18.248  20.597  34.281  1.00  0.00     0.683 A
HETATM    7  N4  UNL     1      19.072  20.778  33.240  1.00  0.00    -0.141 N
ATOM      8  H4  UNL     1      19.919  20.214  33.177  1.00  0.00     0.189 HD
HETATM    9  C5  UNL     1      18.816  21.675  32.282  1.00  0.00     0.348 A
HETATM   10  O2  UNL     1      19.617  21.815  31.319  1.00  0.00    -0.245 OA
ENDROOT
BRANCH   6  11
HETATM   11  N3  UNL     1      18.520  19.726  35.190  1.00  0.00    -0.234 N
ATOM     12  H32 UNL     1      17.773  19.204  35.650  1.00  0.00     0.174 HD
ATOM     13  H31 UNL     1      19.470  19.514  35.495  1.00  0.00     0.174 HD
ENDBRANCH   6  11
BRANCH   1  14
HETATM   14  C2  UNL     1      17.525  23.404  31.251  1.00  0.00     0.096 C
HETATM   15  C1  UNL     1      17.369  24.689  31.344  1.00  0.00     0.030 C
ENDBRANCH   1  14
TORSDOF 2
ENDMDL