MODEL 1
REMARK VINA RESULT: -6.094885535      0.000      0.000
REMARK  5 active torsions:
REMARK  status: ('A' for Active; 'I' for Inactive)
REMARK    1  A    between atoms: N1_1  and  C1_5
REMARK    2  A    between atoms: C1_5  and  O1_6
REMARK    3  A    between atoms: C1_5  and  C2_8
REMARK    4  A    between atoms: N2_12  and  O2_13
REMARK    5  A    between atoms: C6_15  and  O3_16
ROOT
HETATM    1  C2  UNL     1      18.578  21.768  31.965  1.00  0.00     0.050 A
HETATM    2  C3  UNL     1      17.987  22.815  31.273  1.00  0.00     0.017 A
HETATM    3  C4  UNL     1      17.067  23.657  31.868  1.00  0.00     0.021 A
HETATM    4  C5  UNL     1      16.749  23.422  33.192  1.00  0.00     0.125 A
HETATM    5  N2  UNL     1      17.311  22.408  33.886  1.00  0.00    -0.212 N
HETATM    6  C6  UNL     1      18.200  21.607  33.282  1.00  0.00     0.177 A
ENDROOT
BRANCH   1   7
HETATM    7  C1  UNL     1      19.558  20.838  31.398  1.00  0.00     0.355 C
BRANCH   7   8
HETATM    8  N1  UNL     1      20.912  21.308  31.671  1.00  0.00    -0.049 N
ATOM      9  H13 UNL     1      21.356  20.818  32.448  1.00  0.00     0.277 HD
ATOM     10  H12 UNL     1      21.580  21.041  30.948  1.00  0.00     0.277 HD
ATOM     11  H11 UNL     1      20.859  22.316  31.814  1.00  0.00     0.277 HD
ENDBRANCH   7   8
BRANCH   7  12
HETATM   12  O1  UNL     1      19.450  20.671  30.031  1.00  0.00    -0.366 OA
ATOM     13  H1  UNL     1      18.904  19.908  29.883  1.00  0.00     0.212 HD
ENDBRANCH   7  12
ENDBRANCH   1   7
BRANCH   6  14
HETATM   14  O3  UNL     1      18.758  20.578  34.024  1.00  0.00    -0.344 OA
ATOM     15  H3  UNL     1      19.146  20.772  34.869  1.00  0.00     0.219 HD
ENDBRANCH   6  14
BRANCH   5  16
HETATM   16  O2  UNL     1      16.992  22.179  35.202  1.00  0.00    -0.281 OA
ATOM     17  H2  UNL     1      16.439  21.450  35.456  1.00  0.00     0.245 HD
ENDBRANCH   5  16
TORSDOF 5
ENDMDL