MODEL 3
REMARK VINA RESULT: -6.095151142      1.829      2.467
REMARK  2 active torsions:
REMARK  status: ('A' for Active; 'I' for Inactive)
REMARK    1  A    between atoms: N1_1  and  N2_4
REMARK    2  A    between atoms: C1_6  and  C2_7
ROOT
HETATM    1  C2  UNL     1      18.403  21.523  32.317  1.00  0.00     0.053 A
HETATM    2  C3  UNL     1      17.888  22.464  31.453  1.00  0.00     0.057 A
HETATM    3  C4  UNL     1      17.033  23.478  31.901  1.00  0.00     0.053 A
HETATM    4  N3  UNL     1      16.509  24.437  31.008  1.00  0.00    -0.102 NA
HETATM    5  C5  UNL     1      16.715  23.515  33.236  1.00  0.00     0.101 A
HETATM    6  C6  UNL     1      17.228  22.575  34.107  1.00  0.00     0.247 A
HETATM    7  O1  UNL     1      16.926  22.622  35.337  1.00  0.00    -0.268 OA
HETATM    8  N4  UNL     1      18.038  21.627  33.641  1.00  0.00    -0.322 N
ATOM      9  H4  UNL     1      18.408  20.941  34.300  1.00  0.00     0.169 HD
ENDROOT
BRANCH   1  10
HETATM   10  C1  UNL     1      19.279  20.470  31.911  1.00  0.00     0.136 C
HETATM   11  N2  UNL     1      20.422  20.549  31.458  1.00  0.00    -0.316 N
ATOM     12  H2  UNL     1      20.847  19.647  31.241  1.00  0.00     0.185 HD
BRANCH  11  13
HETATM   13  N1  UNL     1      21.212  21.603  31.197  1.00  0.00    -0.345 N
ATOM     14  H12 UNL     1      22.193  21.345  31.092  1.00  0.00     0.176 HD
ATOM     15  H11 UNL     1      21.007  22.596  31.088  1.00  0.00     0.176 HD
ENDBRANCH  11  13
ENDBRANCH   1  10
TORSDOF 2
ENDMDL