MODEL 5
REMARK VINA RESULT: -7.992998021      4.488      8.517
REMARK  7 active torsions:
REMARK  status: ('A' for Active; 'I' for Inactive)
REMARK    1  A    between atoms: C2_2  and  C3_3
REMARK    2  A    between atoms: C3_3  and  C4_4
REMARK       I    between atoms: C4_4  and  N1_6
REMARK    3  A    between atoms: N1_6  and  C5_8
REMARK    4  A    between atoms: C7_12  and  N3_13
REMARK    5  A    between atoms: N3_13  and  C8_15
REMARK    6  A    between atoms: N7_28  and  C16_29
REMARK    7  A    between atoms: C16_29  and  C17_30
ROOT
HETATM    1  C5  UNL     1      -3.416  39.725  10.617  1.00  0.00     0.689 A
HETATM    2  N2  UNL     1      -3.856  39.775   9.332  1.00  0.00    -0.184 N
ATOM      3  H2  UNL     1      -4.688  39.315   8.964  1.00  0.00     0.184 HD
HETATM    4  C6  UNL     1      -3.010  40.530   8.644  1.00  0.00     0.137 A
HETATM    5  C7  UNL     1      -3.009  40.898   7.283  1.00  0.00     0.134 A
HETATM    6  N5  UNL     1      -1.990  41.682   6.919  1.00  0.00    -0.337 N
ATOM      7  H5  UNL     1      -1.931  41.984   5.946  1.00  0.00     0.168 HD
HETATM    8  C14 UNL     1      -1.036  42.093   7.780  1.00  0.00     0.183 A
HETATM    9  N6  UNL     1      -1.052  41.731   9.082  1.00  0.00    -0.336 N
ATOM     10  H6  UNL     1      -0.323  42.049   9.721  1.00  0.00     0.168 HD
HETATM   11  C15 UNL     1      -2.041  40.948   9.513  1.00  0.00     0.156 A
HETATM   12  N7  UNL     1      -2.290  40.445  10.757  1.00  0.00    -0.160 N
ENDROOT
BRANCH   1  13
HETATM   13  N1  UNL     1      -3.981  39.082  11.593  1.00  0.00    -0.159 N
HETATM   14  C4  UNL     1      -5.202  39.508  12.176  1.00  0.00     0.244 C
HETATM   15  O1  UNL     1      -6.170  39.738  11.415  1.00  0.00    -0.272 OA
ATOM     16  H1  UNL     1      -3.531  38.239  11.954  1.00  0.00     0.187 HD
BRANCH  14  17
HETATM   17  C3  UNL     1      -5.327  39.678  13.664  1.00  0.00     0.047 C
HETATM   18  C18 UNL     1      -6.589  39.074  14.182  1.00  0.00     0.025 C
HETATM   19  C19 UNL     1      -6.198  37.849  14.983  1.00  0.00     0.080 C
HETATM   20  C20 UNL     1      -4.840  37.495  14.471  1.00  0.00     0.244 C
HETATM   21  F3  UNL     1      -4.096  36.725  15.313  1.00  0.00    -0.206 F
HETATM   22  F4  UNL     1      -4.975  36.938  13.204  1.00  0.00    -0.206 F
HETATM   23  C21 UNL     1      -4.197  38.868  14.280  1.00  0.00     0.098 C
BRANCH  17  24
HETATM   24  C2  UNL     1      -5.192  41.136  13.970  1.00  0.00     0.015 C
HETATM   25  C1  UNL     1      -4.871  41.421  15.400  1.00  0.00     0.006 C
ENDBRANCH  17  24
ENDBRANCH  14  17
ENDBRANCH   1  13
BRANCH  12  26
HETATM   26  C16 UNL     1      -1.481  40.671  11.937  1.00  0.00     0.220 C
BRANCH  26  27
HETATM   27  C17 UNL     1      -1.826  41.993  12.600  1.00  0.00     0.371 C
HETATM   28  F1  UNL     1      -2.984  42.481  12.082  1.00  0.00    -0.213 F
HETATM   29  F2  UNL     1      -1.864  41.861  13.979  1.00  0.00    -0.213 F
ENDBRANCH  26  27
ENDBRANCH  12  26
BRANCH   5  30
HETATM   30  N3  UNL     1      -3.914  40.497   6.508  1.00  0.00    -0.370 N
ATOM     31  H3  UNL     1      -4.612  39.946   7.008  1.00  0.00     0.161 HD
BRANCH  30  32
HETATM   32  C8  UNL     1      -4.222  40.599   5.165  1.00  0.00     0.086 C
HETATM   33  C9  UNL     1      -4.639  41.991   4.672  1.00  0.00     0.055 C
HETATM   34  C10 UNL     1      -4.370  41.944   3.177  1.00  0.00     0.274 C
HETATM   35  N4  UNL     1      -5.139  40.918   2.518  1.00  0.00     0.084 N
HETATM   36  C11 UNL     1      -4.581  40.756   1.183  1.00  0.00     0.309 C
HETATM   37  C12 UNL     1      -5.169  39.646   3.142  1.00  0.00     0.274 C
HETATM   38  C13 UNL     1      -5.324  39.673   4.644  1.00  0.00     0.055 C
ENDBRANCH  30  32
ENDBRANCH   5  30
TORSDOF 7
ENDMDL