MODEL 3
REMARK VINA RESULT: -7.366197417      0.943      1.732
REMARK  6 active torsions:
REMARK  status: ('A' for Active; 'I' for Inactive)
REMARK    1  A    between atoms: C2_2  and  C3_3
REMARK    2  A    between atoms: C4_4  and  C5_5
REMARK    3  A    between atoms: C5_5  and  C6_6
REMARK    4  A    between atoms: C7_9  and  N1_10
REMARK    5  A    between atoms: N3_19  and  C13_20
REMARK    6  A    between atoms: C16_24  and  N4_25
ROOT
HETATM    1  C3  UNL     1      -1.363  41.435   9.393  1.00  0.00     0.090 C
HETATM    2  C4  UNL     1      -1.354  41.973  10.833  1.00  0.00     0.038 C
HETATM    3  C7  UNL     1      -2.802  41.917  11.235  1.00  0.00     0.118 C
HETATM    4  C12 UNL     1      -3.551  42.229  10.004  1.00  0.00     0.150 C
HETATM    5  N3  UNL     1      -2.725  41.602   8.950  1.00  0.00    -0.369 N
ENDROOT
BRANCH   5   6
HETATM    6  C13 UNL     1      -3.292  41.281   7.694  1.00  0.00     0.109 A
HETATM    7  C14 UNL     1      -3.494  42.337   6.787  1.00  0.00     0.148 A
HETATM    8  F3  UNL     1      -3.196  43.599   7.184  1.00  0.00    -0.203 F
HETATM    9  C15 UNL     1      -3.981  42.096   5.528  1.00  0.00     0.074 A
HETATM   10  C16 UNL     1      -4.292  40.839   5.090  1.00  0.00     0.043 A
HETATM   11  C22 UNL     1      -4.086  39.806   5.992  1.00  0.00     0.074 A
HETATM   12  C23 UNL     1      -3.602  40.034   7.243  1.00  0.00     0.148 A
HETATM   13  F4  UNL     1      -3.380  38.949   8.039  1.00  0.00    -0.203 F
BRANCH  10  14
HETATM   14  N4  UNL     1      -4.809  40.591   3.788  1.00  0.00    -0.316 N
HETATM   15  C17 UNL     1      -6.209  40.389   3.616  1.00  0.00     0.151 C
HETATM   16  C18 UNL     1      -6.824  41.342   2.615  1.00  0.00     0.134 C
HETATM   17  N5  UNL     1      -6.221  41.325   1.326  1.00  0.00    -0.419 N
HETATM   18  C19 UNL     1      -5.423  40.190   1.001  1.00  0.00     0.123 C
ATOM     19  H5  UNL     1      -6.353  42.090   0.665  1.00  0.00     0.153 HD
HETATM   20  C20 UNL     1      -3.971  40.462   1.314  1.00  0.00     0.122 C
HETATM   21  C21 UNL     1      -3.808  40.579   2.766  1.00  0.00     0.226 C
HETATM   22  O2  UNL     1      -2.622  40.685   3.198  1.00  0.00    -0.273 OA
ENDBRANCH  10  14
ENDBRANCH   5   6
BRANCH   1  23
HETATM   23  C2  UNL     1      -0.423  42.216   8.546  1.00  0.00     0.021 C
HETATM   24  C1  UNL     1      -0.320  43.652   8.957  1.00  0.00     0.007 C
ENDBRANCH   1  23
BRANCH   2  25
HETATM   25  C5  UNL     1      -0.621  41.061  11.763  1.00  0.00     0.080 C
BRANCH  25  26
HETATM   26  C6  UNL     1       0.835  40.882  11.592  1.00  0.00     0.353 C
HETATM   27  F1  UNL     1       1.514  42.040  11.293  1.00  0.00    -0.214 F
HETATM   28  F2  UNL     1       1.139  39.818  10.779  1.00  0.00    -0.214 F
ENDBRANCH  25  26
ENDBRANCH   2  25
BRANCH   3  29
HETATM   29  N1  UNL     1      -3.111  42.813  12.327  1.00  0.00    -0.301 N
HETATM   30  C8  UNL     1      -2.778  44.113  12.388  1.00  0.00     0.120 A
HETATM   31  C9  UNL     1      -3.260  44.640  13.595  1.00  0.00     0.025 A
HETATM   32  C10 UNL     1      -3.109  46.061  14.051  1.00  0.00     0.070 C
HETATM   33  N2  UNL     1      -3.864  43.602  14.196  1.00  0.00    -0.311 N
HETATM   34  C11 UNL     1      -3.777  42.492  13.434  1.00  0.00     0.327 A
ATOM     35  H2  UNL     1      -4.325  43.647  15.105  1.00  0.00     0.170 HD
HETATM   36  O1  UNL     1      -4.269  41.369  13.775  1.00  0.00    -0.246 OA
ENDBRANCH   3  29
TORSDOF 6
ENDMDL