MODEL 5
REMARK VINA RESULT: -6.154886709      3.907      8.143
REMARK  7 active torsions:
REMARK  status: ('A' for Active; 'I' for Inactive)
REMARK    1  A    between atoms: C2_2  and  C3_3
REMARK       I    between atoms: C3_3  and  N1_5
REMARK    2  A    between atoms: N2_8  and  C6_9
REMARK    3  A    between atoms: N3_19  and  C13_20
REMARK    4  A    between atoms: C13_20  and  C14_21
REMARK    5  A    between atoms: C14_21  and  O2_22
REMARK    6  A    between atoms: C17_27  and  C18_28
REMARK    7  A    between atoms: C18_28  and  O3_29
ROOT
HETATM    1  C6  UNL     1      -3.291  41.126  11.007  1.00  0.00     0.095 A
HETATM    2  C7  UNL     1      -3.690  40.228  10.013  1.00  0.00     0.185 A
HETATM    3  F1  UNL     1      -4.066  38.963  10.278  1.00  0.00    -0.200 F
HETATM    4  C8  UNL     1      -3.691  40.673   8.717  1.00  0.00     0.184 A
HETATM    5  F2  UNL     1      -4.073  39.806   7.755  1.00  0.00    -0.200 F
HETATM    6  C9  UNL     1      -3.314  41.975   8.363  1.00  0.00     0.090 A
HETATM    7  C10 UNL     1      -2.922  42.840   9.390  1.00  0.00     0.037 A
HETATM    8  C11 UNL     1      -2.591  44.058   8.842  1.00  0.00     0.041 A
HETATM    9 BR1  UNL     1      -1.993  45.582   9.801  1.00  0.00    -0.049 Br
HETATM   10  C12 UNL     1      -2.785  43.918   7.498  1.00  0.00     0.111 A
HETATM   11  N3  UNL     1      -3.223  42.659   7.211  1.00  0.00    -0.350 N
HETATM   12  C15 UNL     1      -2.915  42.405  10.698  1.00  0.00     0.077 A
HETATM   13 CL1  UNL     1      -2.420  43.513  11.950  1.00  0.00    -0.081 Cl
ENDROOT
BRANCH   1  14
HETATM   14  N2  UNL     1      -3.282  40.686  12.349  1.00  0.00    -0.373 N
HETATM   15  C5  UNL     1      -4.414  40.985  13.159  1.00  0.00     0.143 C
HETATM   16  C4  UNL     1      -4.600  40.089  14.357  1.00  0.00     0.146 C
HETATM   17  N1  UNL     1      -3.905  38.810  14.141  1.00  0.00    -0.342 N
HETATM   18  C3  UNL     1      -4.620  37.608  14.376  1.00  0.00     0.220 C
HETATM   19  C17 UNL     1      -2.548  38.831  13.701  1.00  0.00     0.128 C
HETATM   20  O1  UNL     1      -5.837  37.649  14.774  1.00  0.00    -0.273 OA
HETATM   21  C16 UNL     1      -2.154  39.985  12.853  1.00  0.00     0.150 C
BRANCH  18  22
HETATM   22  C2  UNL     1      -4.045  36.267  14.187  1.00  0.00     0.098 C
HETATM   23  C1  UNL     1      -4.073  35.456  15.485  1.00  0.00     0.014 C
ENDBRANCH  18  22
BRANCH  19  24
HETATM   24  C18 UNL     1      -1.558  38.742  14.844  1.00  0.00     0.191 C
BRANCH  24  25
HETATM   25  O3  UNL     1      -0.851  37.541  14.818  1.00  0.00    -0.399 OA
ATOM     26  H3  UNL     1      -0.754  37.173  15.689  1.00  0.00     0.209 HD
ENDBRANCH  24  25
ENDBRANCH  19  24
ENDBRANCH   1  14
BRANCH  11  27
HETATM   27  C13 UNL     1      -3.540  42.146   5.907  1.00  0.00     0.154 C
BRANCH  27  28
HETATM   28  C14 UNL     1      -4.284  43.149   5.063  1.00  0.00     0.184 C
BRANCH  28  29
HETATM   29  O2  UNL     1      -5.043  42.475   4.080  1.00  0.00    -0.399 OA
ATOM     30  H2  UNL     1      -5.931  42.811   4.076  1.00  0.00     0.209 HD
ENDBRANCH  28  29
ENDBRANCH  27  28
ENDBRANCH  11  27
TORSDOF 7
ENDMDL