MODEL 5
REMARK VINA RESULT: -6.497660913      2.974      5.852
REMARK  9 active torsions:
REMARK  status: ('A' for Active; 'I' for Inactive)
REMARK    1  A    between atoms: C4_4  and  C5_5
REMARK    2  A    between atoms: C5_5  and  O2_7
REMARK    3  A    between atoms: O2_7  and  C6_8
REMARK    4  A    between atoms: C8_10  and  O3_11
REMARK    5  A    between atoms: C8_10  and  C9_13
REMARK    6  A    between atoms: C9_13  and  C11_15
REMARK    7  A    between atoms: C11_15  and  C12_17
REMARK    8  A    between atoms: C14_21  and  O4_22
REMARK    9  A    between atoms: C17_27  and  O5_28
ROOT
HETATM    1  C6  UNL     1      -2.845  41.263   9.667  1.00  0.00     0.149 C
HETATM    2  C7  UNL     1      -3.528  41.015   8.367  1.00  0.00     0.079 C
HETATM    3  C8  UNL     1      -3.006  42.033   7.369  1.00  0.00     0.116 C
HETATM    4  C14 UNL     1      -2.679  43.128   8.287  1.00  0.00     0.108 C
HETATM    5  C15 UNL     1      -1.735  44.190   8.035  1.00  0.00     0.082 C
HETATM    6  C16 UNL     1      -1.470  44.667   9.483  1.00  0.00     0.202 C
HETATM    7  F2  UNL     1      -2.305  45.750   9.781  1.00  0.00    -0.247 F
HETATM    8  C17 UNL     1      -1.889  43.506  10.385  1.00  0.00     0.166 C
HETATM    9  C18 UNL     1      -1.949  42.382   9.402  1.00  0.00     0.046 C
HETATM   10  C19 UNL     1      -0.555  41.975   9.144  1.00  0.00     0.024 C
ENDROOT
BRANCH   3  11
HETATM   11  O3  UNL     1      -1.841  41.467   6.838  1.00  0.00    -0.382 OA
ATOM     12  H3  UNL     1      -1.628  41.997   6.079  1.00  0.00     0.211 HD
ENDBRANCH   3  11
BRANCH   3  13
HETATM   13  C9  UNL     1      -3.886  42.335   6.220  1.00  0.00    -0.029 C
HETATM   14  C10 UNL     1      -4.061  43.814   5.930  1.00  0.00     0.048 C
BRANCH  13  15
HETATM   15  C11 UNL     1      -3.788  41.617   4.948  1.00  0.00     0.048 C
HETATM   16 BR1  UNL     1      -3.838  42.702   3.346  1.00  0.00    -0.051 Br
BRANCH  15  17
HETATM   17  C12 UNL     1      -4.563  40.389   4.672  1.00  0.00     0.209 C
HETATM   18  C13 UNL     1      -4.087  39.805   3.317  1.00  0.00     0.076 C
HETATM   19  F1  UNL     1      -5.895  40.655   4.405  1.00  0.00    -0.220 F
HETATM   20 CL1  UNL     1      -4.486  39.077   5.797  1.00  0.00    -0.077 Cl
ENDBRANCH  15  17
ENDBRANCH  13  15
ENDBRANCH   3  13
BRANCH   4  21
HETATM   21  O4  UNL     1      -3.807  43.698   8.881  1.00  0.00    -0.385 OA
ATOM     22  H4  UNL     1      -3.599  44.434   9.444  1.00  0.00     0.210 HD
ENDBRANCH   4  21
BRANCH   1  23
HETATM   23  O2  UNL     1      -2.193  40.210  10.267  1.00  0.00    -0.312 OA
BRANCH  23  24
HETATM   24  C5  UNL     1      -2.367  39.655  11.484  1.00  0.00     0.283 C
HETATM   25  O1  UNL     1      -1.371  39.616  12.188  1.00  0.00    -0.260 OA
BRANCH  24  26
HETATM   26  C4  UNL     1      -3.648  39.149  11.903  1.00  0.00     0.084 C
HETATM   27  C2  UNL     1      -4.518  39.802  12.653  1.00  0.00    -0.082 C
HETATM   28  C1  UNL     1      -5.824  39.206  13.041  1.00  0.00     0.043 C
HETATM   29  C3  UNL     1      -4.180  41.161  13.115  1.00  0.00     0.043 C
ENDBRANCH  24  26
ENDBRANCH  23  24
ENDBRANCH   1  23
BRANCH   8  30
HETATM   30  O5  UNL     1      -3.013  43.748  11.109  1.00  0.00    -0.392 OA
ATOM     31  H5  UNL     1      -3.818  43.521  10.658  1.00  0.00     0.210 HD
ENDBRANCH   8  30
TORSDOF 9
ENDMDL