MODEL 1
REMARK VINA RESULT: -8.918666870      0.000      0.000
REMARK  6 active torsions:
REMARK  status: ('A' for Active; 'I' for Inactive)
REMARK    1  A    between atoms: C3_4  and  N2_5
REMARK    2  A    between atoms: N4_15  and  C10_16
REMARK    3  A    between atoms: C10_16  and  C11_17
REMARK    4  A    between atoms: C15_25  and  C16_26
REMARK    5  A    between atoms: C16_26  and  N7_27
REMARK    6  A    between atoms: C18_29  and  C19_30
ROOT
HETATM    1  N1  UNL     1      -1.886  39.207  13.646  1.00  0.00    -0.195 NA
HETATM    2  C1  UNL     1      -2.797  38.979  13.011  1.00  0.00     0.086 C
HETATM    3  C2  UNL     1      -3.936  38.693  12.164  1.00  0.00     0.214 C
HETATM    4  C3  UNL     1      -5.221  38.700  13.013  1.00  0.00     0.124 C
HETATM    5  C8  UNL     1      -5.740  40.106  12.723  1.00  0.00     0.048 C
HETATM    6  C9  UNL     1      -5.551  40.042  11.185  1.00  0.00     0.126 C
HETATM    7  N4  UNL     1      -4.175  39.546  11.128  1.00  0.00    -0.370 N
ENDROOT
BRANCH   4   8
HETATM    8  N2  UNL     1      -5.037  38.457  14.391  1.00  0.00    -0.363 N
HETATM    9  C4  UNL     1      -5.189  39.438  15.445  1.00  0.00     0.125 C
HETATM   10  C5  UNL     1      -4.870  38.753  16.757  1.00  0.00     0.027 C
HETATM   11  C6  UNL     1      -4.129  37.515  16.353  1.00  0.00     0.077 C
HETATM   12  C7  UNL     1      -4.646  37.214  15.006  1.00  0.00     0.073 C
HETATM   13  N3  UNL     1      -4.699  36.024  14.522  1.00  0.00    -0.389 N
ATOM     14  H32 UNL     1      -5.057  35.816  13.589  1.00  0.00     0.157 HD
ATOM     15  H31 UNL     1      -4.423  35.144  14.957  1.00  0.00     0.157 HD
ENDBRANCH   4   8
BRANCH   7  16
HETATM   16  C10 UNL     1      -3.531  39.787   9.937  1.00  0.00     0.099 C
BRANCH  16  17
HETATM   17  C11 UNL     1      -3.293  41.264   9.845  1.00  0.00    -0.006 A
HETATM   18  C12 UNL     1      -3.036  42.087  10.907  1.00  0.00     0.031 A
HETATM   19  C13 UNL     1      -2.887  43.454  10.661  1.00  0.00     0.090 A
HETATM   20  N5  UNL     1      -2.981  43.985   9.441  1.00  0.00    -0.352 N
HETATM   21  C14 UNL     1      -3.237  43.164   8.384  1.00  0.00     0.116 A
ATOM     22  H5  UNL     1      -2.863  44.989   9.302  1.00  0.00     0.166 HD
HETATM   23  N6  UNL     1      -3.315  43.475   7.058  1.00  0.00    -0.344 N
HETATM   24  C23 UNL     1      -3.396  41.825   8.567  1.00  0.00     0.021 A
HETATM   25  C15 UNL     1      -3.533  42.323   6.416  1.00  0.00     0.040 A
ATOM     26  H6  UNL     1      -3.224  44.401   6.641  1.00  0.00     0.167 HD
HETATM   27  C22 UNL     1      -3.592  41.280   7.313  1.00  0.00     0.043 A
BRANCH  25  28
HETATM   28  C16 UNL     1      -3.662  42.150   4.943  1.00  0.00     0.329 C
BRANCH  28  29
HETATM   29  N7  UNL     1      -4.583  41.131   4.560  1.00  0.00     0.100 N
HETATM   30  C17 UNL     1      -3.955  40.049   3.845  1.00  0.00     0.289 C
HETATM   31  C18 UNL     1      -4.807  39.908   2.558  1.00  0.00     0.153 C
HETATM   32  C20 UNL     1      -6.155  40.284   3.096  1.00  0.00     0.280 C
HETATM   33  F3  UNL     1      -6.615  39.367   3.983  1.00  0.00    -0.204 F
HETATM   34  F4  UNL     1      -7.075  40.624   2.124  1.00  0.00    -0.204 F
HETATM   35  C21 UNL     1      -5.755  41.552   3.880  1.00  0.00     0.352 C
BRANCH  31  36
HETATM   36  C19 UNL     1      -4.220  40.884   1.590  1.00  0.00     0.364 C
HETATM   37  F1  UNL     1      -4.781  40.835   0.326  1.00  0.00    -0.214 F
HETATM   38  F2  UNL     1      -2.860  40.482   1.414  1.00  0.00    -0.214 F
ENDBRANCH  31  36
ENDBRANCH  28  29
ENDBRANCH  25  28
ENDBRANCH  16  17
ENDBRANCH   7  16
TORSDOF 6
ENDMDL