MODEL 1
REMARK VINA RESULT: -9.537975269      0.000      0.000
REMARK  5 active torsions:
REMARK  status: ('A' for Active; 'I' for Inactive)
REMARK    1  A    between atoms: N3_11  and  C7_12
REMARK    2  A    between atoms: C8_13  and  C9_14
REMARK    3  A    between atoms: C14_21  and  N4_22
REMARK       I    between atoms: N4_22  and  C15_24
REMARK    4  A    between atoms: C15_24  and  C16_26
REMARK    5  A    between atoms: C20_30  and  O2_31
ROOT
HETATM    1  C9  UNL     1      -2.496  41.935   8.839  1.00  0.00     0.014 C
HETATM    2  C10 UNL     1      -3.473  43.078   8.861  1.00  0.00     0.022 C
HETATM    3  C11 UNL     1      -2.985  44.245   8.068  1.00  0.00     0.080 C
HETATM    4  C12 UNL     1      -1.823  44.820   8.800  1.00  0.00     0.246 C
HETATM    5  F1  UNL     1      -2.258  46.049   9.333  1.00  0.00    -0.206 F
HETATM    6  F2  UNL     1      -0.773  45.219   7.957  1.00  0.00    -0.206 F
HETATM    7  C13 UNL     1      -1.390  43.966   9.920  1.00  0.00     0.111 C
HETATM    8  C14 UNL     1      -1.353  42.478   9.757  1.00  0.00     0.052 C
HETATM    9  C19 UNL     1      -1.637  41.979  11.179  1.00  0.00     0.070 C
HETATM   10  C20 UNL     1      -1.783  40.529  11.335  1.00  0.00     0.066 C
HETATM   11  C21 UNL     1      -1.869  39.809  10.030  1.00  0.00     0.050 C
HETATM   12  C22 UNL     1      -3.000  40.661   9.406  1.00  0.00     0.075 C
HETATM   13  C23 UNL     1      -3.973  40.613  10.496  1.00  0.00     0.251 C
HETATM   14  F3  UNL     1      -4.801  39.480  10.315  1.00  0.00    -0.206 F
HETATM   15  F4  UNL     1      -4.828  41.611  10.728  1.00  0.00    -0.206 F
HETATM   16  C24 UNL     1      -3.238  40.295  11.806  1.00  0.00     0.117 C
ENDROOT
BRANCH   1  17
HETATM   17  C8  UNL     1      -1.981  41.648   7.482  1.00  0.00     0.003 C
HETATM   18  C7  UNL     1      -2.669  41.538   6.249  1.00  0.00     0.088 C
BRANCH  18  19
HETATM   19  N3  UNL     1      -3.657  40.571   5.893  1.00  0.00    -0.350 N
HETATM   20  C4  UNL     1      -4.640  40.501   4.902  1.00  0.00     0.062 A
HETATM   21  C3  UNL     1      -5.295  41.078   3.784  1.00  0.00     0.057 A
HETATM   22  C5  UNL     1      -5.085  39.333   5.341  1.00  0.00     0.070 A
HETATM   23  C2  UNL     1      -6.354  40.446   3.181  1.00  0.00     0.024 A
HETATM   24  C1  UNL     1      -6.988  41.108   2.019  1.00  0.00     0.070 C
HETATM   25  N2  UNL     1      -6.760  39.266   3.671  1.00  0.00    -0.305 N
HETATM   26  N1  UNL     1      -6.160  38.722   4.707  1.00  0.00    -0.301 N
ATOM     27  H2  UNL     1      -7.546  38.783   3.235  1.00  0.00     0.186 HD
ATOM     28  H1  UNL     1      -6.493  37.824   5.056  1.00  0.00     0.186 HD
HETATM   29  C6  UNL     1      -4.077  39.299   6.379  1.00  0.00     0.189 A
ENDBRANCH  18  19
ENDBRANCH   1  17
BRANCH   8  30
HETATM   30  N4  UNL     1      -0.057  42.090   9.364  1.00  0.00    -0.350 N
HETATM   31  C15 UNL     1       1.131  42.404  10.021  1.00  0.00     0.222 C
HETATM   32  O1  UNL     1       1.199  43.067  11.052  1.00  0.00    -0.273 OA
ATOM     33  H4  UNL     1       0.020  41.525   8.518  1.00  0.00     0.163 HD
BRANCH  31  34
HETATM   34  C16 UNL     1       2.465  41.933   9.493  1.00  0.00     0.078 A
HETATM   35  C17 UNL     1       2.537  41.069   8.286  1.00  0.00     0.015 A
HETATM   36  C18 UNL     1       2.690  40.435   9.608  1.00  0.00     0.015 A
ENDBRANCH  31  34
ENDBRANCH   8  30
BRANCH  10  37
HETATM   37  O2  UNL     1      -0.981  39.907  12.264  1.00  0.00    -0.390 OA
ATOM     38  H2  UNL     1      -0.504  39.135  11.983  1.00  0.00     0.210 HD
ENDBRANCH  10  37
TORSDOF 5
ENDMDL