MODEL 2
REMARK VINA RESULT: -8.201419346      3.183      6.782
REMARK  6 active torsions:
REMARK  status: ('A' for Active; 'I' for Inactive)
REMARK    1  A    between atoms: C2_2  and  C3_3
REMARK    2  A    between atoms: C3_3  and  C4_4
REMARK    3  A    between atoms: C3_3  and  N1_7
REMARK    4  A    between atoms: C4_4  and  O1_5
REMARK    5  A    between atoms: C16_26  and  N4_27
REMARK    6  A    between atoms: N4_27  and  C17_29
ROOT
HETATM    1  N1  UNL     1      -2.950  43.901   9.167  1.00  0.00     0.103 N
HETATM    2  C5  UNL     1      -2.900  43.926   7.732  1.00  0.00     0.314 C
HETATM    3  C6  UNL     1      -3.198  42.528   7.347  1.00  0.00     0.005 A
HETATM    4  C7  UNL     1      -3.648  41.992   6.126  1.00  0.00     0.081 A
HETATM    5  C8  UNL     1      -3.978  42.949   5.077  1.00  0.00     0.102 C
HETATM    6  N2  UNL     1      -4.271  43.729   4.261  1.00  0.00    -0.191 NA
HETATM    7  C9  UNL     1      -3.845  40.645   6.022  1.00  0.00     0.072 A
HETATM    8  C10 UNL     1      -4.393  40.045   4.827  1.00  0.00     0.076 A
HETATM    9  C11 UNL     1      -3.940  40.234   3.560  1.00  0.00     0.170 A
HETATM   10  F1  UNL     1      -2.754  40.866   3.331  1.00  0.00    -0.202 F
HETATM   11  C12 UNL     1      -4.586  39.718   2.431  1.00  0.00     0.159 A
HETATM   12  F2  UNL     1      -4.080  39.948   1.203  1.00  0.00    -0.203 F
HETATM   13  C13 UNL     1      -5.735  38.977   2.560  1.00  0.00     0.091 A
HETATM   14  C14 UNL     1      -6.212  38.768   3.829  1.00  0.00     0.159 A
HETATM   15  F3  UNL     1      -7.337  38.043   3.984  1.00  0.00    -0.203 F
HETATM   16  C15 UNL     1      -5.571  39.280   4.932  1.00  0.00     0.170 A
HETATM   17  F4  UNL     1      -6.049  39.087   6.180  1.00  0.00    -0.202 F
HETATM   18  N3  UNL     1      -3.599  39.857   7.126  1.00  0.00    -0.340 N
ATOM     19  H3  UNL     1      -3.752  38.853   7.035  1.00  0.00     0.167 HD
HETATM   20  C16 UNL     1      -3.176  40.315   8.298  1.00  0.00     0.110 A
HETATM   21  C23 UNL     1      -2.973  41.683   8.399  1.00  0.00     0.023 A
HETATM   22  C24 UNL     1      -2.509  42.558   9.510  1.00  0.00     0.316 C
ENDROOT
BRANCH   1  23
HETATM   23  C3  UNL     1      -2.079  44.904   9.690  1.00  0.00     0.246 C
BRANCH  23  24
HETATM   24  C2  UNL     1      -1.611  45.882   8.628  1.00  0.00     0.033 C
HETATM   25  C1  UNL     1      -1.983  47.275   9.111  1.00  0.00     0.007 C
ENDBRANCH  23  24
BRANCH  23  26
HETATM   26  C4  UNL     1      -0.848  44.276  10.277  1.00  0.00     0.199 C
BRANCH  26  27
HETATM   27  O1  UNL     1       0.320  44.596   9.605  1.00  0.00    -0.399 OA
ATOM     28  H1  UNL     1       1.080  44.677  10.170  1.00  0.00     0.209 HD
ENDBRANCH  26  27
ENDBRANCH  23  26
ENDBRANCH   1  23
BRANCH  20  29
HETATM   29  N4  UNL     1      -2.951  39.622   9.301  1.00  0.00    -0.371 N
ATOM     30  H4  UNL     1      -2.088  39.086   9.200  1.00  0.00     0.161 HD
BRANCH  29  31
HETATM   31  C17 UNL     1      -3.568  39.378  10.537  1.00  0.00     0.086 C
HETATM   32  C18 UNL     1      -2.662  39.733  11.721  1.00  0.00     0.055 C
HETATM   33  C19 UNL     1      -3.189  39.021  12.945  1.00  0.00     0.274 C
HETATM   34  N5  UNL     1      -4.605  39.300  13.097  1.00  0.00     0.084 N
HETATM   35  C20 UNL     1      -5.013  39.447  14.460  1.00  0.00     0.309 C
HETATM   36  C21 UNL     1      -5.003  40.407  12.263  1.00  0.00     0.274 C
HETATM   37  C22 UNL     1      -4.893  39.999  10.793  1.00  0.00     0.055 C
ENDBRANCH  29  31
ENDBRANCH  20  29
TORSDOF 6
ENDMDL