MODEL 2
REMARK VINA RESULT: -7.387612314      2.566      9.120
REMARK  6 active torsions:
REMARK  status: ('A' for Active; 'I' for Inactive)
REMARK       I    between atoms: C1_2  and  N1_3
REMARK       I    between atoms: C1_2  and  N3_12
REMARK    1  A    between atoms: N1_3  and  C2_5
REMARK    2  A    between atoms: N3_12  and  C5_14
REMARK    3  A    between atoms: N4_17  and  C7_18
REMARK    4  A    between atoms: C9_20  and  C10_21
REMARK    5  A    between atoms: C13_26  and  O4_27
REMARK    6  A    between atoms: O4_27  and  C14_28
ROOT
HETATM    1  C5  UNL     1      -3.407  42.136   8.178  1.00  0.00     0.195 C
HETATM    2  C6  UNL     1      -3.654  40.853   8.879  1.00  0.00     0.248 C
HETATM    3  O3  UNL     1      -4.184  39.846   8.383  1.00  0.00    -0.271 OA
HETATM    4  N4  UNL     1      -3.163  41.046  10.194  1.00  0.00    -0.312 N
HETATM    5  C18 UNL     1      -2.241  42.182  10.211  1.00  0.00     0.150 C
HETATM    6  C19 UNL     1      -2.088  42.512   8.769  1.00  0.00     0.076 A
HETATM    7  C20 UNL     1      -0.870  42.276   7.999  1.00  0.00     0.100 A
HETATM    8  C21 UNL     1      -1.305  43.679   8.342  1.00  0.00     0.256 A
HETATM    9  F3  UNL     1      -0.520  44.269   9.331  1.00  0.00    -0.205 F
HETATM   10  F4  UNL     1      -1.722  44.539   7.370  1.00  0.00    -0.205 F
ENDROOT
BRANCH   4  11
HETATM   11  C7  UNL     1      -3.500  40.271  11.348  1.00  0.00     0.082 A
HETATM   12  C8  UNL     1      -4.794  40.130  11.776  1.00  0.00     0.058 A
HETATM   13  C9  UNL     1      -5.159  39.392  12.882  1.00  0.00     0.018 A
HETATM   14  N5  UNL     1      -4.198  38.778  13.576  1.00  0.00    -0.338 N
HETATM   15  C13 UNL     1      -2.924  38.896  13.184  1.00  0.00     0.185 A
ATOM     16  H5  UNL     1      -4.433  38.224  14.399  1.00  0.00     0.168 HD
HETATM   17  C17 UNL     1      -2.516  39.624  12.087  1.00  0.00     0.194 A
HETATM   18  F2  UNL     1      -1.221  39.711  11.733  1.00  0.00    -0.199 F
BRANCH  13  19
HETATM   19  C10 UNL     1      -6.610  39.279  13.297  1.00  0.00     0.036 A
HETATM   20  C11 UNL     1      -7.082  40.407  14.250  1.00  0.00     0.011 A
HETATM   21  C12 UNL     1      -7.565  40.298  12.862  1.00  0.00     0.011 A
ENDBRANCH  13  19
BRANCH  15  22
HETATM   22  O4  UNL     1      -1.950  38.246  13.930  1.00  0.00    -0.328 OA
BRANCH  22  23
HETATM   23  C14 UNL     1      -2.194  37.348  14.978  1.00  0.00     0.131 A
HETATM   24  C15 UNL     1      -0.923  36.795  15.593  1.00  0.00     0.035 A
HETATM   25  C16 UNL     1      -1.918  35.915  14.879  1.00  0.00     0.035 A
ENDBRANCH  22  23
ENDBRANCH  15  22
ENDBRANCH   4  11
BRANCH   1  26
HETATM   26  N3  UNL     1      -3.462  42.062   6.757  1.00  0.00    -0.328 N
HETATM   27  C1  UNL     1      -3.924  43.108   5.919  1.00  0.00     0.324 C
HETATM   28  O1  UNL     1      -4.314  44.172   6.443  1.00  0.00    -0.247 OA
HETATM   29  N1  UNL     1      -3.959  42.984   4.512  1.00  0.00    -0.274 N
ATOM     30  H1  UNL     1      -3.677  43.792   3.958  1.00  0.00     0.174 HD
ATOM     31  H3  UNL     1      -3.150  41.199   6.312  1.00  0.00     0.165 HD
BRANCH  29  32
HETATM   32  C2  UNL     1      -4.323  41.923   3.878  1.00  0.00     0.234 A
HETATM   33  N2  UNL     1      -3.942  41.703   2.596  1.00  0.00    -0.327 N
HETATM   34  C3  UNL     1      -4.474  40.532   2.226  1.00  0.00     0.161 A
ATOM     35  H2  UNL     1      -3.360  42.313   2.022  1.00  0.00     0.169 HD
HETATM   36  C4  UNL     1      -5.185  40.039   3.295  1.00  0.00     0.248 A
HETATM   37  F1  UNL     1      -5.867  38.869   3.302  1.00  0.00    -0.176 F
HETATM   38  O2  UNL     1      -5.060  40.916   4.260  1.00  0.00    -0.250 OA
ENDBRANCH  29  32
ENDBRANCH   1  26
TORSDOF 6
ENDMDL