MODEL 3
REMARK VINA RESULT: -8.230671182      1.344      2.027
REMARK  6 active torsions:
REMARK  status: ('A' for Active; 'I' for Inactive)
REMARK    1  A    between atoms: C2_2  and  C3_3
REMARK    2  A    between atoms: C8_10  and  N1_11
REMARK    3  A    between atoms: N1_11  and  C9_12
REMARK    4  A    between atoms: N3_15  and  C10_16
REMARK    5  A    between atoms: C13_19  and  N4_20
REMARK    6  A    between atoms: C22_32  and  C23_33
ROOT
HETATM    1  C10 UNL     1      -3.713  39.363  11.642  1.00  0.00     0.125 C
HETATM    2  C11 UNL     1      -5.189  39.129  11.559  1.00  0.00     0.031 C
HETATM    3  C12 UNL     1      -5.832  38.729  12.839  1.00  0.00     0.038 C
HETATM    4  C13 UNL     1      -5.243  39.283  14.082  1.00  0.00     0.224 C
HETATM    5  C18 UNL     1      -4.376  40.462  13.804  1.00  0.00     0.057 C
HETATM    6  C19 UNL     1      -3.288  40.168  12.823  1.00  0.00     0.119 C
HETATM    7  C20 UNL     1      -2.123  39.495  13.411  1.00  0.00     0.066 C
HETATM    8  N5  UNL     1      -1.218  38.962  13.891  1.00  0.00    -0.197 NA
ENDROOT
BRANCH   1   9
HETATM    9  N3  UNL     1      -3.337  40.092  10.417  1.00  0.00    -0.294 N
HETATM   10  N2  UNL     1      -4.068  40.027   9.347  1.00  0.00    -0.271 N
HETATM   11  C9  UNL     1      -3.491  40.806   8.336  1.00  0.00     0.211 A
ATOM     12  H2  UNL     1      -4.930  39.491   9.255  1.00  0.00     0.190 HD
HETATM   13  C22 UNL     1      -2.348  41.345   8.892  1.00  0.00     0.105 A
HETATM   14  C21 UNL     1      -2.287  40.869  10.209  1.00  0.00     0.132 A
BRANCH  11  15
HETATM   15  N1  UNL     1      -3.938  40.939   7.234  1.00  0.00    -0.381 NA
BRANCH  15  16
HETATM   16  C8  UNL     1      -4.071  41.327   5.968  1.00  0.00     0.154 A
HETATM   17  C3  UNL     1      -4.536  40.426   4.995  1.00  0.00    -0.012 A
HETATM   18  C4  UNL     1      -4.703  40.766   3.689  1.00  0.00     0.052 A
HETATM   19  C5  UNL     1      -4.406  42.037   3.299  1.00  0.00     0.120 A
HETATM   20  F1  UNL     1      -4.567  42.394   1.985  1.00  0.00    -0.206 F
HETATM   21  C6  UNL     1      -3.949  42.958   4.200  1.00  0.00     0.088 A
HETATM   22  C7  UNL     1      -3.781  42.624   5.505  1.00  0.00     0.160 A
HETATM   23  F2  UNL     1      -3.330  43.527   6.403  1.00  0.00    -0.202 F
BRANCH  17  24
HETATM   24  C2  UNL     1      -4.848  39.041   5.471  1.00  0.00     0.037 C
HETATM   25  C1  UNL     1      -6.090  38.545   4.765  1.00  0.00     0.010 C
ENDBRANCH  17  24
ENDBRANCH  15  16
ENDBRANCH  11  15
BRANCH  13  26
HETATM   26  C23 UNL     1      -1.344  42.223   8.351  1.00  0.00     0.271 C
HETATM   27  N6  UNL     1      -1.108  43.530   8.804  1.00  0.00    -0.057 NA
HETATM   28  O1  UNL     1      -0.598  41.828   7.394  1.00  0.00    -0.271 OA
ENDBRANCH  13  26
ENDBRANCH   1   9
BRANCH   4  29
HETATM   29  N4  UNL     1      -4.507  38.321  14.875  1.00  0.00     0.099 N
HETATM   30  C14 UNL     1      -5.165  38.194  16.158  1.00  0.00     0.279 C
HETATM   31  C15 UNL     1      -4.896  36.799  16.676  1.00  0.00     0.111 C
HETATM   32  C16 UNL     1      -4.161  36.149  15.555  1.00  0.00     0.271 C
HETATM   33  F3  UNL     1      -2.793  36.377  15.746  1.00  0.00    -0.204 F
HETATM   34  F4  UNL     1      -4.449  34.829  15.373  1.00  0.00    -0.204 F
HETATM   35  C17 UNL     1      -4.580  36.991  14.344  1.00  0.00     0.351 C
ENDBRANCH   4  29
TORSDOF 6
ENDMDL