MODEL 3
REMARK VINA RESULT: -5.565545057      1.989      2.868
REMARK  2 active torsions:
REMARK  status: ('A' for Active; 'I' for Inactive)
REMARK    1  A    between atoms: N1_1  and  C1_5
REMARK    2  A    between atoms: C1_5  and  C2_6
ROOT
HETATM    1  C2  UNL     1       1.249  40.855 -10.623  1.00  0.00     0.106 C
HETATM    2  C3  UNL     1      -0.031  40.823 -11.396  1.00  0.00    -0.018 C
HETATM    3  C4  UNL     1      -0.708  39.718 -11.101  1.00  0.00    -0.024 C
HETATM    4  C5  UNL     1       0.059  38.917 -10.108  1.00  0.00     0.106 C
HETATM    5  C6  UNL     1       1.478  39.367 -10.393  1.00  0.00     0.255 C
HETATM    6  F1  UNL     1       1.893  38.723 -11.532  1.00  0.00    -0.205 F
HETATM    7  F2  UNL     1       2.317  39.148  -9.323  1.00  0.00    -0.205 F
ENDROOT
BRANCH   1   8
HETATM    8  C1  UNL     1       2.360  41.478 -11.436  1.00  0.00     0.244 C
BRANCH   8   9
HETATM    9  N1  UNL     1       1.794  41.852 -12.719  1.00  0.00    -0.079 N
ATOM     10  H13 UNL     1       1.725  41.069 -13.368  1.00  0.00     0.274 HD
ATOM     11  H12 UNL     1       0.799  42.069 -12.669  1.00  0.00     0.274 HD
ATOM     12  H11 UNL     1       2.354  42.623 -13.081  1.00  0.00     0.274 HD
ENDBRANCH   8   9
ENDBRANCH   1   8
TORSDOF 2
ENDMDL