MODEL 1
REMARK VINA RESULT: -5.483222794      0.000      0.000
REMARK  2 active torsions:
REMARK  status: ('A' for Active; 'I' for Inactive)
REMARK    1  A    between atoms: N1_1  and  C1_5
REMARK    2  A    between atoms: C5_10  and  C6_11
ROOT
HETATM    1  C1  UNL     1       0.074  39.210 -11.232  1.00  0.00     0.192 C
HETATM    2  C2  UNL     1       1.269  38.565 -10.545  1.00  0.00     0.070 C
HETATM    3  C3  UNL     1       1.750  39.779  -9.738  1.00  0.00     0.172 C
HETATM    4  F1  UNL     1       2.954  39.546  -9.140  1.00  0.00    -0.249 F
HETATM    5  C4  UNL     1       1.864  40.786 -10.880  1.00  0.00     0.046 C
HETATM    6  C5  UNL     1       0.634  40.493 -11.740  1.00  0.00     0.047 C
ENDROOT
BRANCH   1   7
HETATM    7  N1  UNL     1      -0.516  38.373 -12.228  1.00  0.00    -0.074 N
ATOM      8  H13 UNL     1      -0.705  37.442 -11.856  1.00  0.00     0.274 HD
ATOM      9  H12 UNL     1      -1.471  38.668 -12.432  1.00  0.00     0.274 HD
ATOM     10  H11 UNL     1       0.039  38.318 -13.082  1.00  0.00     0.274 HD
ENDBRANCH   1   7
BRANCH   6  11
HETATM   11  C6  UNL     1       1.132  40.393 -13.169  1.00  0.00     0.229 C
HETATM   12  F2  UNL     1       2.216  41.249 -13.274  1.00  0.00    -0.255 F
ENDBRANCH   6  11
TORSDOF 2
ENDMDL