MODEL 4
REMARK VINA RESULT: -4.749973542      1.118      1.745
REMARK  2 active torsions:
REMARK  status: ('A' for Active; 'I' for Inactive)
REMARK    1  A    between atoms: N2_8  and  C4_9
REMARK    2  A    between atoms: C4_9  and  C5_10
ROOT
HETATM    1  N1  UNL     1       2.123  39.747  -9.726  1.00  0.00    -0.387 N
ATOM      2  H11 UNL     1       2.960  40.261 -10.003  1.00  0.00     0.157 HD
ATOM      3  H12 UNL     1       2.621  39.525  -8.864  1.00  0.00     0.157 HD
HETATM    4  C1  UNL     1       0.982  39.479 -10.174  1.00  0.00     0.109 C
HETATM    5  C2  UNL     1      -0.225  38.738  -9.776  1.00  0.00     0.254 C
HETATM    6  F1  UNL     1      -0.073  37.692  -8.935  1.00  0.00    -0.239 F
HETATM    7  C3  UNL     1      -0.221  38.413 -11.285  1.00  0.00     0.169 C
HETATM    8  N2  UNL     1       0.294  39.787 -11.366  1.00  0.00    -0.363 N
ENDROOT
BRANCH   8   9
HETATM    9  C4  UNL     1       0.205  40.937 -12.198  1.00  0.00     0.155 C
BRANCH   9  10
HETATM   10  C5  UNL     1       1.403  40.947 -13.136  1.00  0.00     0.241 C
HETATM   11  F2  UNL     1       2.355  41.741 -12.517  1.00  0.00    -0.254 F
ENDBRANCH   9  10
ENDBRANCH   8   9
TORSDOF 2
ENDMDL