MODEL 5
REMARK VINA RESULT: -4.912876953      3.020      4.096
REMARK  2 active torsions:
REMARK  status: ('A' for Active; 'I' for Inactive)
REMARK    1  A    between atoms: C2_2  and  N1_3
REMARK    2  A    between atoms: N1_3  and  C3_5
ROOT
HETATM    1  C3  UNL     1       1.390  40.340 -11.227  1.00  0.00     0.013 A
HETATM    2  C4  UNL     1       0.672  40.085 -12.282  1.00  0.00     0.076 A
HETATM    3  C5  UNL     1       1.409  41.028 -13.108  1.00  0.00     0.268 A
HETATM    4  F1  UNL     1       0.670  42.050 -13.698  1.00  0.00    -0.201 F
HETATM    5  F2  UNL     1       2.175  40.301 -14.061  1.00  0.00    -0.201 F
HETATM    6  C6  UNL     1       2.185  41.335 -11.914  1.00  0.00     0.140 A
ENDROOT
BRANCH   1   7
HETATM    7  N1  UNL     1       1.388  39.849  -9.872  1.00  0.00    -0.393 N
ATOM      8  H1  UNL     1       1.406  40.516  -9.101  1.00  0.00     0.159 HD
BRANCH   7   9
HETATM    9  C2  UNL     1       1.361  38.440  -9.581  1.00  0.00     0.115 C
HETATM   10  C1  UNL     1      -0.103  38.139  -9.176  1.00  0.00     0.026 C
ENDBRANCH   7   9
ENDBRANCH   1   7
TORSDOF 2
ENDMDL