MODEL 3
REMARK VINA RESULT: -4.766410069      2.549      3.009
REMARK  2 active torsions:
REMARK  status: ('A' for Active; 'I' for Inactive)
REMARK    1  A    between atoms: N1_1  and  C1_5
REMARK    2  A    between atoms: C3_7  and  C4_8
ROOT
HETATM    1  C1  UNL     1       0.238  38.650 -11.257  1.00  0.00     0.218 C
HETATM    2  C2  UNL     1       1.419  38.976 -12.181  1.00  0.00     0.045 C
HETATM    3  C3  UNL     1       1.566  40.235 -11.357  1.00  0.00     0.052 C
HETATM    4  C5  UNL     1       0.065  40.172 -11.166  1.00  0.00     0.206 C
HETATM    5  F2  UNL     1      -0.344  40.513  -9.909  1.00  0.00    -0.247 F
ENDROOT
BRANCH   1   6
HETATM    6  N1  UNL     1      -0.784  37.963 -11.965  1.00  0.00    -0.072 N
ATOM      7  H13 UNL     1      -0.543  37.837 -12.947  1.00  0.00     0.274 HD
ATOM      8  H12 UNL     1      -0.837  36.981 -11.693  1.00  0.00     0.274 HD
ATOM      9  H11 UNL     1      -1.682  38.433 -11.855  1.00  0.00     0.274 HD
ENDBRANCH   1   6
BRANCH   3  10
HETATM   10  C4  UNL     1       2.080  41.431 -12.096  1.00  0.00     0.229 C
HETATM   11  F1  UNL     1       2.928  42.111 -11.213  1.00  0.00    -0.255 F
ENDBRANCH   3  10
TORSDOF 2
ENDMDL