MODEL 3
REMARK VINA RESULT: -4.846703106      2.021      2.289
REMARK  1 active torsions:
REMARK  status: ('A' for Active; 'I' for Inactive)
REMARK    1  A    between atoms: C3_3  and  N1_4
ROOT
HETATM    1  C1  UNL     1       2.416  41.728 -11.467  1.00  0.00     0.023 C
HETATM    2  C2  UNL     1       1.980  40.566 -10.975  1.00  0.00     0.021 A
HETATM    3  C3  UNL     1       1.514  39.138 -11.324  1.00  0.00     0.296 A
HETATM    4  C5  UNL     1       1.569  39.602  -9.938  1.00  0.00     0.300 A
HETATM    5  F1  UNL     1       2.626  39.135  -9.166  1.00  0.00    -0.198 F
HETATM    6  F2  UNL     1       0.469  39.957  -9.207  1.00  0.00    -0.198 F
ENDROOT
BRANCH   3   7
HETATM    7  N1  UNL     1       0.304  39.202 -12.117  1.00  0.00    -0.065 N
HETATM    8  C4  UNL     1      -0.654  38.183 -11.819  1.00  0.00     0.268 C
ATOM      9  H12 UNL     1      -0.123  40.125 -12.039  1.00  0.00     0.277 HD
ATOM     10  H11 UNL     1       0.530  39.198 -13.111  1.00  0.00     0.277 HD
ENDBRANCH   3   7
TORSDOF 1
ENDMDL