MODEL 5
REMARK VINA RESULT: -5.598581590      1.766      2.449
REMARK  2 active torsions:
REMARK  status: ('A' for Active; 'I' for Inactive)
REMARK    1  A    between atoms: C1_2  and  C2_5
REMARK    2  A    between atoms: C2_5  and  C3_6
ROOT
HETATM    1  C3  UNL     1       1.526  39.794 -11.675  1.00  0.00     0.035 A
HETATM    2  C4  UNL     1       2.124  40.600 -10.729  1.00  0.00     0.045 A
HETATM    3  C5  UNL     1       2.413  41.792 -11.343  1.00  0.00     0.109 A
HETATM    4  N1  UNL     1       2.000  41.700 -12.621  1.00  0.00    -0.312 N
ATOM      5  H1  UNL     1       2.081  42.431 -13.328  1.00  0.00     0.186 HD
HETATM    6  N2  UNL     1       1.480  40.518 -12.800  1.00  0.00    -0.305 N
ATOM      7  H2  UNL     1       1.090  40.188 -13.682  1.00  0.00     0.186 HD
ENDROOT
BRANCH   1   8
HETATM    8  C2  UNL     1       1.017  38.416 -11.562  1.00  0.00     0.176 C
BRANCH   8   9
HETATM    9  C1  UNL     1      -0.342  38.346 -10.924  1.00  0.00     0.393 C
HETATM   10  F1  UNL     1      -0.326  37.871  -9.650  1.00  0.00    -0.171 F
HETATM   11  F2  UNL     1      -1.111  37.466 -11.682  1.00  0.00    -0.171 F
HETATM   12  F3  UNL     1      -0.988  39.567 -10.935  1.00  0.00    -0.171 F
ENDBRANCH   8   9
ENDBRANCH   1   8
TORSDOF 2
ENDMDL