MODEL 1
REMARK VINA RESULT: -5.267759107      0.000      0.000
REMARK  1 active torsions:
REMARK  status: ('A' for Active; 'I' for Inactive)
REMARK    1  A    between atoms: C2_2  and  C3_3
ROOT
HETATM    1  C3  UNL     1       1.785  40.138 -10.537  1.00  0.00     0.134 C
HETATM    2  F1  UNL     1       2.639  39.729  -9.568  1.00  0.00    -0.240 F
HETATM    3  C4  UNL     1       1.413  38.998 -11.462  1.00  0.00     0.049 C
HETATM    4  C5  UNL     1       0.473  38.553 -10.331  1.00  0.00     0.044 C
HETATM    5  C6  UNL     1       0.337  40.055 -10.037  1.00  0.00     0.209 C
HETATM    6  F2  UNL     1      -0.581  40.574 -10.926  1.00  0.00    -0.246 F
ENDROOT
BRANCH   1   7
HETATM    7  C2  UNL     1       2.122  41.431 -11.217  1.00  0.00     0.042 C
HETATM    8  C1  UNL     1       1.921  41.246 -12.705  1.00  0.00     0.008 C
ENDBRANCH   1   7
TORSDOF 1
ENDMDL