MODEL 5
REMARK VINA RESULT: -4.980630536      1.548      2.418
REMARK  2 active torsions:
REMARK  status: ('A' for Active; 'I' for Inactive)
REMARK    1  A    between atoms: C2_2  and  C3_3
REMARK    2  A    between atoms: C3_3  and  N1_4
ROOT
HETATM    1  C1  UNL     1       0.649  41.372  -9.745  1.00  0.00     0.023 C
HETATM    2  C2  UNL     1       0.760  40.897 -11.185  1.00  0.00     0.051 A
HETATM    3  C4  UNL     1       1.744  39.837 -11.430  1.00  0.00     0.096 A
HETATM    4  C5  UNL     1       2.060  41.238 -11.927  1.00  0.00     0.253 A
HETATM    5  F1  UNL     1       2.933  42.021 -11.214  1.00  0.00    -0.205 F
HETATM    6  F2  UNL     1       2.024  41.383 -13.282  1.00  0.00    -0.205 F
ENDROOT
BRANCH   2   7
HETATM    7  C3  UNL     1      -0.456  41.098 -12.032  1.00  0.00     0.245 C
BRANCH   7   8
HETATM    8  N1  UNL     1      -1.544  40.207 -11.702  1.00  0.00    -0.078 N
ATOM      9  H13 UNL     1      -2.263  40.231 -12.426  1.00  0.00     0.274 HD
ATOM     10  H12 UNL     1      -1.251  39.234 -11.785  1.00  0.00     0.274 HD
ATOM     11  H11 UNL     1      -1.952  40.383 -10.784  1.00  0.00     0.274 HD
ENDBRANCH   7   8
ENDBRANCH   2   7
TORSDOF 2
ENDMDL