MODEL 1
REMARK VINA RESULT: -5.964518501      0.000      0.000
REMARK  2 active torsions:
REMARK  status: ('A' for Active; 'I' for Inactive)
REMARK    1  A    between atoms: N1_1  and  C1_5
REMARK    2  A    between atoms: C1_5  and  C2_6
ROOT
HETATM    1  C2  UNL     1       1.508  39.092 -10.435  1.00  0.00    -0.030 A
HETATM    2  C3  UNL     1       0.791  38.851 -11.591  1.00  0.00     0.012 A
HETATM    3  C4  UNL     1       0.766  39.766 -12.616  1.00  0.00     0.046 A
HETATM    4  C5  UNL     1       1.458  40.954 -12.524  1.00  0.00     0.154 A
HETATM    5  F1  UNL     1       1.400  41.825 -13.568  1.00  0.00    -0.203 F
HETATM    6  C6  UNL     1       2.177  41.207 -11.379  1.00  0.00     0.155 A
HETATM    7  F2  UNL     1       2.861  42.371 -11.275  1.00  0.00    -0.203 F
HETATM    8  C7  UNL     1       2.188  40.276 -10.361  1.00  0.00     0.054 A
ENDROOT
BRANCH   1   9
HETATM    9  C1  UNL     1       1.482  38.062  -9.386  1.00  0.00     0.268 C
BRANCH   9  10
HETATM   10  N1  UNL     1       2.781  37.716  -8.892  1.00  0.00    -0.075 N
ATOM     11  H13 UNL     1       3.403  37.464  -9.660  1.00  0.00     0.274 HD
ATOM     12  H12 UNL     1       3.267  38.542  -8.544  1.00  0.00     0.274 HD
ATOM     13  H11 UNL     1       2.765  36.982  -8.185  1.00  0.00     0.274 HD
ENDBRANCH   9  10
ENDBRANCH   1   9
TORSDOF 2
ENDMDL