MODEL 3
REMARK VINA RESULT: -7.260581026      1.974      3.596
REMARK  8 active torsions:
REMARK  status: ('A' for Active; 'I' for Inactive)
REMARK    1  A    between atoms: C2_2  and  N1_3
REMARK    2  A    between atoms: C4_7  and  N3_8
REMARK    3  A    between atoms: N4_10  and  N5_12
REMARK    4  A    between atoms: N5_12  and  C5_14
REMARK    5  A    between atoms: C6_15  and  O1_16
REMARK    6  A    between atoms: N7_22  and  C9_23
REMARK    7  A    between atoms: N10_28  and  N11_29
REMARK    8  A    between atoms: C11_32  and  N12_33
ROOT
HETATM    1  C5  UNL     1     116.159  56.975  19.684  1.00  0.00     0.184 A
HETATM    2  C6  UNL     1     115.125  57.068  20.621  1.00  0.00     0.193 A
HETATM    3  N6  UNL     1     114.923  58.405  20.806  1.00  0.00    -0.281 N
HETATM    4  C7  UNL     1     113.930  58.953  21.710  1.00  0.00     0.163 C
HETATM    5  C8  UNL     1     115.794  59.071  20.020  1.00  0.00     0.337 A
HETATM    6  O2  UNL     1     115.879  60.318  19.946  1.00  0.00    -0.246 OA
HETATM    7  N7  UNL     1     116.548  58.207  19.333  1.00  0.00    -0.237 N
ENDROOT
BRANCH   1   8
HETATM    8  N5  UNL     1     116.667  55.746  19.217  1.00  0.00    -0.267 N
ATOM      9  H5  UNL     1     116.663  55.536  18.219  1.00  0.00     0.190 HD
BRANCH   8  10
HETATM   10  N4  UNL     1     117.171  54.825  20.118  1.00  0.00    -0.240 N
HETATM   11  N3  UNL     1     116.768  53.659  20.305  1.00  0.00    -0.273 N
ATOM     12  H3  UNL     1     117.263  53.120  21.016  1.00  0.00     0.190 HD
ATOM     13  H4  UNL     1     117.956  55.132  20.692  1.00  0.00     0.208 HD
BRANCH  11  14
HETATM   14  C4  UNL     1     115.709  52.999  19.648  1.00  0.00     0.123 C
HETATM   15  N2  UNL     1     114.462  53.219  19.870  1.00  0.00    -0.352 N
HETATM   16  C3  UNL     1     113.628  52.379  19.033  1.00  0.00     0.397 C
ATOM     17  H2  UNL     1     114.107  53.896  20.545  1.00  0.00     0.162 HD
HETATM   18  N1  UNL     1     114.501  51.329  18.625  1.00  0.00     0.112 N
HETATM   19  C12 UNL     1     115.796  51.936  18.590  1.00  0.00     0.351 C
BRANCH  18  20
HETATM   20  C2  UNL     1     114.110  50.573  17.492  1.00  0.00     0.270 C
HETATM   21  C1  UNL     1     115.182  50.208  16.523  1.00  0.00     0.037 C
ENDBRANCH  18  20
ENDBRANCH  11  14
ENDBRANCH   8  10
ENDBRANCH   1   8
BRANCH   2  22
HETATM   22  O1  UNL     1     114.436  56.046  21.243  1.00  0.00    -0.343 OA
ATOM     23  H1  UNL     1     114.593  55.110  21.188  1.00  0.00     0.219 HD
ENDBRANCH   2  22
BRANCH   7  24
HETATM   24  C9  UNL     1     117.556  58.530  18.421  1.00  0.00     0.135 A
HETATM   25  C10 UNL     1     117.431  58.911  17.076  1.00  0.00     0.164 A
HETATM   26  N8  UNL     1     116.161  59.026  16.429  1.00  0.00    -0.079 NA
HETATM   27  N9  UNL     1     118.660  59.116  16.613  1.00  0.00    -0.263 N
HETATM   28  N10 UNL     1     119.564  58.901  17.541  1.00  0.00    -0.183 N
ATOM     29  H9  UNL     1     118.874  59.404  15.658  1.00  0.00     0.190 HD
HETATM   30  C11 UNL     1     118.919  58.542  18.656  1.00  0.00     0.169 A
BRANCH  28  31
HETATM   31  N11 UNL     1     120.943  59.027  17.370  1.00  0.00    -0.322 N
ATOM     32 2H11 UNL     1     121.658  58.993  18.096  1.00  0.00     0.179 HD
ATOM     33 1H11 UNL     1     121.417  59.167  16.477  1.00  0.00     0.179 HD
ENDBRANCH  28  31
BRANCH  30  34
HETATM   34  N12 UNL     1     119.504  58.255  19.765  1.00  0.00    -0.381 N
ATOM     35 2H12 UNL     1     120.513  58.300  19.906  1.00  0.00     0.157 HD
ATOM     36 1H12 UNL     1     119.051  57.953  20.627  1.00  0.00     0.157 HD
ENDBRANCH  30  34
ENDBRANCH   7  24
TORSDOF 8
ENDMDL