MODEL 4
REMARK VINA RESULT: -6.320606636      2.338      3.180
REMARK  7 active torsions:
REMARK  status: ('A' for Active; 'I' for Inactive)
REMARK    1  A    between atoms: O1_2  and  C2_3
REMARK    2  A    between atoms: C2_3  and  S1_4
REMARK    3  A    between atoms: S1_4  and  C3_5
REMARK    4  A    between atoms: C4_9  and  O2_10
REMARK    5  A    between atoms: C4_9  and  C6_12
REMARK    6  A    between atoms: C6_12  and  O4_14
REMARK    7  A    between atoms: O4_14  and  N2_15
ROOT
HETATM    1  C3  UNL     1     117.652  56.374  18.674  1.00  0.00     0.324 C
HETATM    2  N1  UNL     1     116.904  57.105  17.632  1.00  0.00    -0.013 N
ATOM      3  H11 UNL     1     116.301  57.826  18.026  1.00  0.00     0.283 HD
ATOM      4  H12 UNL     1     116.180  56.529  17.201  1.00  0.00     0.283 HD
HETATM    5  C4  UNL     1     117.851  57.649  16.638  1.00  0.00     0.318 C
HETATM    6  C7  UNL     1     119.154  58.066  17.274  1.00  0.00     0.087 C
HETATM    7  C8  UNL     1     118.968  58.508  18.707  1.00  0.00     0.087 C
HETATM    8  C9  UNL     1     118.288  57.421  19.475  1.00  0.00     0.167 C
HETATM    9  O5  UNL     1     118.315  57.488  20.672  1.00  0.00    -0.295 OA
ENDROOT
BRANCH   1  10
HETATM   10  S1  UNL     1     116.806  55.056  19.403  1.00  0.00    -0.070 SA
BRANCH  10  11
HETATM   11  C2  UNL     1     116.312  53.633  18.511  1.00  0.00     0.218 C
HETATM   12  C10 UNL     1     116.768  53.645  17.044  1.00  0.00     0.192 C
HETATM   13  N3  UNL     1     116.074  52.555  16.388  1.00  0.00    -0.358 N
HETATM   14  C11 UNL     1     116.081  51.426  17.052  1.00  0.00     0.200 C
ATOM     15  H3  UNL     1     115.617  52.658  15.482  1.00  0.00     0.162 HD
HETATM   16  N4  UNL     1     115.426  50.301  16.487  1.00  0.00    -0.062 NA
HETATM   17  N5  UNL     1     116.745  51.376  18.312  1.00  0.00    -0.274 N
HETATM   18  N6  UNL     1     117.034  52.480  19.094  1.00  0.00    -0.086 NA
ATOM     19  H5  UNL     1     117.028  50.460  18.662  1.00  0.00     0.185 HD
BRANCH  11  20
HETATM   20  O1  UNL     1     114.973  53.261  18.593  1.00  0.00    -0.357 OA
HETATM   21  C1  UNL     1     114.519  53.525  19.890  1.00  0.00     0.205 C
ENDBRANCH  11  20
ENDBRANCH  10  11
ENDBRANCH   1  10
BRANCH   5  22
HETATM   22  O2  UNL     1     117.983  56.687  15.690  1.00  0.00    -0.352 OA
HETATM   23  C5  UNL     1     119.223  56.292  15.309  1.00  0.00     0.205 C
ENDBRANCH   5  22
BRANCH   5  24
HETATM   24  C6  UNL     1     117.232  58.880  16.091  1.00  0.00     0.344 C
HETATM   25  O3  UNL     1     116.138  59.290  16.550  1.00  0.00    -0.258 OA
BRANCH  24  26
HETATM   26  O4  UNL     1     117.804  59.627  15.074  1.00  0.00    -0.202 OA
BRANCH  26  27
HETATM   27  N2  UNL     1     117.714  59.171  13.782  1.00  0.00    -0.302 N
ATOM     28  H22 UNL     1     116.833  58.782  13.447  1.00  0.00     0.184 HD
ATOM     29  H21 UNL     1     118.535  59.231  13.179  1.00  0.00     0.184 HD
ENDBRANCH  26  27
ENDBRANCH  24  26
ENDBRANCH   5  24
TORSDOF 7
ENDMDL