MODEL 2
REMARK VINA RESULT: -7.423049183      2.608      7.165
REMARK  11 active torsions:
REMARK  status: ('A' for Active; 'I' for Inactive)
REMARK    1  A    between atoms: N2_3  and  C2_5
REMARK    2  A    between atoms: C3_8  and  C4_9
REMARK    3  A    between atoms: C4_9  and  O1_10
REMARK    4  A    between atoms: C4_9  and  O2_12
REMARK    5  A    between atoms: C5_14  and  C6_15
REMARK    6  A    between atoms: C6_15  and  O3_16
REMARK    7  A    between atoms: C6_15  and  N4_18
REMARK    8  A    between atoms: N4_18  and  O4_20
REMARK    9  A    between atoms: O4_20  and  C7_21
REMARK   10  A    between atoms: C7_21  and  C8_23
REMARK   11  A    between atoms: C9_29  and  N7_30
ROOT
HETATM    1  N1  UNL     1     118.556  57.902  16.639  1.00  0.00    -0.172 NA
HETATM    2  C1  UNL     1     118.506  57.844  17.793  1.00  0.00     0.183 C
HETATM    3  N2  UNL     1     118.419  57.769  19.205  1.00  0.00    -0.273 N
ATOM      4  H2  UNL     1     119.186  58.066  19.808  1.00  0.00     0.180 HD
ENDROOT
BRANCH   3   5
HETATM    5  C2  UNL     1     117.290  57.292  19.697  1.00  0.00     0.159 A
HETATM    6  N3  UNL     1     116.225  57.934  20.128  1.00  0.00    -0.334 N
HETATM    7  C3  UNL     1     115.184  57.242  20.558  1.00  0.00     0.088 A
ATOM      8  H3  UNL     1     116.203  58.954  20.130  1.00  0.00     0.168 HD
HETATM    9  C5  UNL     1     115.252  55.888  20.535  1.00  0.00     0.088 A
HETATM   10  S1  UNL     1     116.869  55.668  19.880  1.00  0.00    -0.047 SA
BRANCH   7  11
HETATM   11  C4  UNL     1     113.987  57.982  21.168  1.00  0.00     0.306 C
BRANCH  11  12
HETATM   12  O1  UNL     1     113.985  57.711  22.566  1.00  0.00    -0.366 OA
ATOM     13  H1  UNL     1     114.325  58.481  23.006  1.00  0.00     0.213 HD
ENDBRANCH  11  12
BRANCH  11  14
HETATM   14  O2  UNL     1     114.045  59.312  20.975  1.00  0.00    -0.366 OA
ATOM     15  H2  UNL     1     113.208  59.682  20.719  1.00  0.00     0.213 HD
ENDBRANCH  11  14
ENDBRANCH   7  11
BRANCH   9  16
HETATM   16  C6  UNL     1     114.342  54.795  20.872  1.00  0.00     0.180 C
BRANCH  16  17
HETATM   17  O3  UNL     1     113.456  55.092  21.785  1.00  0.00    -0.344 OA
ATOM     18  H3  UNL     1     113.670  54.782  22.656  1.00  0.00     0.219 HD
ENDBRANCH  16  17
BRANCH  16  19
HETATM   19  N4  UNL     1     114.285  53.503  20.378  1.00  0.00    -0.234 N
ATOM     20  H4  UNL     1     114.046  52.740  21.011  1.00  0.00     0.197 HD
BRANCH  19  21
HETATM   21  O4  UNL     1     114.547  53.215  19.033  1.00  0.00    -0.191 OA
BRANCH  21  22
HETATM   22  C7  UNL     1     115.397  52.193  18.718  1.00  0.00     0.337 C
HETATM   23  O5  UNL     1     116.597  52.225  19.135  1.00  0.00    -0.255 OA
BRANCH  22  24
HETATM   24  C8  UNL     1     115.002  51.036  17.908  1.00  0.00     0.178 A
HETATM   25  N5  UNL     1     113.910  50.252  18.144  1.00  0.00    -0.232 N
HETATM   26  O6  UNL     1     113.880  49.339  17.231  1.00  0.00    -0.155 OA
ATOM     27  H5  UNL     1     113.239  50.366  18.904  1.00  0.00     0.197 HD
HETATM   28  N6  UNL     1     114.863  49.452  16.406  1.00  0.00    -0.224 N
HETATM   29  C9  UNL     1     115.602  50.517  16.796  1.00  0.00     0.156 A
ATOM     30  H6  UNL     1     115.049  48.850  15.604  1.00  0.00     0.198 HD
BRANCH  29  31
HETATM   31  N7  UNL     1     116.653  50.916  16.202  1.00  0.00    -0.382 N
ATOM     32  H72 UNL     1     117.376  51.489  16.636  1.00  0.00     0.157 HD
ATOM     33  H71 UNL     1     116.944  50.744  15.240  1.00  0.00     0.157 HD
ENDBRANCH  29  31
ENDBRANCH  22  24
ENDBRANCH  21  22
ENDBRANCH  19  21
ENDBRANCH  16  19
ENDBRANCH   9  16
ENDBRANCH   3   5
TORSDOF 11
ENDMDL