MODEL 3
REMARK VINA RESULT: -6.395883349      1.971      4.164
REMARK  7 active torsions:
REMARK  status: ('A' for Active; 'I' for Inactive)
REMARK       I    between atoms: N1_2  and  C2_4
REMARK       I    between atoms: C2_4  and  N3_9
REMARK    1  A    between atoms: N2_5  and  O1_7
REMARK    2  A    between atoms: N3_9  and  O2_10
REMARK       I    between atoms: N3_9  and  C8_31
REMARK    3  A    between atoms: O2_10  and  C3_11
REMARK    4  A    between atoms: C5_16  and  N6_17
REMARK    5  A    between atoms: N7_20  and  C6_21
REMARK    6  A    between atoms: C7_27  and  N10_28
REMARK    7  A    between atoms: C8_31  and  O5_33
ROOT
HETATM    1  C3  UNL     1     117.430  55.591  17.048  1.00  0.00     0.287 A
HETATM    2  N4  UNL     1     117.767  55.527  15.749  1.00  0.00    -0.246 N
ATOM      3  H4  UNL     1     118.076  54.683  15.269  1.00  0.00     0.191 HD
HETATM    4  N5  UNL     1     117.642  56.702  15.188  1.00  0.00    -0.125 N
HETATM    5  C4  UNL     1     117.892  57.110  13.818  1.00  0.00     0.197 C
HETATM    6  C5  UNL     1     117.220  57.538  16.135  1.00  0.00     0.704 A
HETATM    7  N7  UNL     1     117.086  56.863  17.285  1.00  0.00    -0.085 N
ENDROOT
BRANCH   1   8
HETATM    8  O2  UNL     1     117.440  54.524  17.965  1.00  0.00    -0.172 OA
BRANCH   8   9
HETATM    9  N3  UNL     1     116.507  53.504  17.935  1.00  0.00     0.023 N
HETATM   10  C2  UNL     1     115.430  53.517  18.866  1.00  0.00     0.729 C
HETATM   11  N1  UNL     1     115.241  54.506  19.864  1.00  0.00    -0.227 N
HETATM   12  N2  UNL     1     114.527  52.565  18.845  1.00  0.00    -0.097 N
HETATM   13  C1  UNL     1     116.240  54.569  20.908  1.00  0.00     0.165 C
ATOM     14  H1  UNL     1     114.442  55.141  19.847  1.00  0.00     0.177 HD
ATOM     15  H2  UNL     1     114.617  51.829  18.145  1.00  0.00     0.213 HD
HETATM   16  C8  UNL     1     116.587  52.438  17.006  1.00  0.00     0.406 C
HETATM   17  O4  UNL     1     117.533  52.423  16.189  1.00  0.00    -0.235 OA
BRANCH  12  18
HETATM   18  O1  UNL     1     113.486  52.509  19.704  1.00  0.00    -0.276 OA
ATOM     19  H1  UNL     1     113.194  51.706  20.119  1.00  0.00     0.245 HD
ENDBRANCH  12  18
BRANCH  16  20
HETATM   20  O5  UNL     1     115.659  51.422  16.975  1.00  0.00    -0.307 OA
HETATM   21  C9  UNL     1     115.907  50.191  16.279  1.00  0.00     0.215 C
ENDBRANCH  16  20
ENDBRANCH   8   9
ENDBRANCH   1   8
BRANCH   7  22
HETATM   22  C6  UNL     1     116.654  57.428  18.540  1.00  0.00     0.200 A
HETATM   23  N8  UNL     1     115.403  57.622  18.985  1.00  0.00    -0.221 N
HETATM   24  O3  UNL     1     115.486  58.155  20.174  1.00  0.00    -0.153 OA
ATOM     25  H8  UNL     1     114.543  57.395  18.486  1.00  0.00     0.198 HD
HETATM   26  N9  UNL     1     116.714  58.323  20.536  1.00  0.00    -0.222 N
HETATM   27  C7  UNL     1     117.493  57.872  19.523  1.00  0.00     0.168 A
ATOM     28  H9  UNL     1     117.036  58.719  21.418  1.00  0.00     0.198 HD
BRANCH  27  29
HETATM   29  N10 UNL     1     118.780  57.843  19.452  1.00  0.00    -0.381 N
ATOM     30 2H10 UNL     1     119.380  57.100  19.096  1.00  0.00     0.157 HD
ATOM     31 1H10 UNL     1     119.391  58.601  19.758  1.00  0.00     0.157 HD
ENDBRANCH  27  29
ENDBRANCH   7  22
BRANCH   6  32
HETATM   32  N6  UNL     1     116.974  58.823  15.966  1.00  0.00    -0.232 N
ATOM     33  H62 UNL     1     117.615  59.501  15.556  1.00  0.00     0.174 HD
ATOM     34  H61 UNL     1     116.110  59.298  16.226  1.00  0.00     0.174 HD
ENDBRANCH   6  32
TORSDOF 7
ENDMDL