MODEL 5
REMARK VINA RESULT: -6.138142698      4.092      6.804
REMARK  7 active torsions:
REMARK  status: ('A' for Active; 'I' for Inactive)
REMARK    1  A    between atoms: N1_1  and  C1_4
REMARK    2  A    between atoms: C4_9  and  N3_10
REMARK    3  A    between atoms: C5_11  and  C6_12
REMARK    4  A    between atoms: C7_25  and  N10_26
REMARK    5  A    between atoms: C8_29  and  C9_30
REMARK    6  A    between atoms: N11_31  and  N12_33
REMARK    7  A    between atoms: N12_33  and  C10_35
ROOT
HETATM    1  C1  UNL     1     115.061  57.601  21.120  1.00  0.00     0.112 A
HETATM    2  N2  UNL     1     114.936  58.821  21.753  1.00  0.00    -0.352 N
ATOM      3  H2  UNL     1     114.296  58.892  22.545  1.00  0.00     0.166 HD
HETATM    4  C2  UNL     1     115.608  59.909  21.386  1.00  0.00     0.092 A
HETATM    5  C3  UNL     1     116.470  59.800  20.314  1.00  0.00     0.049 A
HETATM    6  C4  UNL     1     116.617  58.590  19.657  1.00  0.00     0.075 A
HETATM    7  C8  UNL     1     115.915  57.467  20.046  1.00  0.00     0.052 A
ENDROOT
BRANCH   6   8
HETATM    8  N3  UNL     1     117.513  58.532  18.565  1.00  0.00    -0.125 N
HETATM    9  C5  UNL     1     118.871  58.523  18.696  1.00  0.00     0.191 A
HETATM   10  N8  UNL     1     119.348  58.464  17.444  1.00  0.00    -0.267 N
HETATM   11  N9  UNL     1     118.362  58.438  16.565  1.00  0.00    -0.130 N
ATOM     12  H8  UNL     1     120.339  58.441  17.203  1.00  0.00     0.189 HD
HETATM   13  C7  UNL     1     117.207  58.481  17.253  1.00  0.00     0.699 A
ATOM     14  H9  UNL     1     118.458  58.393  15.551  1.00  0.00     0.205 HD
BRANCH   9  15
HETATM   15  C6  UNL     1     119.607  58.567  19.954  1.00  0.00     0.184 A
HETATM   16  N4  UNL     1     119.308  58.016  21.136  1.00  0.00    -0.266 N
HETATM   17  N5  UNL     1     120.271  58.325  21.987  1.00  0.00    -0.226 N
ATOM     18  H4  UNL     1     118.481  57.456  21.345  1.00  0.00     0.190 HD
HETATM   19  N6  UNL     1     121.160  59.056  21.361  1.00  0.00    -0.226 N
ATOM     20  H5  UNL     1     120.314  58.042  22.967  1.00  0.00     0.210 HD
HETATM   21  N7  UNL     1     120.766  59.212  20.115  1.00  0.00    -0.266 N
ATOM     22  H6  UNL     1     122.013  59.439  21.769  1.00  0.00     0.210 HD
ATOM     23  H7  UNL     1     121.261  59.736  19.393  1.00  0.00     0.190 HD
ENDBRANCH   9  15
BRANCH  13  24
HETATM   24  N10 UNL     1     115.986  58.475  16.797  1.00  0.00    -0.233 N
ATOM     25 2H10 UNL     1     115.468  59.233  16.354  1.00  0.00     0.174 HD
ATOM     26 1H10 UNL     1     115.375  57.660  16.833  1.00  0.00     0.174 HD
ENDBRANCH  13  24
ENDBRANCH   6   8
BRANCH   7  27
HETATM   27  C9  UNL     1     116.106  56.240  19.331  1.00  0.00     0.124 C
HETATM   28  N11 UNL     1     116.689  55.176  19.696  1.00  0.00    -0.308 N
ATOM     29  H11 UNL     1     117.089  55.166  20.634  1.00  0.00     0.186 HD
BRANCH  28  30
HETATM   30  N12 UNL     1     116.833  54.031  18.946  1.00  0.00    -0.272 N
ATOM     31  H12 UNL     1     117.674  53.934  18.377  1.00  0.00     0.190 HD
BRANCH  30  32
HETATM   32  C10 UNL     1     115.877  52.970  18.916  1.00  0.00     0.190 C
HETATM   33  N13 UNL     1     114.709  52.973  19.466  1.00  0.00    -0.360 N
HETATM   34  C11 UNL     1     114.015  51.732  19.232  1.00  0.00     0.142 C
ATOM     35  H13 UNL     1     114.326  53.754  19.999  1.00  0.00     0.162 HD
HETATM   36  C12 UNL     1     114.805  51.057  18.118  1.00  0.00     0.142 C
HETATM   37  N14 UNL     1     116.095  51.728  18.252  1.00  0.00    -0.360 N
ATOM     38  H14 UNL     1     116.994  51.371  17.928  1.00  0.00     0.162 HD
ENDBRANCH  30  32
ENDBRANCH  28  30
ENDBRANCH   7  27
BRANCH   1  39
HETATM   39  N1  UNL     1     114.357  56.664  21.586  1.00  0.00    -0.385 N
ATOM     40  H12 UNL     1     114.031  56.620  22.551  1.00  0.00     0.157 HD
ATOM     41  H11 UNL     1     114.116  55.919  20.932  1.00  0.00     0.157 HD
ENDBRANCH   1  39
TORSDOF 7
ENDMDL