MODEL 5
REMARK VINA RESULT: -7.292757657      3.705      5.814
REMARK  10 active torsions:
REMARK  status: ('A' for Active; 'I' for Inactive)
REMARK    1  A    between atoms: O1_2  and  C2_3
REMARK    2  A    between atoms: C2_3  and  C3_5
REMARK    3  A    between atoms: C4_7  and  N1_8
REMARK    4  A    between atoms: N2_10  and  N3_12
REMARK    5  A    between atoms: N3_12  and  C5_14
REMARK    6  A    between atoms: C6_17  and  N5_18
REMARK    7  A    between atoms: C7_23  and  O4_24
REMARK    8  A    between atoms: O4_24  and  N7_25
REMARK    9  A    between atoms: C8_28  and  O5_29
REMARK   10  A    between atoms: C10_35  and  O7_36
ROOT
HETATM    1  C5  UNL     1     117.263  56.066  14.906  1.00  0.00     0.190 C
HETATM    2  N4  UNL     1     117.428  55.989  13.575  1.00  0.00    -0.171 N
ATOM      3  H4  UNL     1     117.215  55.076  13.175  1.00  0.00     0.186 HD
HETATM    4  C6  UNL     1     117.829  56.915  12.672  1.00  0.00     0.679 C
HETATM    5  N6  UNL     1     117.971  58.234  12.877  1.00  0.00    -0.166 N
ATOM      6  H6  UNL     1     118.205  58.778  12.047  1.00  0.00     0.186 HD
HETATM    7  C7  UNL     1     117.851  58.957  14.025  1.00  0.00     0.221 C
HETATM    8  C8  UNL     1     117.574  58.521  15.289  1.00  0.00     0.174 C
HETATM    9  C9  UNL     1     117.248  57.213  15.664  1.00  0.00     0.255 C
HETATM   10  O6  UNL     1     116.902  57.148  16.870  1.00  0.00    -0.281 OA
ENDROOT
BRANCH   1  11
HETATM   11  N3  UNL     1     117.099  54.984  15.571  1.00  0.00    -0.267 N
ATOM     12  H3  UNL     1     116.358  54.917  16.270  1.00  0.00     0.190 HD
BRANCH  11  13
HETATM   13  N2  UNL     1     117.941  53.901  15.333  1.00  0.00    -0.238 N
HETATM   14  N1  UNL     1     117.924  52.828  16.011  1.00  0.00    -0.250 N
ATOM     15  H1  UNL     1     118.569  52.072  15.783  1.00  0.00     0.192 HD
ATOM     16  H2  UNL     1     118.611  53.974  14.567  1.00  0.00     0.208 HD
BRANCH  14  17
HETATM   17  C4  UNL     1     117.006  52.679  17.089  1.00  0.00     0.247 A
HETATM   18  O3  UNL     1     116.596  53.582  17.939  1.00  0.00    -0.267 OA
HETATM   19  C3  UNL     1     115.755  53.105  18.797  1.00  0.00     0.204 A
HETATM   20  C10 UNL     1     115.582  51.771  18.503  1.00  0.00     0.184 A
HETATM   21  N8  UNL     1     116.371  51.524  17.434  1.00  0.00    -0.299 N
ATOM     22  H8  UNL     1     116.474  50.624  16.965  1.00  0.00     0.171 HD
BRANCH  19  23
HETATM   23  C2  UNL     1     115.076  53.802  19.901  1.00  0.00     0.321 C
HETATM   24  O2  UNL     1     113.905  53.495  20.244  1.00  0.00    -0.257 OA
BRANCH  23  25
HETATM   25  O1  UNL     1     115.700  54.824  20.605  1.00  0.00    -0.321 OA
HETATM   26  C1  UNL     1     115.634  56.148  20.110  1.00  0.00     0.213 C
ENDBRANCH  23  25
ENDBRANCH  19  23
BRANCH  20  27
HETATM   27  O7  UNL     1     114.790  50.811  19.117  1.00  0.00    -0.344 OA
ATOM     28  H7  UNL     1     115.029  49.994  19.539  1.00  0.00     0.219 HD
ENDBRANCH  20  27
ENDBRANCH  14  17
ENDBRANCH  11  13
ENDBRANCH   1  11
BRANCH   4  29
HETATM   29  N5  UNL     1     118.113  56.536  11.482  1.00  0.00    -0.234 N
ATOM     30  H52 UNL     1     117.476  56.891  10.768  1.00  0.00     0.174 HD
ATOM     31  H51 UNL     1     118.920  55.930  11.337  1.00  0.00     0.174 HD
ENDBRANCH   4  29
BRANCH   8  32
HETATM   32  O5  UNL     1     117.621  59.469  16.302  1.00  0.00    -0.353 OA
ATOM     33  H5  UNL     1     118.330  59.390  16.930  1.00  0.00     0.218 HD
ENDBRANCH   8  32
BRANCH   7  34
HETATM   34  O4  UNL     1     118.039  60.316  13.869  1.00  0.00    -0.223 OA
BRANCH  34  35
HETATM   35  N7  UNL     1     119.208  60.970  14.074  1.00  0.00    -0.303 N
ATOM     36  H72 UNL     1     119.657  61.365  13.248  1.00  0.00     0.184 HD
ATOM     37  H71 UNL     1     119.661  61.093  14.980  1.00  0.00     0.184 HD
ENDBRANCH  34  35
ENDBRANCH   7  34
TORSDOF 10
ENDMDL