MODEL 3
REMARK VINA RESULT: -7.859666289      1.123      1.254
REMARK  6 active torsions:
REMARK  status: ('A' for Active; 'I' for Inactive)
REMARK    1  A    between atoms: C2_3  and  C3_4
REMARK    2  A    between atoms: N3_7  and  C4_8
REMARK    3  A    between atoms: C7_13  and  N5_14
REMARK    4  A    between atoms: C8_17  and  N6_18
REMARK    5  A    between atoms: C9_23  and  C10_24
REMARK       I    between atoms: C10_24  and  N8_26
REMARK    6  A    between atoms: N8_26  and  N9_28
ROOT
HETATM    1  C3  UNL     1     116.423  56.944  19.604  1.00  0.00     0.130 A
HETATM    2  N2  UNL     1     116.346  55.644  19.403  1.00  0.00    -0.288 N
ATOM      3  H2  UNL     1     116.929  55.127  18.746  1.00  0.00     0.187 HD
HETATM    4  N3  UNL     1     115.400  55.090  20.177  1.00  0.00    -0.242 N
HETATM    5  C7  UNL     1     114.855  56.059  20.893  1.00  0.00     0.154 A
HETATM    6  C8  UNL     1     115.450  57.234  20.580  1.00  0.00     0.179 A
ENDROOT
BRANCH   1   7
HETATM    7  C2  UNL     1     117.294  57.952  19.005  1.00  0.00     0.140 A
HETATM    8  N1  UNL     1     117.349  58.425  17.763  1.00  0.00    -0.322 N
HETATM    9  C1  UNL     1     116.502  58.019  16.652  1.00  0.00     0.159 C
HETATM   10  C11 UNL     1     118.325  59.370  17.632  1.00  0.00     0.152 A
HETATM   11  C9  UNL     1     118.901  59.481  18.874  1.00  0.00     0.145 A
HETATM   12  N10 UNL     1     118.664  60.082  16.449  1.00  0.00    -0.080 NA
HETATM   13  N7  UNL     1     118.270  58.625  19.684  1.00  0.00    -0.333 N
ATOM     14  H7  UNL     1     118.488  58.492  20.672  1.00  0.00     0.168 HD
BRANCH  11  15
HETATM   15  C10 UNL     1     119.996  60.380  19.202  1.00  0.00     0.289 C
HETATM   16  O4  UNL     1     120.954  60.005  19.930  1.00  0.00    -0.264 OA
HETATM   17  N8  UNL     1     120.042  61.717  18.721  1.00  0.00    -0.271 N
ATOM     18  H8  UNL     1     119.281  62.049  18.128  1.00  0.00     0.189 HD
BRANCH  17  19
HETATM   19  N9  UNL     1     121.081  62.595  19.024  1.00  0.00    -0.342 N
ATOM     20  H92 UNL     1     121.790  62.275  19.683  1.00  0.00     0.176 HD
ATOM     21  H91 UNL     1     121.156  63.527  18.617  1.00  0.00     0.176 HD
ENDBRANCH  17  19
ENDBRANCH  11  15
ENDBRANCH   1   7
BRANCH   6  22
HETATM   22  N6  UNL     1     115.167  58.527  21.125  1.00  0.00    -0.109 N
HETATM   23  O2  UNL     1     114.802  58.737  22.286  1.00  0.00    -0.532 OA
HETATM   24  O3  UNL     1     115.337  59.584  20.258  1.00  0.00    -0.532 OA
ENDBRANCH   6  22
BRANCH   4  25
HETATM   25  C4  UNL     1     115.121  53.708  20.151  1.00  0.00     0.272 C
HETATM   26  C5  UNL     1     115.625  52.893  19.055  1.00  0.00     0.076 C
HETATM   27  C6  UNL     1     114.617  51.789  18.945  1.00  0.00     0.147 C
HETATM   28  N4  UNL     1     113.461  52.391  19.523  1.00  0.00    -0.099 NA
HETATM   29  O1  UNL     1     113.735  53.569  20.041  1.00  0.00    -0.259 OA
ENDBRANCH   4  25
BRANCH   5  30
HETATM   30  N5  UNL     1     113.907  55.892  21.750  1.00  0.00    -0.382 N
ATOM     31  H52 UNL     1     113.172  55.187  21.702  1.00  0.00     0.157 HD
ATOM     32  H51 UNL     1     113.779  56.456  22.589  1.00  0.00     0.157 HD
ENDBRANCH   5  30
TORSDOF 6
ENDMDL