MODEL 5
REMARK VINA RESULT: -7.391673083      2.225      6.434
REMARK  8 active torsions:
REMARK  status: ('A' for Active; 'I' for Inactive)
REMARK    1  A    between atoms: N1_1  and  C1_4
REMARK    2  A    between atoms: C2_7  and  N3_8
REMARK    3  A    between atoms: C4_13  and  S1_14
REMARK    4  A    between atoms: S1_14  and  C5_15
REMARK    5  A    between atoms: C5_15  and  C6_16
REMARK    6  A    between atoms: C6_16  and  N4_17
REMARK    7  A    between atoms: C7_20  and  N6_21
REMARK    8  A    between atoms: N7_24  and  N8_25
ROOT
HETATM    1  C1  UNL     1     114.811  50.890  17.958  1.00  0.00     0.679 A
HETATM    2  N2  UNL     1     114.625  51.676  19.035  1.00  0.00    -0.168 N
ATOM      3  H2  UNL     1     114.040  51.345  19.803  1.00  0.00     0.186 HD
HETATM    4  C2  UNL     1     115.192  52.880  19.112  1.00  0.00     0.226 A
HETATM    5  C3  UNL     1     115.982  53.318  18.063  1.00  0.00     0.173 A
HETATM    6  O3  UNL     1     116.650  54.409  17.845  1.00  0.00    -0.280 OA
HETATM    7  C4  UNL     1     117.259  54.372  16.690  1.00  0.00     0.189 A
HETATM    8  N9  UNL     1     116.977  53.202  16.119  1.00  0.00    -0.314 N
ATOM      9  H9  UNL     1     117.308  52.882  15.209  1.00  0.00     0.170 HD
HETATM   10  C9  UNL     1     116.170  52.511  16.964  1.00  0.00     0.161 A
HETATM   11  N10 UNL     1     115.579  51.318  16.943  1.00  0.00    -0.174 N
ATOM     12  H10 UNL     1     115.713  50.712  16.134  1.00  0.00     0.186 HD
ENDROOT
BRANCH   7  13
HETATM   13  S1  UNL     1     118.265  55.720  16.090  1.00  0.00    -0.085 SA
BRANCH  13  14
HETATM   14  C5  UNL     1     118.403  57.039  17.306  1.00  0.00     0.105 C
BRANCH  14  15
HETATM   15  C6  UNL     1     117.107  57.849  17.254  1.00  0.00     0.165 C
BRANCH  15  16
HETATM   16  N4  UNL     1     116.557  57.957  18.580  1.00  0.00    -0.226 N
HETATM   17  N5  UNL     1     115.697  57.138  19.141  1.00  0.00    -0.124 N
HETATM   18  C7  UNL     1     115.437  57.587  20.376  1.00  0.00     0.716 A
ATOM     19  H5  UNL     1     115.297  56.304  18.711  1.00  0.00     0.206 HD
HETATM   20  N7  UNL     1     116.154  58.704  20.570  1.00  0.00    -0.036 N
HETATM   21  C8  UNL     1     116.846  58.927  19.453  1.00  0.00     0.377 A
HETATM   22  O4  UNL     1     117.635  59.892  19.259  1.00  0.00    -0.242 OA
BRANCH  18  23
HETATM   23  N6  UNL     1     114.626  57.042  21.252  1.00  0.00    -0.231 N
ATOM     24  H62 UNL     1     114.914  56.569  22.109  1.00  0.00     0.174 HD
ATOM     25  H61 UNL     1     113.608  57.014  21.203  1.00  0.00     0.174 HD
ENDBRANCH  18  23
BRANCH  20  26
HETATM   26  N8  UNL     1     116.151  59.469  21.740  1.00  0.00    -0.320 N
ATOM     27  H82 UNL     1     116.955  59.758  22.298  1.00  0.00     0.178 HD
ATOM     28  H81 UNL     1     115.319  59.844  22.195  1.00  0.00     0.178 HD
ENDBRANCH  20  26
ENDBRANCH  15  16
ENDBRANCH  14  15
ENDBRANCH  13  14
ENDBRANCH   7  13
BRANCH   4  29
HETATM   29  N3  UNL     1     115.033  53.750  20.216  1.00  0.00    -0.094 N
HETATM   30  O1  UNL     1     113.913  53.994  20.690  1.00  0.00    -0.530 OA
HETATM   31  O2  UNL     1     116.129  54.340  20.779  1.00  0.00    -0.530 OA
ENDBRANCH   4  29
BRANCH   1  32
HETATM   32  N1  UNL     1     114.240  49.712  17.915  1.00  0.00    -0.234 N
ATOM     33  H12 UNL     1     114.244  49.100  18.731  1.00  0.00     0.174 HD
ATOM     34  H11 UNL     1     113.786  49.407  17.055  1.00  0.00     0.174 HD
ENDBRANCH   1  32
TORSDOF 8
ENDMDL