MODEL 1
REMARK VINA RESULT: -7.150135892      0.000      0.000
REMARK  6 active torsions:
REMARK  status: ('A' for Active; 'I' for Inactive)
REMARK       I    between atoms: N2_7  and  C4_8
REMARK       I    between atoms: C4_8  and  N3_10
REMARK    1  A    between atoms: N3_10  and  O2_12
REMARK    2  A    between atoms: O2_12  and  N4_13
REMARK    3  A    between atoms: C5_14  and  C6_15
REMARK    4  A    between atoms: C6_15  and  O3_16
REMARK    5  A    between atoms: N5_18  and  O4_20
REMARK    6  A    between atoms: N8_29  and  N9_30
ROOT
HETATM    1  N1  UNL     1     117.911  56.646  12.005  1.00  0.00    -0.402 N
ATOM      2  H11 UNL     1     117.239  56.171  11.403  1.00  0.00     0.155 HD
ATOM      3  H12 UNL     1     118.200  56.114  11.185  1.00  0.00     0.155 HD
HETATM    4  C1  UNL     1     117.997  57.364  13.051  1.00  0.00     0.027 A
HETATM    5  C2  UNL     1     119.002  58.077  13.953  1.00  0.00     0.154 A
HETATM    6  C3  UNL     1     117.579  58.131  14.233  1.00  0.00     0.161 A
HETATM    7  N2  UNL     1     117.309  57.461  15.494  1.00  0.00    -0.319 N
HETATM    8  C4  UNL     1     116.703  58.190  16.546  1.00  0.00     0.344 C
HETATM    9  O1  UNL     1     116.405  59.412  16.359  1.00  0.00    -0.245 OA
HETATM   10  N3  UNL     1     116.411  57.620  17.815  1.00  0.00    -0.194 N
ATOM     11  H3  UNL     1     116.646  56.640  17.977  1.00  0.00     0.201 HD
HETATM   12  C8  UNL     1     117.714  56.081  15.547  1.00  0.00     0.144 C
HETATM   13  C9  UNL     1     119.091  55.874  14.944  1.00  0.00     0.134 C
HETATM   14  N8  UNL     1     119.773  57.135  14.713  1.00  0.00    -0.224 NA
ENDROOT
BRANCH  10  15
HETATM   15  O2  UNL     1     115.855  58.295  18.782  1.00  0.00    -0.140 OA
BRANCH  15  16
HETATM   16  N4  UNL     1     116.343  58.372  19.962  1.00  0.00     0.141 NA
HETATM   17  C5  UNL     1     115.264  58.758  20.895  1.00  0.00     0.227 C
HETATM   18  C7  UNL     1     115.902  59.750  21.807  1.00  0.00     0.192 C
HETATM   19  N6  UNL     1     116.900  60.336  20.873  1.00  0.00     0.086 NA
HETATM   20  N7  UNL     1     117.393  59.121  20.321  1.00  0.00     0.457 N
HETATM   21  O5  UNL     1     118.018  58.505  21.386  1.00  0.00     0.016 OA
HETATM   22  O6  UNL     1     118.346  59.365  19.437  1.00  0.00     0.016 OA
BRANCH  17  23
HETATM   23  C6  UNL     1     114.645  57.586  21.458  1.00  0.00     0.160 C
HETATM   24  N5  UNL     1     114.779  56.400  21.093  1.00  0.00    -0.249 N
ATOM     25  H5  UNL     1     114.233  55.748  21.657  1.00  0.00     0.196 HD
BRANCH  23  26
HETATM   26  O3  UNL     1     113.770  57.813  22.566  1.00  0.00    -0.347 OA
ATOM     27  H3  UNL     1     112.852  57.622  22.414  1.00  0.00     0.219 HD
ENDBRANCH  23  26
BRANCH  24  28
HETATM   28  O4  UNL     1     115.479  55.793  20.129  1.00  0.00    -0.288 OA
ATOM     29  H4  UNL     1     115.385  54.974  19.656  1.00  0.00     0.244 HD
ENDBRANCH  24  28
ENDBRANCH  17  23
ENDBRANCH  15  16
ENDBRANCH  10  15
BRANCH  14  30
HETATM   30  N9  UNL     1     120.920  56.831  13.956  1.00  0.00    -0.362 NA
ATOM     31  H92 UNL     1     120.606  56.723  12.991  1.00  0.00     0.171 HD
ATOM     32  H91 UNL     1     121.579  57.598  14.088  1.00  0.00     0.171 HD
ENDBRANCH  14  30
TORSDOF 6
ENDMDL