MODEL 1
REMARK VINA RESULT: -6.212042975      0.000      0.000
REMARK  10 active torsions:
REMARK  status: ('A' for Active; 'I' for Inactive)
REMARK    1  A    between atoms: C2_2  and  N1_4
REMARK    2  A    between atoms: N1_4  and  O1_6
REMARK    3  A    between atoms: O1_6  and  C4_7
REMARK    4  A    between atoms: C4_7  and  C5_9
REMARK    5  A    between atoms: C6_12  and  C7_13
REMARK    6  A    between atoms: C7_13  and  O4_15
REMARK    7  A    between atoms: C9_17  and  C10_18
REMARK    8  A    between atoms: C10_18  and  O6_20
REMARK       I    between atoms: N3_22  and  C12_23
REMARK       I    between atoms: C12_23  and  N5_28
REMARK    9  A    between atoms: N4_24  and  O7_26
REMARK   10  A    between atoms: N5_28  and  N6_30
ROOT
HETATM    1  C5  UNL     1     115.935  56.787  18.716  1.00  0.00     0.311 C
HETATM    2  N2  UNL     1     116.437  57.842  17.868  1.00  0.00    -0.353 N
ATOM      3  H2  UNL     1     116.161  58.046  16.907  1.00  0.00     0.162 HD
HETATM    4  C6  UNL     1     117.414  58.552  18.667  1.00  0.00     0.140 C
HETATM    5  C9  UNL     1     117.103  58.340  19.923  1.00  0.00     0.162 C
HETATM    6  N3  UNL     1     115.928  57.488  19.981  1.00  0.00    -0.140 N
HETATM    7  C12 UNL     1     115.038  57.430  21.068  1.00  0.00     0.721 C
HETATM    8  N4  UNL     1     114.317  58.462  21.347  1.00  0.00    -0.097 N
ATOM      9  H4  UNL     1     114.425  59.289  20.759  1.00  0.00     0.213 HD
HETATM   10  N5  UNL     1     114.870  56.295  21.897  1.00  0.00    -0.137 N
ATOM     11  H5  UNL     1     115.516  56.096  22.661  1.00  0.00     0.205 HD
ENDROOT
BRANCH   1  12
HETATM   12  C4  UNL     1     116.936  55.693  18.689  1.00  0.00     0.324 C
HETATM   13  O2  UNL     1     117.626  55.423  17.669  1.00  0.00    -0.259 OA
BRANCH  12  14
HETATM   14  O1  UNL     1     117.174  54.890  19.818  1.00  0.00    -0.196 OA
BRANCH  14  15
HETATM   15  N1  UNL     1     116.323  53.886  20.143  1.00  0.00    -0.263 N
ATOM     16  H1  UNL     1     116.041  53.804  21.119  1.00  0.00     0.194 HD
BRANCH  15  17
HETATM   17  C2  UNL     1     115.797  52.943  19.228  1.00  0.00     0.019 C
HETATM   18  C1  UNL     1     114.489  52.797  19.157  1.00  0.00     0.039 C
HETATM   19  C3  UNL     1     116.682  52.135  18.365  1.00  0.00     0.069 C
ENDBRANCH  15  17
ENDBRANCH  14  15
ENDBRANCH  12  14
ENDBRANCH   1  12
BRANCH   5  20
HETATM   20  C10 UNL     1     117.746  58.814  21.135  1.00  0.00     0.313 C
HETATM   21  O5  UNL     1     117.220  59.782  21.802  1.00  0.00    -0.258 OA
BRANCH  20  22
HETATM   22  O6  UNL     1     118.906  58.342  21.701  1.00  0.00    -0.321 OA
HETATM   23  C11 UNL     1     120.103  59.084  21.787  1.00  0.00     0.213 C
ENDBRANCH  20  22
ENDBRANCH   5  20
BRANCH   4  24
HETATM   24  C7  UNL     1     118.483  59.321  18.059  1.00  0.00     0.311 C
HETATM   25  O3  UNL     1     119.111  58.865  17.043  1.00  0.00    -0.258 OA
BRANCH  24  26
HETATM   26  O4  UNL     1     118.921  60.550  18.474  1.00  0.00    -0.321 OA
HETATM   27  C8  UNL     1     120.266  60.948  18.568  1.00  0.00     0.213 C
ENDBRANCH  24  26
ENDBRANCH   4  24
BRANCH   8  28
HETATM   28  O7  UNL     1     113.422  58.523  22.373  1.00  0.00    -0.276 OA
ATOM     29  H7  UNL     1     113.416  59.197  23.041  1.00  0.00     0.245 HD
ENDBRANCH   8  28
BRANCH  10  30
HETATM   30  N6  UNL     1     113.784  55.456  21.628  1.00  0.00    -0.331 N
ATOM     31  H62 UNL     1     113.098  55.713  20.918  1.00  0.00     0.177 HD
ATOM     32  H61 UNL     1     113.713  54.593  22.166  1.00  0.00     0.177 HD
ENDBRANCH  10  30
TORSDOF 10
ENDMDL