MODEL 3
REMARK VINA RESULT: -5.537922269      1.356      1.841
REMARK  9 active torsions:
REMARK  status: ('A' for Active; 'I' for Inactive)
REMARK    1  A    between atoms: N1_2  and  C2_4
REMARK    2  A    between atoms: C4_8  and  O1_9
REMARK    3  A    between atoms: C6_13  and  C7_14
REMARK    4  A    between atoms: C9_18  and  O3_19
REMARK    5  A    between atoms: C10_21  and  N5_22
REMARK    6  A    between atoms: N5_22  and  N6_23
REMARK    7  A    between atoms: N5_22  and  C11_26
REMARK    8  A    between atoms: C11_26  and  C12_27
REMARK       I    between atoms: C12_27  and  N7_29
REMARK    9  A    between atoms: N7_29  and  N8_31
ROOT
HETATM    1  C2  UNL     1       8.868 -27.754 -23.625  1.00  0.00     0.133 A
HETATM    2  N2  UNL     1       9.133 -28.938 -24.181  1.00  0.00    -0.336 N
ATOM      3  H2  UNL     1      10.086 -29.295 -24.129  1.00  0.00     0.168 HD
HETATM    4  C3  UNL     1       8.213 -29.676 -24.800  1.00  0.00     0.101 A
HETATM    5  C4  UNL     1       8.264 -30.908 -25.435  1.00  0.00     0.171 A
HETATM    6  N3  UNL     1       7.045 -31.209 -25.899  1.00  0.00    -0.325 N
HETATM    7  C5  UNL     1       6.712 -32.426 -26.620  1.00  0.00     0.159 C
HETATM    8  C6  UNL     1       6.207 -30.181 -25.568  1.00  0.00     0.117 A
HETATM    9  C8  UNL     1       6.909 -29.200 -24.876  1.00  0.00     0.063 A
HETATM   10  C9  UNL     1       6.628 -27.972 -24.299  1.00  0.00     0.113 A
HETATM   11  C10 UNL     1       7.584 -27.202 -23.657  1.00  0.00     0.133 A
ENDROOT
BRANCH  11  12
HETATM   12  N5  UNL     1       7.357 -25.971 -23.010  1.00  0.00    -0.262 N
BRANCH  12  13
HETATM   13  N6  UNL     1       6.158 -25.987 -22.217  1.00  0.00    -0.338 N
ATOM     14  H62 UNL     1       6.229 -26.302 -21.250  1.00  0.00     0.177 HD
ATOM     15  H61 UNL     1       5.344 -25.668 -22.744  1.00  0.00     0.177 HD
ENDBRANCH  12  13
BRANCH  12  16
HETATM   16  C11 UNL     1       8.110 -24.794 -23.035  1.00  0.00     0.192 C
BRANCH  16  17
HETATM   17  C12 UNL     1       7.588 -23.537 -23.543  1.00  0.00     0.276 C
HETATM   18  O4  UNL     1       6.918 -22.661 -22.960  1.00  0.00    -0.265 OA
HETATM   19  N7  UNL     1       7.874 -23.240 -24.908  1.00  0.00    -0.272 N
ATOM     20  H7  UNL     1       8.418 -23.903 -25.459  1.00  0.00     0.189 HD
BRANCH  19  21
HETATM   21  N8  UNL     1       7.432 -22.081 -25.498  1.00  0.00    -0.342 N
ATOM     22  H82 UNL     1       6.923 -21.409 -24.923  1.00  0.00     0.176 HD
ATOM     23  H81 UNL     1       7.603 -21.887 -26.484  1.00  0.00     0.176 HD
ENDBRANCH  19  21
ENDBRANCH  16  17
ENDBRANCH  12  16
ENDBRANCH  11  12
BRANCH   1  24
HETATM   24  N1  UNL     1       9.788 -27.088 -23.045  1.00  0.00    -0.379 N
HETATM   25  C1  UNL     1      10.895 -26.463 -23.697  1.00  0.00     0.147 C
ATOM     26  H1  UNL     1       9.728 -26.994 -22.031  1.00  0.00     0.160 HD
ENDBRANCH   1  24
BRANCH  10  27
HETATM   27  O3  UNL     1       5.330 -27.501 -24.365  1.00  0.00    -0.357 OA
ATOM     28  H3  UNL     1       5.112 -26.879 -25.050  1.00  0.00     0.217 HD
ENDBRANCH  10  27
BRANCH   8  29
HETATM   29  C7  UNL     1       4.801 -30.137 -25.900  1.00  0.00     0.282 C
HETATM   30  N4  UNL     1       3.918 -31.031 -25.165  1.00  0.00    -0.056 NA
HETATM   31  O2  UNL     1       4.230 -29.429 -26.741  1.00  0.00    -0.269 OA
ENDBRANCH   8  29
BRANCH   5  32
HETATM   32  O1  UNL     1       9.391 -31.678 -25.559  1.00  0.00    -0.344 OA
ATOM     33  H1  UNL     1       9.877 -31.801 -26.366  1.00  0.00     0.219 HD
ENDBRANCH   5  32
TORSDOF 9
ENDMDL