MODEL 1
REMARK VINA RESULT: -8.212742546      0.000      0.000
REMARK  7 active torsions:
REMARK  status: ('A' for Active; 'I' for Inactive)
REMARK    1  A    between atoms: C1_2  and  C2_4
REMARK    2  A    between atoms: C2_4  and  N2_5
REMARK    3  A    between atoms: C2_4  and  C3_9
REMARK    4  A    between atoms: C5_11  and  S1_12
REMARK    5  A    between atoms: C6_16  and  O5_17
REMARK    6  A    between atoms: C7_19  and  N3_20
REMARK    7  A    between atoms: N3_20  and  C8_22
ROOT
HETATM    1  C3  UNL     1       9.052 -30.209 -24.636  1.00  0.00     0.009 A
HETATM    2  C4  UNL     1       7.925 -30.798 -25.175  1.00  0.00     0.041 A
HETATM    3  C5  UNL     1       6.840 -30.046 -25.573  1.00  0.00     0.116 A
HETATM    4  C6  UNL     1       6.846 -28.650 -25.445  1.00  0.00     0.118 A
HETATM    5  C7  UNL     1       7.968 -28.058 -24.909  1.00  0.00     0.095 A
HETATM    6  C11 UNL     1       9.026 -28.827 -24.524  1.00  0.00     0.084 A
HETATM    7  N6  UNL     1      10.170 -28.155 -23.971  1.00  0.00    -0.099 NA
ENDROOT
BRANCH   5   8
HETATM    8  N3  UNL     1       7.976 -26.645 -24.779  1.00  0.00    -0.325 N
ATOM      9  H3  UNL     1       8.271 -26.083 -25.578  1.00  0.00     0.169 HD
BRANCH   8  10
HETATM   10  C8  UNL     1       7.591 -25.978 -23.581  1.00  0.00     0.175 C
HETATM   11  N4  UNL     1       6.439 -26.055 -23.021  1.00  0.00    -0.361 N
HETATM   12  C9  UNL     1       6.329 -25.281 -21.828  1.00  0.00     0.142 C
ATOM     13  H4  UNL     1       5.674 -26.617 -23.394  1.00  0.00     0.162 HD
HETATM   14  C10 UNL     1       7.495 -24.322 -21.936  1.00  0.00     0.142 C
HETATM   15  N5  UNL     1       8.406 -25.104 -22.787  1.00  0.00    -0.361 N
ATOM     16  H5  UNL     1       9.423 -25.039 -22.807  1.00  0.00     0.162 HD
ENDBRANCH   8  10
ENDBRANCH   5   8
BRANCH   4  17
HETATM   17  O5  UNL     1       5.733 -27.944 -25.861  1.00  0.00    -0.357 OA
ATOM     18  H5  UNL     1       4.874 -28.310 -25.687  1.00  0.00     0.218 HD
ENDBRANCH   4  17
BRANCH   3  19
HETATM   19  S1  UNL     1       5.408 -30.803 -26.257  1.00  0.00     0.140 S
HETATM   20  O2  UNL     1       5.046 -30.012 -27.494  1.00  0.00    -0.591 OA
HETATM   21  O3  UNL     1       4.313 -30.749 -25.235  1.00  0.00    -0.591 OA
HETATM   22  O4  UNL     1       5.771 -32.352 -26.742  1.00  0.00    -0.591 OA
ENDBRANCH   3  19
BRANCH   1  23
HETATM   23  C2  UNL     1      10.229 -30.970 -24.198  1.00  0.00     0.306 C
BRANCH  23  24
HETATM   24  C1  UNL     1      10.508 -32.152 -25.044  1.00  0.00     0.266 C
HETATM   25  N1  UNL     1      11.286 -33.204 -24.485  1.00  0.00    -0.060 NA
HETATM   26  O1  UNL     1      10.110 -32.295 -26.207  1.00  0.00    -0.274 OA
ENDBRANCH  23  24
BRANCH  23  27
HETATM   27  N2  UNL     1      10.164 -31.331 -22.795  1.00  0.00    -0.063 N
ATOM     28  H23 UNL     1       9.948 -32.320 -22.673  1.00  0.00     0.275 HD
ATOM     29  H22 UNL     1      11.086 -31.318 -22.361  1.00  0.00     0.275 HD
ATOM     30  H21 UNL     1       9.504 -30.738 -22.291  1.00  0.00     0.275 HD
ENDBRANCH  23  27
ENDBRANCH   1  23
TORSDOF 7
ENDMDL