MODEL 3
REMARK VINA RESULT: -6.666075029      8.365     11.532
REMARK  6 active torsions:
REMARK  status: ('A' for Active; 'I' for Inactive)
REMARK    1  A    between atoms: N1_1  and  C1_4
REMARK    2  A    between atoms: C4_10  and  N4_11
REMARK    3  A    between atoms: C6_17  and  C7_18
REMARK    4  A    between atoms: C8_21  and  N7_22
REMARK       I    between atoms: N7_22  and  C9_24
REMARK    5  A    between atoms: C9_24  and  C10_26
REMARK    6  A    between atoms: C10_26  and  N8_27
ROOT
HETATM    1  C1  UNL     1       6.542 -31.984 -18.211  1.00  0.00     0.058 C
HETATM    2  C2  UNL     1       6.978 -30.916 -17.408  1.00  0.00     0.076 C
HETATM    3  C3  UNL     1       6.216 -29.965 -16.751  1.00  0.00     0.120 C
HETATM    4  N2  UNL     1       6.855 -29.297 -15.671  1.00  0.00    -0.083 NA
HETATM    5  N3  UNL     1       4.926 -29.618 -17.044  1.00  0.00    -0.329 N
ATOM      6  H3  UNL     1       4.631 -28.677 -16.783  1.00  0.00     0.168 HD
HETATM    7  C4  UNL     1       4.005 -30.401 -17.647  1.00  0.00     0.129 C
HETATM    8  C5  UNL     1       4.113 -31.759 -17.972  1.00  0.00     0.106 A
HETATM    9  N5  UNL     1       2.942 -32.375 -18.011  1.00  0.00    -0.344 N
ATOM     10  H5  UNL     1       2.086 -31.850 -17.832  1.00  0.00     0.166 HD
HETATM   11  C6  UNL     1       2.874 -33.716 -18.293  1.00  0.00     0.143 A
HETATM   12  C8  UNL     1       4.004 -34.452 -18.540  1.00  0.00     0.141 A
HETATM   13  N12 UNL     1       5.217 -33.804 -18.497  1.00  0.00    -0.337 N
ATOM     14  H12 UNL     1       6.080 -34.317 -18.674  1.00  0.00     0.167 HD
HETATM   15  C11 UNL     1       5.255 -32.503 -18.221  1.00  0.00     0.091 A
ENDROOT
BRANCH  12  16
HETATM   16  N7  UNL     1       4.001 -35.841 -18.834  1.00  0.00    -0.310 N
HETATM   17  C9  UNL     1       4.833 -36.354 -19.903  1.00  0.00     0.244 C
HETATM   18  O2  UNL     1       5.565 -35.646 -20.580  1.00  0.00    -0.271 OA
ATOM     19  H7  UNL     1       3.413 -36.477 -18.294  1.00  0.00     0.170 HD
BRANCH  17  20
HETATM   20  C10 UNL     1       4.764 -37.823 -20.152  1.00  0.00     0.275 C
BRANCH  20  21
HETATM   21  N8  UNL     1       4.763 -38.082 -21.587  1.00  0.00    -0.194 N
HETATM   22  N9  UNL     1       3.879 -38.352 -22.511  1.00  0.00    -0.209 N
HETATM   23  N10 UNL     1       4.850 -38.389 -23.422  1.00  0.00    -0.211 N
ATOM     24  H9  UNL     1       2.867 -38.481 -22.527  1.00  0.00     0.211 HD
HETATM   25  N11 UNL     1       5.737 -38.119 -22.498  1.00  0.00    -0.209 N
ATOM     26  H10 UNL     1       4.888 -38.559 -24.427  1.00  0.00     0.211 HD
ATOM     27  H11 UNL     1       6.749 -37.991 -22.482  1.00  0.00     0.211 HD
ENDBRANCH  20  21
ENDBRANCH  17  20
ENDBRANCH  12  16
BRANCH  11  28
HETATM   28  C7  UNL     1       1.553 -34.342 -18.316  1.00  0.00     0.285 C
HETATM   29  N6  UNL     1       0.689 -34.136 -17.176  1.00  0.00    -0.056 NA
HETATM   30  O1  UNL     1       1.054 -35.043 -19.203  1.00  0.00    -0.269 OA
ENDBRANCH  11  28
BRANCH   1  31
HETATM   31  N1  UNL     1       7.362 -32.535 -19.007  1.00  0.00    -0.397 N
ATOM     32  H12 UNL     1       8.154 -33.005 -18.569  1.00  0.00     0.156 HD
ATOM     33  H11 UNL     1       7.188 -32.489 -20.012  1.00  0.00     0.156 HD
ENDBRANCH   1  31
BRANCH   7  34
HETATM   34  N4  UNL     1       2.893 -29.839 -17.955  1.00  0.00    -0.384 N
ATOM     35  H42 UNL     1       2.366 -30.279 -18.709  1.00  0.00     0.157 HD
ATOM     36  H41 UNL     1       2.641 -29.011 -17.416  1.00  0.00     0.157 HD
ENDBRANCH   7  34
TORSDOF 6
ENDMDL