MODEL 2
REMARK VINA RESULT: -7.115770269      1.279      1.689
REMARK  6 active torsions:
REMARK  status: ('A' for Active; 'I' for Inactive)
REMARK    1  A    between atoms: N1_1  and  C1_5
REMARK    2  A    between atoms: C1_5  and  C2_6
REMARK    3  A    between atoms: C2_6  and  C3_7
REMARK    4  A    between atoms: C3_7  and  C4_9
REMARK    5  A    between atoms: C7_17  and  C8_18
REMARK    6  A    between atoms: N8_31  and  N9_33
ROOT
HETATM    1  C4  UNL     1       7.634 -31.306 -25.418  1.00  0.00     0.166 C
HETATM    2  C5  UNL     1       8.768 -31.639 -26.321  1.00  0.00     0.154 C
HETATM    3  N2  UNL     1       8.810 -30.883 -27.550  1.00  0.00    -0.362 N
ATOM      4  H2  UNL     1       8.936 -31.394 -28.423  1.00  0.00     0.162 HD
HETATM    5  C6  UNL     1       8.696 -29.588 -27.610  1.00  0.00     0.186 C
HETATM    6  N3  UNL     1       8.763 -29.019 -28.922  1.00  0.00    -0.064 NA
HETATM    7  N4  UNL     1       8.513 -28.664 -26.540  1.00  0.00    -0.337 N
ATOM      8  H4  UNL     1       8.324 -27.686 -26.761  1.00  0.00     0.164 HD
HETATM    9  C7  UNL     1       8.588 -29.069 -25.123  1.00  0.00     0.249 C
HETATM   10  N10 UNL     1       7.607 -30.031 -24.843  1.00  0.00    -0.383 N
ATOM     11  H10 UNL     1       6.851 -29.794 -24.201  1.00  0.00     0.156 HD
ENDROOT
BRANCH   9  12
HETATM   12  C8  UNL     1       8.266 -27.821 -24.350  1.00  0.00     0.128 A
HETATM   13  N5  UNL     1       9.197 -26.853 -24.246  1.00  0.00    -0.309 N
HETATM   14  C9  UNL     1       8.934 -25.726 -23.559  1.00  0.00     0.263 A
ATOM     15  H5  UNL     1      10.108 -26.975 -24.691  1.00  0.00     0.170 HD
HETATM   16  O2  UNL     1       9.775 -24.785 -23.431  1.00  0.00    -0.267 OA
HETATM   17  C10 UNL     1       7.707 -25.526 -22.942  1.00  0.00     0.105 A
HETATM   18  C11 UNL     1       6.761 -26.522 -23.055  1.00  0.00     0.124 A
HETATM   19  C13 UNL     1       7.140 -24.440 -22.148  1.00  0.00     0.082 A
HETATM   20  N6  UNL     1       7.074 -27.637 -23.756  1.00  0.00    -0.328 N
HETATM   21  N7  UNL     1       5.622 -26.070 -22.346  1.00  0.00    -0.349 N
ATOM     22  H6  UNL     1       6.372 -28.373 -23.838  1.00  0.00     0.169 HD
HETATM   23  C12 UNL     1       5.795 -24.908 -21.824  1.00  0.00     0.121 A
ATOM     24  H7  UNL     1       4.759 -26.607 -22.260  1.00  0.00     0.167 HD
HETATM   25  N8  UNL     1       7.728 -23.337 -21.831  1.00  0.00    -0.305 N
ATOM     26  H8  UNL     1       8.683 -23.206 -22.164  1.00  0.00     0.186 HD
BRANCH  25  27
HETATM   27  N9  UNL     1       7.180 -22.325 -21.084  1.00  0.00    -0.345 N
ATOM     28  H92 UNL     1       7.822 -21.822 -20.472  1.00  0.00     0.176 HD
ATOM     29  H91 UNL     1       6.200 -22.043 -21.095  1.00  0.00     0.176 HD
ENDBRANCH  25  27
ENDBRANCH   9  12
BRANCH   1  30
HETATM   30  C3  UNL     1       6.306 -31.647 -25.949  1.00  0.00     0.152 C
HETATM   31  O1  UNL     1       6.256 -32.379 -26.925  1.00  0.00    -0.296 OA
BRANCH  30  32
HETATM   32  C2  UNL     1       5.010 -31.190 -25.413  1.00  0.00     0.108 C
BRANCH  32  33
HETATM   33  C1  UNL     1       4.595 -29.849 -26.040  1.00  0.00     0.237 C
BRANCH  33  34
HETATM   34  N1  UNL     1       4.218 -30.136 -27.408  1.00  0.00    -0.079 N
ATOM     35  H13 UNL     1       4.438 -31.089 -27.697  1.00  0.00     0.274 HD
ATOM     36  H12 UNL     1       3.210 -30.192 -27.546  1.00  0.00     0.274 HD
ATOM     37  H11 UNL     1       4.666 -29.425 -27.986  1.00  0.00     0.274 HD
ENDBRANCH  33  34
ENDBRANCH  32  33
ENDBRANCH  30  32
ENDBRANCH   1  30
TORSDOF 6
ENDMDL