MODEL 5
REMARK VINA RESULT: -5.556914354      8.800      9.838
REMARK  11 active torsions:
REMARK  status: ('A' for Active; 'I' for Inactive)
REMARK    1  A    between atoms: N1_2  and  C2_4
REMARK    2  A    between atoms: C2_4  and  O1_5
REMARK    3  A    between atoms: C2_4  and  C3_7
REMARK    4  A    between atoms: N2_11  and  N3_12
REMARK    5  A    between atoms: C7_15  and  N4_16
REMARK    6  A    between atoms: N4_16  and  C8_18
REMARK    7  A    between atoms: C8_18  and  C9_19
REMARK    8  A    between atoms: C9_19  and  O2_20
REMARK    9  A    between atoms: C11_25  and  C12_26
REMARK   10  A    between atoms: C12_26  and  N6_27
REMARK   11  A    between atoms: C12_26  and  O3_31
ROOT
HETATM    1  C3  UNL     1       8.475 -27.148 -24.076  1.00  0.00     0.135 A
HETATM    2  C4  UNL     1       8.165 -28.395 -24.573  1.00  0.00     0.108 A
HETATM    3  C5  UNL     1       9.264 -29.250 -24.417  1.00  0.00     0.057 A
HETATM    4  C6  UNL     1      10.232 -28.513 -23.826  1.00  0.00     0.134 A
HETATM    5  N2  UNL     1       9.780 -27.276 -23.621  1.00  0.00    -0.267 N
HETATM    6  C7  UNL     1       9.213 -30.573 -24.838  1.00  0.00     0.117 A
HETATM    7  N5  UNL     1       8.068 -30.983 -25.397  1.00  0.00    -0.325 N
ATOM      8  H5  UNL     1       7.996 -31.948 -25.718  1.00  0.00     0.169 HD
HETATM    9  C10 UNL     1       7.013 -30.170 -25.549  1.00  0.00     0.159 A
HETATM   10  C11 UNL     1       5.733 -30.366 -26.094  1.00  0.00     0.128 A
HETATM   11  N7  UNL     1       5.082 -29.171 -25.977  1.00  0.00    -0.282 N
ATOM     12  H7  UNL     1       4.128 -28.975 -26.279  1.00  0.00     0.188 HD
HETATM   13  N8  UNL     1       5.899 -28.327 -25.410  1.00  0.00    -0.234 N
ATOM     14  H8  UNL     1       5.668 -27.355 -25.202  1.00  0.00     0.209 HD
HETATM   15  N9  UNL     1       7.051 -28.882 -25.142  1.00  0.00    -0.220 N
ENDROOT
BRANCH  10  16
HETATM   16  C12 UNL     1       5.271 -31.634 -26.654  1.00  0.00     0.372 C
BRANCH  16  17
HETATM   17  N6  UNL     1       4.052 -32.119 -26.039  1.00  0.00    -0.047 N
ATOM     18  H63 UNL     1       3.283 -31.465 -26.190  1.00  0.00     0.277 HD
ATOM     19  H62 UNL     1       3.686 -32.926 -26.545  1.00  0.00     0.277 HD
ATOM     20  H61 UNL     1       4.159 -32.330 -25.047  1.00  0.00     0.277 HD
ENDBRANCH  16  17
BRANCH  16  21
HETATM   21  O3  UNL     1       6.285 -32.603 -26.532  1.00  0.00    -0.365 OA
ATOM     22  H3  UNL     1       6.207 -33.237 -27.235  1.00  0.00     0.212 HD
ENDBRANCH  16  21
ENDBRANCH  10  16
BRANCH   6  23
HETATM   23  N4  UNL     1      10.246 -31.297 -24.666  1.00  0.00    -0.373 N
ATOM     24  H4  UNL     1      10.804 -31.120 -23.831  1.00  0.00     0.161 HD
BRANCH  23  25
HETATM   25  C8  UNL     1      10.693 -32.335 -25.542  1.00  0.00     0.147 C
BRANCH  25  26
HETATM   26  C9  UNL     1      11.578 -33.347 -24.857  1.00  0.00     0.183 C
BRANCH  26  27
HETATM   27  O2  UNL     1      12.218 -34.079 -25.864  1.00  0.00    -0.399 OA
ATOM     28  H2  UNL     1      12.736 -34.749 -25.433  1.00  0.00     0.209 HD
ENDBRANCH  26  27
ENDBRANCH  25  26
ENDBRANCH  23  25
ENDBRANCH   6  23
BRANCH   1  29
HETATM   29  C2  UNL     1       7.773 -25.910 -23.966  1.00  0.00     0.167 C
BRANCH  29  30
HETATM   30  N1  UNL     1       7.931 -24.652 -24.502  1.00  0.00    -0.373 N
HETATM   31  C1  UNL     1       7.549 -23.441 -23.677  1.00  0.00     0.148 C
ATOM     32  H1  UNL     1       8.303 -24.537 -25.444  1.00  0.00     0.161 HD
ENDBRANCH  29  30
BRANCH  29  33
HETATM   33  O1  UNL     1       6.712 -25.960 -23.164  1.00  0.00    -0.345 OA
ATOM     34  H1  UNL     1       6.369 -26.844 -23.104  1.00  0.00     0.219 HD
ENDBRANCH  29  33
ENDBRANCH   1  29
BRANCH   5  35
HETATM   35  N3  UNL     1      10.584 -26.299 -23.019  1.00  0.00    -0.338 N
ATOM     36  H32 UNL     1      11.548 -26.150 -23.317  1.00  0.00     0.177 HD
ATOM     37  H31 UNL     1      10.336 -25.659 -22.264  1.00  0.00     0.177 HD
ENDBRANCH   5  35
TORSDOF 11
ENDMDL