MODEL 5
REMARK VINA RESULT: -5.115246931      1.942      3.353
REMARK  11 active torsions:
REMARK  status: ('A' for Active; 'I' for Inactive)
REMARK    1  A    between atoms: C2_2  and  C3_3
REMARK    2  A    between atoms: C3_3  and  C4_4
REMARK    3  A    between atoms: C4_4  and  O1_5
REMARK    4  A    between atoms: C6_8  and  O2_9
REMARK    5  A    between atoms: C8_15  and  O3_16
REMARK    6  A    between atoms: C9_18  and  C10_19
REMARK    7  A    between atoms: C10_19  and  O4_20
REMARK    8  A    between atoms: C11_23  and  C12_24
REMARK    9  A    between atoms: C11_23  and  C13_27
REMARK   10  A    between atoms: C12_24  and  O6_25
REMARK   11  A    between atoms: C13_27  and  O7_28
ROOT
HETATM    1  C4  UNL     1       7.772 -27.923 -25.119  1.00  0.00     0.112 C
HETATM    2  C5  UNL     1       9.053 -28.065 -24.417  1.00  0.00     0.087 C
HETATM    3  C6  UNL     1       9.415 -26.579 -24.187  1.00  0.00     0.142 C
HETATM    4  C7  UNL     1       9.740 -26.216 -22.779  1.00  0.00     0.279 C
HETATM    5  N1  UNL     1       8.367 -25.730 -22.580  1.00  0.00    -0.036 N
ATOM      6  H11 UNL     1       8.211 -24.825 -22.137  1.00  0.00     0.281 HD
ATOM      7  H12 UNL     1       7.768 -26.180 -21.887  1.00  0.00     0.281 HD
HETATM    8  C8  UNL     1       8.084 -25.896 -23.980  1.00  0.00     0.265 C
HETATM    9  C9  UNL     1       7.000 -26.904 -24.314  1.00  0.00     0.114 C
ENDROOT
BRANCH   1  10
HETATM   10  C3  UNL     1       7.001 -29.104 -25.574  1.00  0.00     0.145 A
HETATM   11  O5  UNL     1       7.188 -30.347 -25.046  1.00  0.00    -0.340 OA
HETATM   12  C11 UNL     1       7.857 -31.177 -25.892  1.00  0.00     0.156 A
HETATM   13  S1  UNL     1       7.716 -29.806 -27.117  1.00  0.00    -0.086 SA
BRANCH  10  14
HETATM   14  C2  UNL     1       5.563 -28.614 -25.731  1.00  0.00     0.048 C
HETATM   15  C1  UNL     1       4.583 -29.503 -26.333  1.00  0.00     0.009 C
ENDBRANCH  10  14
BRANCH  12  16
HETATM   16  C12 UNL     1       7.224 -32.450 -26.384  1.00  0.00     0.216 C
BRANCH  16  17
HETATM   17  O6  UNL     1       5.897 -32.642 -26.146  1.00  0.00    -0.397 OA
ATOM     18  H6  UNL     1       5.545 -32.351 -25.313  1.00  0.00     0.209 HD
ENDBRANCH  16  17
ENDBRANCH  12  16
BRANCH  12  19
HETATM   19  C13 UNL     1       9.295 -31.549 -25.544  1.00  0.00     0.216 C
BRANCH  19  20
HETATM   20  O7  UNL     1       9.368 -31.469 -24.135  1.00  0.00    -0.397 OA
ATOM     21  H7  UNL     1      10.280 -31.627 -23.922  1.00  0.00     0.209 HD
ENDBRANCH  19  20
ENDBRANCH  12  19
ENDBRANCH   1  10
BRANCH   1  22
HETATM   22  O1  UNL     1       8.099 -27.212 -26.325  1.00  0.00    -0.385 OA
ATOM     23  H1  UNL     1       8.530 -26.419 -26.029  1.00  0.00     0.210 HD
ENDBRANCH   1  22
BRANCH   9  24
HETATM   24  C10 UNL     1       6.322 -27.448 -23.108  1.00  0.00     0.176 C
BRANCH  24  25
HETATM   25  O4  UNL     1       5.570 -26.425 -22.517  1.00  0.00    -0.400 OA
ATOM     26  H4  UNL     1       5.473 -26.614 -21.591  1.00  0.00     0.209 HD
ENDBRANCH  24  25
ENDBRANCH   9  24
BRANCH   3  27
HETATM   27  O2  UNL     1      10.242 -26.044 -25.138  1.00  0.00    -0.383 OA
ATOM     28  H2  UNL     1      10.284 -25.095 -25.134  1.00  0.00     0.210 HD
ENDBRANCH   3  27
BRANCH   8  29
HETATM   29  O3  UNL     1       8.026 -24.723 -24.730  1.00  0.00    -0.362 OA
ATOM     30  H3  UNL     1       8.116 -24.921 -25.655  1.00  0.00     0.212 HD
ENDBRANCH   8  29
TORSDOF 11
ENDMDL