MODEL 3
REMARK VINA RESULT: -5.500358664      2.092      5.120
REMARK  7 active torsions:
REMARK  status: ('A' for Active; 'I' for Inactive)
REMARK    1  A    between atoms: C2_3  and  C3_4
REMARK    2  A    between atoms: C3_4  and  N2_5
REMARK    3  A    between atoms: C3_4  and  N3_9
REMARK    4  A    between atoms: N4_14  and  C5_15
REMARK    5  A    between atoms: C6_18  and  N6_19
REMARK    6  A    between atoms: C8_26  and  C9_27
REMARK    7  A    between atoms: N9_28  and  N10_30
ROOT
HETATM    1  C5  UNL     1       4.665 -34.542 -18.791  1.00  0.00     0.146 A
HETATM    2  N5  UNL     1       4.461 -35.380 -19.867  1.00  0.00    -0.175 N
ATOM      3  H5  UNL     1       3.577 -35.327 -20.374  1.00  0.00     0.186 HD
HETATM    4  C6  UNL     1       5.381 -36.257 -20.265  1.00  0.00     0.678 A
HETATM    5  N7  UNL     1       6.568 -36.370 -19.632  1.00  0.00    -0.178 N
ATOM      6  H7  UNL     1       7.264 -37.047 -19.947  1.00  0.00     0.185 HD
HETATM    7  C7  UNL     1       6.812 -35.584 -18.590  1.00  0.00     0.147 A
HETATM    8  N8  UNL     1       8.035 -35.673 -17.907  1.00  0.00    -0.081 NA
HETATM    9  C8  UNL     1       5.859 -34.648 -18.147  1.00  0.00     0.068 A
ENDROOT
BRANCH   1  10
HETATM   10  N4  UNL     1       3.630 -33.640 -18.438  1.00  0.00    -0.257 N
HETATM   11  C4  UNL     1       3.782 -32.302 -18.304  1.00  0.00     0.132 A
HETATM   12  C2  UNL     1       2.591 -31.719 -17.915  1.00  0.00     0.089 A
HETATM   13  N1  UNL     1       1.701 -32.711 -17.811  1.00  0.00    -0.302 N
HETATM   14  C1  UNL     1       0.282 -32.621 -17.421  1.00  0.00     0.161 C
HETATM   15  C11 UNL     1       2.338 -33.844 -18.127  1.00  0.00     0.334 A
HETATM   16  O1  UNL     1       1.785 -34.975 -18.130  1.00  0.00    -0.246 OA
BRANCH  12  17
HETATM   17  C3  UNL     1       2.322 -30.287 -17.665  1.00  0.00     0.429 C
BRANCH  17  18
HETATM   18  N2  UNL     1       1.664 -29.693 -18.799  1.00  0.00    -0.045 N
ATOM     19  H23 UNL     1       2.108 -29.962 -19.678  1.00  0.00     0.277 HD
ATOM     20  H22 UNL     1       0.744 -30.101 -18.962  1.00  0.00     0.277 HD
ATOM     21  H21 UNL     1       1.616 -28.679 -18.692  1.00  0.00     0.277 HD
ENDBRANCH  17  18
BRANCH  17  22
HETATM   22  N3  UNL     1       3.570 -29.564 -17.467  1.00  0.00    -0.045 N
ATOM     23  H33 UNL     1       4.094 -29.921 -16.667  1.00  0.00     0.277 HD
ATOM     24  H32 UNL     1       4.251 -29.774 -18.198  1.00  0.00     0.277 HD
ATOM     25  H31 UNL     1       3.391 -28.563 -17.389  1.00  0.00     0.277 HD
ENDBRANCH  17  22
ENDBRANCH  12  17
ENDBRANCH   1  10
BRANCH   9  26
HETATM   26  C9  UNL     1       6.169 -33.812 -17.005  1.00  0.00     0.126 C
HETATM   27  N9  UNL     1       7.066 -32.905 -16.994  1.00  0.00    -0.309 N
ATOM     28  H9  UNL     1       7.619 -32.735 -17.834  1.00  0.00     0.186 HD
BRANCH  27  29
HETATM   29  N10 UNL     1       7.303 -32.150 -15.862  1.00  0.00    -0.276 N
HETATM   30  C10 UNL     1       7.078 -30.890 -15.869  1.00  0.00     0.215 C
HETATM   31  N11 UNL     1       6.585 -30.271 -17.047  1.00  0.00    -0.065 NA
HETATM   32  N12 UNL     1       7.300 -30.061 -14.742  1.00  0.00    -0.065 NA
ATOM     33  H10 UNL     1       7.657 -32.598 -15.018  1.00  0.00     0.189 HD
ENDBRANCH  27  29
ENDBRANCH   9  26
BRANCH   4  34
HETATM   34  N6  UNL     1       5.136 -37.018 -21.279  1.00  0.00    -0.234 N
ATOM     35  H62 UNL     1       5.736 -36.952 -22.103  1.00  0.00     0.174 HD
ATOM     36  H61 UNL     1       4.352 -37.670 -21.241  1.00  0.00     0.174 HD
ENDBRANCH   4  34
TORSDOF 7
ENDMDL