MODEL 4
REMARK VINA RESULT: -5.575642263      1.839      2.022
REMARK  8 active torsions:
REMARK  status: ('A' for Active; 'I' for Inactive)
REMARK    1  A    between atoms: N1_1  and  C1_4
REMARK    2  A    between atoms: C2_7  and  N3_8
REMARK    3  A    between atoms: N3_8  and  N4_10
REMARK    4  A    between atoms: C4_14  and  C5_15
REMARK    5  A    between atoms: C6_23  and  S1_24
REMARK    6  A    between atoms: S1_24  and  C7_26
REMARK    7  A    between atoms: C7_26  and  C8_27
REMARK    8  A    between atoms: C8_27  and  O2_28
ROOT
HETATM    1  C1  UNL     1       1.320 -30.491 -17.913  1.00  0.00     0.679 A
HETATM    2  N2  UNL     1       2.460 -29.948 -17.494  1.00  0.00    -0.175 N
ATOM      3  H2  UNL     1       2.482 -28.976 -17.190  1.00  0.00     0.186 HD
HETATM    4  C2  UNL     1       3.599 -30.697 -17.475  1.00  0.00     0.150 A
HETATM    5  C3  UNL     1       3.619 -32.006 -17.874  1.00  0.00     0.070 A
HETATM    6  C4  UNL     1       4.742 -32.798 -17.872  1.00  0.00     0.049 A
HETATM    7  C6  UNL     1       4.626 -34.135 -18.312  1.00  0.00     0.062 A
HETATM    8  C9  UNL     1       3.407 -34.574 -18.716  1.00  0.00     0.111 A
HETATM    9  N9  UNL     1       2.322 -33.815 -18.719  1.00  0.00    -0.350 N
ATOM     10  H9  UNL     1       1.428 -34.193 -19.032  1.00  0.00     0.166 HD
HETATM   11  C10 UNL     1       2.414 -32.538 -18.304  1.00  0.00     0.136 A
HETATM   12  N10 UNL     1       1.316 -31.761 -18.305  1.00  0.00    -0.176 N
ATOM     13  H10 UNL     1       0.435 -32.167 -18.624  1.00  0.00     0.186 HD
ENDROOT
BRANCH   6  14
HETATM   14  C5  UNL     1       6.034 -32.308 -17.431  1.00  0.00     0.147 A
HETATM   15  N5  UNL     1       6.930 -31.720 -18.231  1.00  0.00    -0.266 N
HETATM   16  N6  UNL     1       7.954 -31.366 -17.470  1.00  0.00    -0.005 NA
ATOM     17  H5  UNL     1       6.842 -31.574 -19.236  1.00  0.00     0.186 HD
HETATM   18  N7  UNL     1       7.739 -31.708 -16.213  1.00  0.00    -0.225 N
HETATM   19  N8  UNL     1       6.554 -32.289 -16.198  1.00  0.00    -0.271 N
ATOM     20  H7  UNL     1       8.360 -31.556 -15.418  1.00  0.00     0.205 HD
ATOM     21  H8  UNL     1       6.100 -32.669 -15.368  1.00  0.00     0.190 HD
ENDBRANCH   6  14
BRANCH   7  22
HETATM   22  S1  UNL     1       6.069 -35.095 -18.292  1.00  0.00     0.054 S
HETATM   23  O1  UNL     1       7.168 -34.489 -19.402  1.00  0.00    -0.253 OA
BRANCH  22  24
HETATM   24  C7  UNL     1       5.743 -36.802 -18.654  1.00  0.00     0.140 C
BRANCH  24  25
HETATM   25  C8  UNL     1       6.157 -37.043 -20.098  1.00  0.00     0.177 C
BRANCH  25  26
HETATM   26  O2  UNL     1       5.485 -36.237 -20.988  1.00  0.00    -0.400 OA
ATOM     27  H2  UNL     1       6.060 -35.839 -21.631  1.00  0.00     0.209 HD
ENDBRANCH  25  26
ENDBRANCH  24  25
ENDBRANCH  22  24
ENDBRANCH   7  22
BRANCH   4  28
HETATM   28  N3  UNL     1       4.663 -30.128 -17.067  1.00  0.00    -0.291 N
ATOM     29  H3  UNL     1       5.175 -30.581 -16.309  1.00  0.00     0.188 HD
BRANCH  28  30
HETATM   30  N4  UNL     1       5.181 -28.951 -17.565  1.00  0.00    -0.344 N
ATOM     31  H42 UNL     1       4.646 -28.104 -17.367  1.00  0.00     0.176 HD
ATOM     32  H41 UNL     1       6.042 -28.866 -18.105  1.00  0.00     0.176 HD
ENDBRANCH  28  30
ENDBRANCH   4  28
BRANCH   1  33
HETATM   33  N1  UNL     1       0.253 -29.756 -17.921  1.00  0.00    -0.234 N
ATOM     34  H12 UNL     1       0.289 -28.738 -17.967  1.00  0.00     0.174 HD
ATOM     35  H11 UNL     1      -0.656 -30.218 -17.881  1.00  0.00     0.174 HD
ENDBRANCH   1  33
TORSDOF 8
ENDMDL