MODEL 3
REMARK VINA RESULT: -6.229596726      1.764      2.230
REMARK  6 active torsions:
REMARK  status: ('A' for Active; 'I' for Inactive)
REMARK    1  A    between atoms: C2_2  and  N1_4
REMARK    2  A    between atoms: C2_2  and  C11_33
REMARK    3  A    between atoms: N1_4  and  C4_6
REMARK    4  A    between atoms: C5_9  and  N3_10
REMARK    5  A    between atoms: C7_19  and  N8_20
REMARK    6  A    between atoms: C10_27  and  N11_28
ROOT
HETATM    1  C4  UNL     1       7.179 -26.724 -23.286  1.00  0.00     0.682 A
HETATM    2  N2  UNL     1       6.284 -27.339 -24.127  1.00  0.00    -0.174 N
ATOM      3  H2  UNL     1       5.303 -27.061 -24.087  1.00  0.00     0.186 HD
HETATM    4  C5  UNL     1       6.648 -28.288 -24.995  1.00  0.00     0.155 A
HETATM    5  C7  UNL     1       7.969 -28.688 -25.075  1.00  0.00     0.130 A
HETATM    6  C10 UNL     1       8.846 -28.060 -24.228  1.00  0.00     0.146 A
HETATM    7  N12 UNL     1       8.462 -27.103 -23.355  1.00  0.00    -0.175 N
ATOM      8  H12 UNL     1       9.152 -26.665 -22.745  1.00  0.00     0.186 HD
ENDROOT
BRANCH   4   9
HETATM    9  N3  UNL     1       5.704 -28.897 -25.840  1.00  0.00    -0.310 N
HETATM   10  C6  UNL     1       5.243 -30.085 -25.721  1.00  0.00     0.211 C
HETATM   11  N4  UNL     1       4.294 -30.756 -26.534  1.00  0.00    -0.256 N
HETATM   12  N7  UNL     1       5.591 -31.020 -24.714  1.00  0.00    -0.256 N
HETATM   13  N5  UNL     1       3.765 -31.805 -25.782  1.00  0.00    -0.006 NA
ATOM     14  H4  UNL     1       4.046 -30.515 -27.494  1.00  0.00     0.187 HD
HETATM   15  N6  UNL     1       4.737 -32.091 -24.831  1.00  0.00    -0.006 NA
ATOM     16  H7  UNL     1       6.339 -30.917 -24.028  1.00  0.00     0.187 HD
ATOM     17  H3  UNL     1       5.354 -28.341 -26.620  1.00  0.00     0.170 HD
ENDBRANCH   4   9
BRANCH   5  18
HETATM   18  N8  UNL     1       8.459 -29.685 -25.950  1.00  0.00    -0.295 N
HETATM   19  C8  UNL     1       8.869 -30.925 -25.633  1.00  0.00     0.206 A
HETATM   20  N9  UNL     1       9.266 -31.577 -26.749  1.00  0.00    -0.295 N
HETATM   21  N10 UNL     1       9.110 -30.761 -27.756  1.00  0.00    -0.295 N
ATOM     22  H9  UNL     1       9.622 -32.532 -26.796  1.00  0.00     0.187 HD
HETATM   23  C9  UNL     1       8.617 -29.597 -27.288  1.00  0.00     0.206 A
ATOM     24  H10 UNL     1       9.325 -30.968 -28.732  1.00  0.00     0.187 HD
ENDBRANCH   5  18
BRANCH   1  25
HETATM   25  N1  UNL     1       6.779 -25.846 -22.490  1.00  0.00    -0.207 N
ATOM     26  H1  UNL     1       6.038 -26.176 -21.870  1.00  0.00     0.179 HD
BRANCH  25  27
HETATM   27  C2  UNL     1       7.129 -24.502 -22.264  1.00  0.00     0.128 C
HETATM   28  C1  UNL     1       8.199 -24.247 -21.252  1.00  0.00     0.050 C
HETATM   29  C3  UNL     1       5.904 -23.668 -21.843  1.00  0.00     0.050 C
BRANCH  27  30
HETATM   30  C11 UNL     1       7.560 -23.895 -23.575  1.00  0.00     0.202 C
HETATM   31  O1  UNL     1       7.682 -22.647 -23.714  1.00  0.00    -0.646 OA
HETATM   32  O2  UNL     1       7.842 -24.685 -24.678  1.00  0.00    -0.646 OA
ENDBRANCH  27  30
ENDBRANCH  25  27
ENDBRANCH   1  25
BRANCH   6  33
HETATM   33  N11 UNL     1      10.091 -28.383 -24.248  1.00  0.00    -0.383 N
ATOM     34 2H11 UNL     1      10.618 -28.285 -23.381  1.00  0.00     0.157 HD
ATOM     35 1H11 UNL     1      10.509 -28.724 -25.113  1.00  0.00     0.157 HD
ENDBRANCH   6  33
TORSDOF 6
ENDMDL