MODEL 2
REMARK VINA RESULT: -6.917546986      0.764      1.032
REMARK  10 active torsions:
REMARK  status: ('A' for Active; 'I' for Inactive)
REMARK    1  A    between atoms: C2_2  and  N2_6
REMARK    2  A    between atoms: N2_6  and  N3_8
REMARK    3  A    between atoms: C4_11  and  C5_12
REMARK    4  A    between atoms: N4_13  and  N5_15
REMARK    5  A    between atoms: N5_15  and  C6_17
REMARK    6  A    between atoms: C8_23  and  C9_24
REMARK    7  A    between atoms: C9_24  and  O2_25
REMARK    8  A    between atoms: C9_24  and  O3_27
REMARK    9  A    between atoms: C10_29  and  N8_30
REMARK   10  A    between atoms: N8_30  and  N9_32
ROOT
HETATM    1  N3  UNL     1       7.456 -29.804 -24.849  1.00  0.00    -0.198 N
HETATM    2  C3  UNL     1       7.333 -28.496 -24.452  1.00  0.00     0.281 C
HETATM    3  O1  UNL     1       6.203 -27.963 -24.563  1.00  0.00    -0.265 OA
HETATM    4  C4  UNL     1       8.288 -27.661 -23.936  1.00  0.00     0.066 C
HETATM    5  C7  UNL     1       9.645 -27.877 -23.883  1.00  0.00     0.106 C
HETATM    6  N7  UNL     1      10.309 -29.027 -24.166  1.00  0.00    -0.361 N
ATOM      7  H7  UNL     1      11.325 -28.972 -24.116  1.00  0.00     0.165 HD
HETATM    8  C8  UNL     1       9.799 -30.255 -24.511  1.00  0.00     0.112 C
HETATM    9  C10 UNL     1       8.616 -30.463 -25.144  1.00  0.00     0.172 C
ENDROOT
BRANCH   4  10
HETATM   10  C5  UNL     1       7.851 -26.382 -23.369  1.00  0.00     0.125 C
HETATM   11  N4  UNL     1       8.488 -25.838 -22.417  1.00  0.00    -0.309 N
ATOM     12  H4  UNL     1       9.311 -26.332 -22.071  1.00  0.00     0.186 HD
BRANCH  11  13
HETATM   13  N5  UNL     1       8.177 -24.646 -21.805  1.00  0.00    -0.279 N
ATOM     14  H5  UNL     1       8.649 -24.401 -20.935  1.00  0.00     0.189 HD
BRANCH  13  15
HETATM   15  C6  UNL     1       7.227 -23.752 -22.342  1.00  0.00     0.199 C
HETATM   16  N6  UNL     1       7.557 -23.037 -23.517  1.00  0.00    -0.068 NA
HETATM   17  S1  UNL     1       5.785 -23.546 -21.629  1.00  0.00    -0.043 SA
ENDBRANCH  13  15
ENDBRANCH  11  13
ENDBRANCH   4  10
BRANCH   1  18
HETATM   18  N2  UNL     1       6.250 -30.457 -24.955  1.00  0.00    -0.279 N
ATOM     19  H2  UNL     1       5.822 -30.792 -24.091  1.00  0.00     0.189 HD
BRANCH  18  20
HETATM   20  C2  UNL     1       5.555 -30.703 -26.157  1.00  0.00     0.086 C
HETATM   21  C1  UNL     1       5.322 -32.107 -26.640  1.00  0.00     0.090 C
HETATM   22  N1  UNL     1       5.087 -29.728 -26.864  1.00  0.00    -0.388 N
ATOM     23  H12 UNL     1       4.584 -29.905 -27.733  1.00  0.00     0.157 HD
ATOM     24  H11 UNL     1       5.245 -28.775 -26.536  1.00  0.00     0.157 HD
ENDBRANCH  18  20
ENDBRANCH   1  18
BRANCH   9  25
HETATM   25  N8  UNL     1       8.538 -31.292 -26.061  1.00  0.00    -0.289 N
ATOM     26  H8  UNL     1       7.947 -32.090 -25.829  1.00  0.00     0.188 HD
BRANCH  25  27
HETATM   27  N9  UNL     1       9.073 -31.372 -27.319  1.00  0.00    -0.344 N
ATOM     28  H92 UNL     1      10.067 -31.600 -27.292  1.00  0.00     0.176 HD
ATOM     29  H91 UNL     1       8.694 -31.255 -28.259  1.00  0.00     0.176 HD
ENDBRANCH  25  27
ENDBRANCH   9  25
BRANCH   8  30
HETATM   30  C9  UNL     1      10.663 -31.363 -24.113  1.00  0.00     0.309 C
BRANCH  30  31
HETATM   31  O2  UNL     1       9.972 -32.081 -23.110  1.00  0.00    -0.366 OA
ATOM     32  H2  UNL     1       9.061 -31.817 -23.161  1.00  0.00     0.213 HD
ENDBRANCH  30  31
BRANCH  30  33
HETATM   33  O3  UNL     1      10.726 -32.257 -25.229  1.00  0.00    -0.366 OA
ATOM     34  H3  UNL     1      10.787 -33.135 -24.873  1.00  0.00     0.213 HD
ENDBRANCH  30  33
ENDBRANCH   8  30
TORSDOF 10
ENDMDL