MODEL 3
REMARK VINA RESULT: -7.538037333      1.828      2.772
REMARK  13 active torsions:
REMARK  status: ('A' for Active; 'I' for Inactive)
REMARK    1  A    between atoms: N2_5  and  C4_6
REMARK    2  A    between atoms: C4_6  and  C5_7
REMARK    3  A    between atoms: C5_7  and  N3_8
REMARK    4  A    between atoms: N3_8  and  C6_9
REMARK    5  A    between atoms: N3_8  and  C8_12
REMARK    6  A    between atoms: C6_9  and  C7_10
REMARK    7  A    between atoms: C8_12  and  C9_13
REMARK    8  A    between atoms: C9_13  and  C10_14
REMARK    9  A    between atoms: C10_14  and  O1_15
REMARK   10  A    between atoms: O1_15  and  C11_16
REMARK   11  A    between atoms: C29_34  and  O2_35
REMARK   12  A    between atoms: C30_37  and  O3_39
REMARK   13  A    between atoms: C33_42  and  O4_43
ROOT
HETATM    1  C11 UNL     1      49.204   9.405   0.880  1.00  0.00     0.069 A
HETATM    2  C12 UNL     1      50.010   9.351  -0.242  1.00  0.00     0.037 A
HETATM    3  C13 UNL     1      50.882   8.314  -0.401  1.00  0.00     0.013 A
HETATM    4  C14 UNL     1      50.992   7.279   0.550  1.00  0.00    -0.021 A
HETATM    5  C15 UNL     1      50.213   7.330   1.633  1.00  0.00    -0.035 A
HETATM    6  C16 UNL     1      49.310   8.414   1.787  1.00  0.00     0.045 A
HETATM    7  C17 UNL     1      50.747   6.093   2.170  1.00  0.00     0.018 A
HETATM    8  C18 UNL     1      49.776   4.964   2.248  1.00  0.00     0.018 C
HETATM    9  C19 UNL     1      49.597   4.259   3.518  1.00  0.00     0.011 C
HETATM   10  C20 UNL     1      50.721   4.277   4.506  1.00  0.00    -0.036 C
HETATM   11  C21 UNL     1      50.267   5.162   5.653  1.00  0.00     0.016 C
HETATM   12  C22 UNL     1      51.939   4.832   3.823  1.00  0.00    -0.005 C
HETATM   13  C23 UNL     1      53.192   4.653   4.603  1.00  0.00     0.006 C
HETATM   14  C24 UNL     1      53.554   3.168   4.438  1.00  0.00     0.008 C
HETATM   15  C25 UNL     1      52.312   2.359   4.272  1.00  0.00     0.027 C
HETATM   16  C26 UNL     1      51.115   2.879   4.998  1.00  0.00     0.001 C
HETATM   17  C27 UNL     1      51.236   2.796   6.491  1.00  0.00     0.008 C
HETATM   18  C28 UNL     1      52.318   1.923   7.010  1.00  0.00     0.035 C
HETATM   19  C29 UNL     1      52.708   0.762   6.174  1.00  0.00     0.152 C
HETATM   20  C30 UNL     1      52.506   0.907   4.711  1.00  0.00     0.084 C
HETATM   21  C31 UNL     1      53.619   0.273   3.893  1.00  0.00     0.049 C
HETATM   22  C32 UNL     1      51.604   6.232   3.420  1.00  0.00     0.022 C
HETATM   23  C33 UNL     1      51.621   6.029   0.980  1.00  0.00     0.164 A
ENDROOT
BRANCH  23  24
HETATM   24  O4  UNL     1      52.984   6.251   1.215  1.00  0.00    -0.390 OA
ATOM     25  H4  UNL     1      53.470   5.454   1.035  1.00  0.00     0.210 HD
ENDBRANCH  23  24
BRANCH   1  26
HETATM   26  O1  UNL     1      48.312  10.460   1.050  1.00  0.00    -0.351 OA
BRANCH  26  27
HETATM   27  C10 UNL     1      47.363  10.515   2.079  1.00  0.00     0.177 C
BRANCH  27  28
HETATM   28  C9  UNL     1      46.904  11.944   2.334  1.00  0.00     0.047 C
BRANCH  28  29
HETATM   29  C8  UNL     1      46.724  12.714   1.081  1.00  0.00     0.129 C
BRANCH  29  30
HETATM   30  N3  UNL     1      45.313  12.910   0.816  1.00  0.00    -0.371 N
BRANCH  30  31
HETATM   31  C5  UNL     1      44.642  13.745   1.690  1.00  0.00     0.093 C
BRANCH  31  32
HETATM   32  C4  UNL     1      45.008  15.194   1.553  1.00  0.00     0.317 C
BRANCH  32  33
HETATM   33  N2  UNL     1      44.804  15.922   2.751  1.00  0.00     0.096 N
HETATM   34  C3  UNL     1      45.175  17.285   2.554  1.00  0.00     0.303 C
HETATM   35  C2  UNL     1      46.288  17.642   3.513  1.00  0.00     0.302 C
HETATM   36  N1  UNL     1      47.334  16.663   3.417  1.00  0.00     0.087 N
HETATM   37  C1  UNL     1      48.470  17.144   4.194  1.00  0.00     0.310 C
HETATM   38  C35 UNL     1      46.907  15.352   3.795  1.00  0.00     0.302 C
HETATM   39  C34 UNL     1      45.399  15.275   3.878  1.00  0.00     0.303 C
ENDBRANCH  32  33
ENDBRANCH  31  32
ENDBRANCH  30  31
BRANCH  30  40
HETATM   40  C6  UNL     1      44.923  12.622  -0.486  1.00  0.00     0.078 C
BRANCH  40  41
HETATM   41  C7  UNL     1      45.226  11.230  -1.003  1.00  0.00     0.159 C
HETATM   42 CL1  UNL     1      44.396  10.007   0.022  1.00  0.00    -0.125 Cl
ENDBRANCH  40  41
ENDBRANCH  30  40
ENDBRANCH  29  30
ENDBRANCH  28  29
ENDBRANCH  27  28
ENDBRANCH  26  27
ENDBRANCH   1  26
BRANCH  20  43
HETATM   43  O3  UNL     1      51.328   0.247   4.341  1.00  0.00    -0.387 OA
ATOM     44  H3  UNL     1      51.508  -0.677   4.464  1.00  0.00     0.210 HD
ENDBRANCH  20  43
BRANCH  19  45
HETATM   45  O2  UNL     1      54.057   0.472   6.499  1.00  0.00    -0.393 OA
ATOM     46  H2  UNL     1      54.084  -0.450   6.729  1.00  0.00     0.210 HD
ENDBRANCH  19  45
TORSDOF 13
ENDMDL