MODEL 4
REMARK VINA RESULT: -6.539188258      2.589      5.022
REMARK  13 active torsions:
REMARK  status: ('A' for Active; 'I' for Inactive)
REMARK    1  A    between atoms: C2_2  and  C3_3
REMARK    2  A    between atoms: C3_3  and  C4_4
REMARK    3  A    between atoms: C4_4  and  C5_5
REMARK       I    between atoms: C5_5  and  N1_7
REMARK    4  A    between atoms: N1_7  and  C6_9
REMARK    5  A    between atoms: C6_9  and  C7_10
REMARK    6  A    between atoms: C6_9  and  C22_33
REMARK    7  A    between atoms: C7_10  and  O2_11
REMARK    8  A    between atoms: C7_10  and  C8_13
REMARK    9  A    between atoms: C8_13  and  C9_14
REMARK   10  A    between atoms: C8_13  and  N3_24
REMARK   11  A    between atoms: C9_14  and  C10_15
REMARK       I    between atoms: N3_24  and  C17_26
REMARK   12  A    between atoms: C17_26  and  O4_28
REMARK   13  A    between atoms: O4_28  and  C18_29
ROOT
HETATM    1  C10 UNL     1      50.837   2.302   5.626  1.00  0.00    -0.035 A
HETATM    2  C11 UNL     1      51.007   1.132   4.878  1.00  0.00     0.010 A
HETATM    3  C12 UNL     1      52.042   0.257   5.063  1.00  0.00     0.024 A
HETATM    4  C13 UNL     1      52.976   0.532   6.036  1.00  0.00     0.035 A
HETATM    5 CL1  UNL     1      54.317  -0.568   6.301  1.00  0.00    -0.084 Cl
HETATM    6  C14 UNL     1      52.834   1.694   6.800  1.00  0.00     0.047 A
HETATM    7  C15 UNL     1      51.776   2.566   6.595  1.00  0.00     0.052 A
HETATM    8  C16 UNL     1      51.729   3.739   7.423  1.00  0.00     0.100 C
HETATM    9  N2  UNL     1      51.705   4.694   8.075  1.00  0.00    -0.191 NA
ENDROOT
BRANCH   1  10
HETATM   10  C9  UNL     1      49.747   3.188   5.367  1.00  0.00     0.068 C
BRANCH  10  11
HETATM   11  C8  UNL     1      49.603   3.751   3.938  1.00  0.00     0.121 C
BRANCH  11  12
HETATM   12  C7  UNL     1      49.664   5.231   4.036  1.00  0.00     0.164 C
BRANCH  12  13
HETATM   13  C6  UNL     1      50.754   5.939   3.348  1.00  0.00     0.119 C
BRANCH  13  14
HETATM   14  N1  UNL     1      51.913   5.048   3.104  1.00  0.00    -0.354 N
HETATM   15  C5  UNL     1      53.006   4.978   4.014  1.00  0.00     0.217 C
HETATM   16  O1  UNL     1      53.031   5.674   5.067  1.00  0.00    -0.274 OA
ATOM     17  H1  UNL     1      51.928   4.471   2.263  1.00  0.00     0.163 HD
BRANCH  15  18
HETATM   18  C4  UNL     1      54.128   4.067   3.707  1.00  0.00     0.103 C
BRANCH  18  19
HETATM   19  C3  UNL     1      53.783   2.844   2.945  1.00  0.00     0.009 C
BRANCH  19  20
HETATM   20  C2  UNL     1      54.831   1.792   3.044  1.00  0.00    -0.004 C
HETATM   21  C1  UNL     1      54.399   0.544   2.303  1.00  0.00     0.005 C
ENDBRANCH  19  20
ENDBRANCH  18  19
ENDBRANCH  15  18
ENDBRANCH  13  14
BRANCH  13  22
HETATM   22  C22 UNL     1      50.388   6.553   1.989  1.00  0.00     0.020 C
HETATM   23  C23 UNL     1      50.374   8.012   1.890  1.00  0.00     0.012 C
HETATM   24  C24 UNL     1      49.101   8.755   1.802  1.00  0.00    -0.008 C
HETATM   25  C25 UNL     1      49.057   9.666   0.564  1.00  0.00     0.005 C
HETATM   26  C28 UNL     1      47.877   7.921   1.594  1.00  0.00     0.019 C
HETATM   27  C26 UNL     1      47.676   9.623   0.014  1.00  0.00     0.001 C
HETATM   28  C27 UNL     1      46.833   8.802   0.940  1.00  0.00     0.007 C
HETATM   29  C29 UNL     1      48.226   6.794   0.695  1.00  0.00     0.133 C
HETATM   30  O5  UNL     1      48.914   7.150  -0.437  1.00  0.00    -0.375 OA
HETATM   31  C33 UNL     1      49.198   5.851   1.381  1.00  0.00     0.053 C
HETATM   32  C30 UNL     1      49.548   6.024  -0.926  1.00  0.00     0.175 C
HETATM   33  C31 UNL     1      48.718   4.997  -1.606  1.00  0.00     0.203 C
HETATM   34  C32 UNL     1      49.554   4.997   0.179  1.00  0.00     0.159 C
HETATM   35  O6  UNL     1      48.464   4.393  -0.383  1.00  0.00    -0.380 OA
ENDBRANCH  13  22
ENDBRANCH  12  13
BRANCH  12  36
HETATM   36  O2  UNL     1      49.775   5.475   5.429  1.00  0.00    -0.391 OA
ATOM     37  H2  UNL     1      49.757   4.642   5.885  1.00  0.00     0.210 HD
ENDBRANCH  12  36
ENDBRANCH  11  12
BRANCH  11  38
HETATM   38  N3  UNL     1      48.278   3.230   3.554  1.00  0.00    -0.329 N
HETATM   39  C17 UNL     1      48.172   2.250   2.511  1.00  0.00     0.361 C
HETATM   40  O3  UNL     1      49.225   1.868   1.960  1.00  0.00    -0.238 OA
ATOM     41  H3  UNL     1      47.439   3.566   4.028  1.00  0.00     0.165 HD
BRANCH  39  42
HETATM   42  O4  UNL     1      46.969   1.732   2.114  1.00  0.00    -0.294 OA
BRANCH  42  43
HETATM   43  C18 UNL     1      46.409   0.614   2.793  1.00  0.00     0.061 C
HETATM   44  C19 UNL     1      45.054   0.979   3.363  1.00  0.00     0.046 C
HETATM   45  C20 UNL     1      47.296   0.193   3.953  1.00  0.00     0.046 C
HETATM   46  C21 UNL     1      46.342  -0.533   1.834  1.00  0.00     0.046 C
ENDBRANCH  42  43
ENDBRANCH  39  42
ENDBRANCH  11  38
ENDBRANCH  10  11
ENDBRANCH   1  10
TORSDOF 13
ENDMDL