MODEL 2
REMARK VINA RESULT: -7.889202798      1.404      2.567
REMARK  12 active torsions:
REMARK  status: ('A' for Active; 'I' for Inactive)
REMARK    1  A    between atoms: C2_2  and  N1_3
REMARK    2  A    between atoms: N1_3  and  C3_4
REMARK    3  A    between atoms: N1_3  and  C5_6
REMARK    4  A    between atoms: C5_6  and  C6_7
REMARK    5  A    between atoms: C6_7  and  N2_8
REMARK    6  A    between atoms: N2_8  and  C7_10
REMARK    7  A    between atoms: N5_21  and  C13_22
REMARK    8  A    between atoms: C17_26  and  N6_27
REMARK    9  A    between atoms: N6_27  and  C19_29
REMARK   10  A    between atoms: C22_32  and  N7_33
REMARK   11  A    between atoms: N7_33  and  C23_35
REMARK   12  A    between atoms: C26_38  and  N8_39
ROOT
HETATM    1  C13 UNL     1      45.522  11.626  -0.714  1.00  0.00     0.111 C
HETATM    2  C14 UNL     1      44.587  10.705   0.080  1.00  0.00     0.026 C
HETATM    3  C15 UNL     1      44.945   9.270  -0.072  1.00  0.00     0.004 C
HETATM    4  C16 UNL     1      46.248   9.127  -0.761  1.00  0.00     0.025 C
HETATM    5  C17 UNL     1      47.368   9.962  -0.235  1.00  0.00     0.085 C
HETATM    6  C31 UNL     1      46.919  11.424  -0.253  1.00  0.00     0.051 C
ENDROOT
BRANCH   1   7
HETATM    7  N5  UNL     1      44.997  12.945  -0.533  1.00  0.00    -0.161 N
HETATM    8  C7  UNL     1      45.005  13.588   0.664  1.00  0.00     0.682 A
HETATM    9  N3  UNL     1      44.453  14.791   0.504  1.00  0.00    -0.188 N
HETATM   10  C8  UNL     1      44.090  14.929  -0.790  1.00  0.00     0.095 A
ATOM     11  H3  UNL     1      44.327  15.491   1.236  1.00  0.00     0.184 HD
HETATM   12  C9  UNL     1      43.482  16.003  -1.451  1.00  0.00     0.054 A
HETATM   13  C12 UNL     1      44.438  13.765  -1.424  1.00  0.00     0.151 A
HETATM   14  C10 UNL     1      43.235  15.856  -2.790  1.00  0.00     0.028 A
HETATM   15 BR1  UNL     1      42.401  17.265  -3.811  1.00  0.00    -0.050 Br
HETATM   16  C11 UNL     1      43.601  14.674  -3.374  1.00  0.00     0.109 A
HETATM   17  N4  UNL     1      44.182  13.649  -2.742  1.00  0.00    -0.349 N
ATOM     18  H4  UNL     1      44.428  12.798  -3.247  1.00  0.00     0.167 HD
BRANCH   8  19
HETATM   19  N2  UNL     1      45.480  13.136   1.798  1.00  0.00    -0.224 N
ATOM     20  H2  UNL     1      45.046  12.349   2.280  1.00  0.00     0.177 HD
BRANCH  19  21
HETATM   21  C6  UNL     1      46.651  13.801   2.338  1.00  0.00     0.168 C
BRANCH  21  22
HETATM   22  C5  UNL     1      46.336  14.768   3.426  1.00  0.00     0.292 C
BRANCH  22  23
HETATM   23  N1  UNL     1      46.486  16.112   2.977  1.00  0.00     0.089 N
BRANCH  23  24
HETATM   24  C2  UNL     1      45.451  16.948   3.487  1.00  0.00     0.268 C
HETATM   25  C1  UNL     1      44.778  17.756   2.384  1.00  0.00     0.037 C
ENDBRANCH  23  24
BRANCH  23  26
HETATM   26  C3  UNL     1      47.813  16.552   3.405  1.00  0.00     0.268 C
HETATM   27  C4  UNL     1      47.723  17.434   4.645  1.00  0.00     0.037 C
ENDBRANCH  23  26
ENDBRANCH  22  23
ENDBRANCH  21  22
ENDBRANCH  19  21
ENDBRANCH   8  19
ENDBRANCH   1   7
BRANCH   5  28
HETATM   28  N6  UNL     1      48.047   9.586   0.916  1.00  0.00    -0.387 N
HETATM   29  C18 UNL     1      47.748  10.091   2.190  1.00  0.00     0.149 C
BRANCH  28  30
HETATM   30  C19 UNL     1      48.768   8.387   1.020  1.00  0.00    -0.015 C
HETATM   31  C20 UNL     1      48.202   7.299   1.905  1.00  0.00     0.058 C
HETATM   32  C21 UNL     1      49.199   6.114   1.690  1.00  0.00     0.057 C
HETATM   33  C22 UNL     1      50.362   6.435   2.544  1.00  0.00    -0.017 C
HETATM   34  C29 UNL     1      50.850   7.872   2.360  1.00  0.00     0.057 C
HETATM   35  C30 UNL     1      50.267   8.482   1.120  1.00  0.00     0.058 C
BRANCH  33  36
HETATM   36  N7  UNL     1      51.427   5.584   2.718  1.00  0.00    -0.392 N
ATOM     37  H7  UNL     1      52.122   5.603   1.972  1.00  0.00     0.159 HD
BRANCH  36  38
HETATM   38  C23 UNL     1      51.695   4.714   3.739  1.00  0.00     0.081 C
HETATM   39  C24 UNL     1      50.536   4.425   4.644  1.00  0.00     0.027 C
HETATM   40  C25 UNL     1      50.856   3.164   5.442  1.00  0.00     0.035 C
HETATM   41  C26 UNL     1      52.052   3.488   6.306  1.00  0.00     0.183 C
HETATM   42  C27 UNL     1      53.204   4.070   5.549  1.00  0.00     0.035 C
HETATM   43  C28 UNL     1      52.814   5.244   4.668  1.00  0.00     0.027 C
BRANCH  41  44
HETATM   44  N8  UNL     1      51.608   4.348   7.363  1.00  0.00    -0.075 N
ATOM     45  H83 UNL     1      50.692   4.086   7.728  1.00  0.00     0.274 HD
ATOM     46  H82 UNL     1      52.139   4.222   8.224  1.00  0.00     0.274 HD
ATOM     47  H81 UNL     1      51.636   5.306   7.015  1.00  0.00     0.274 HD
ENDBRANCH  41  44
ENDBRANCH  36  38
ENDBRANCH  33  36
ENDBRANCH  28  30
ENDBRANCH   5  28
TORSDOF 12
ENDMDL