MODEL 3
REMARK VINA RESULT: -8.228142423      2.501      4.674
REMARK  11 active torsions:
REMARK  status: ('A' for Active; 'I' for Inactive)
REMARK    1  A    between atoms: C6_6  and  C7_7
REMARK    2  A    between atoms: C7_7  and  N1_8
REMARK       I    between atoms: N1_8  and  C8_10
REMARK    3  A    between atoms: C8_10  and  C9_12
REMARK    4  A    between atoms: C12_16  and  C13_17
REMARK    5  A    between atoms: C13_17  and  C14_18
REMARK    6  A    between atoms: N3_20  and  C16_21
REMARK    7  A    between atoms: C26_36  and  O3_37
REMARK    8  A    between atoms: O3_37  and  C27_38
REMARK    9  A    between atoms: C27_38  and  C28_39
REMARK   10  A    between atoms: C28_39  and  O4_40
REMARK   11  A    between atoms: C30_42  and  O5_43
ROOT
HETATM    1  N1  UNL     1      47.140  10.296   1.558  1.00  0.00    -0.351 N
ATOM      2  H1  UNL     1      46.579  10.135   0.722  1.00  0.00     0.163 HD
HETATM    3  C8  UNL     1      48.071   9.318   2.068  1.00  0.00     0.253 C
HETATM    4  O1  UNL     1      48.764   9.569   3.108  1.00  0.00    -0.268 OA
ENDROOT
BRANCH   1   5
HETATM    5  C7  UNL     1      47.066  11.508   2.315  1.00  0.00     0.180 C
BRANCH   5   6
HETATM    6  C6  UNL     1      46.261  12.602   1.716  1.00  0.00     0.034 A
HETATM    7  C4  UNL     1      46.074  13.716   2.393  1.00  0.00    -0.027 A
HETATM    8  C3  UNL     1      45.280  14.802   1.763  1.00  0.00    -0.017 A
HETATM    9  C5  UNL     1      46.562  13.837   3.758  1.00  0.00     0.051 C
HETATM   10  C2  UNL     1      45.124  15.953   2.350  1.00  0.00    -0.018 C
HETATM   11  C33 UNL     1      44.711  14.597   0.380  1.00  0.00     0.043 A
HETATM   12  C1  UNL     1      45.621  16.465   3.632  1.00  0.00     0.037 C
HETATM   13  C24 UNL     1      44.964  13.387  -0.244  1.00  0.00     0.049 A
HETATM   14  C32 UNL     1      43.989  15.566  -0.257  1.00  0.00     0.165 A
HETATM   15  N5  UNL     1      45.723  12.405   0.404  1.00  0.00    -0.357 N
HETATM   16  C25 UNL     1      44.471  13.178  -1.526  1.00  0.00     0.070 A
ATOM     17  H5  UNL     1      45.898  11.521  -0.074  1.00  0.00     0.166 HD
HETATM   18  C26 UNL     1      43.742  14.119  -2.207  1.00  0.00     0.107 A
HETATM   19  C30 UNL     1      43.521  15.296  -1.552  1.00  0.00     0.141 A
HETATM   20  F1  UNL     1      43.701  16.749   0.287  1.00  0.00    -0.202 F
BRANCH  18  21
HETATM   21  O3  UNL     1      43.266  13.873  -3.493  1.00  0.00    -0.346 OA
BRANCH  21  22
HETATM   22  C27 UNL     1      42.128  13.145  -3.788  1.00  0.00     0.201 C
BRANCH  22  23
HETATM   23  C28 UNL     1      40.954  13.997  -4.182  1.00  0.00     0.193 C
BRANCH  23  24
HETATM   24  O4  UNL     1      40.175  14.507  -3.201  1.00  0.00    -0.394 OA
HETATM   25  C29 UNL     1      39.531  15.697  -3.383  1.00  0.00     0.201 C
ENDBRANCH  23  24
ENDBRANCH  22  23
ENDBRANCH  21  22
ENDBRANCH  18  21
BRANCH  19  26
HETATM   26  O5  UNL     1      42.788  16.309  -2.190  1.00  0.00    -0.350 OA
HETATM   27  C31 UNL     1      43.513  17.232  -2.974  1.00  0.00     0.210 C
ENDBRANCH  19  26
ENDBRANCH   5   6
ENDBRANCH   1   5
BRANCH   3  28
HETATM   28  C9  UNL     1      48.265   8.053   1.438  1.00  0.00     0.056 A
HETATM   29  C10 UNL     1      48.418   7.898   0.055  1.00  0.00     0.108 A
HETATM   30  N2  UNL     1      48.515   6.596  -0.210  1.00  0.00    -0.359 N
HETATM   31  C11 UNL     1      48.434   5.894   0.925  1.00  0.00     0.019 A
HETATM   32  C23 UNL     1      48.679   5.696  -1.346  1.00  0.00     0.128 C
HETATM   33  C12 UNL     1      48.276   6.813   1.973  1.00  0.00    -0.013 A
HETATM   34  C21 UNL     1      48.554   4.451   0.637  1.00  0.00     0.059 C
HETATM   35  C22 UNL     1      49.251   4.462  -0.714  1.00  0.00     0.026 C
BRANCH  33  36
HETATM   36  C13 UNL     1      48.229   6.443   3.437  1.00  0.00     0.100 C
BRANCH  36  37
HETATM   37  C14 UNL     1      49.663   6.340   3.860  1.00  0.00     0.033 A
HETATM   38  C15 UNL     1      50.294   5.112   3.927  1.00  0.00     0.122 A
HETATM   39  N3  UNL     1      51.588   5.306   4.316  1.00  0.00    -0.299 N
HETATM   40  C20 UNL     1      51.724   6.611   4.478  1.00  0.00     0.327 A
HETATM   41  O2  UNL     1      52.748   7.255   4.835  1.00  0.00    -0.246 OA
HETATM   42  N4  UNL     1      50.551   7.255   4.202  1.00  0.00    -0.311 N
ATOM     43  H4  UNL     1      50.389   8.261   4.252  1.00  0.00     0.170 HD
BRANCH  39  44
HETATM   44  C16 UNL     1      52.585   4.283   4.482  1.00  0.00     0.030 C
HETATM   45  C17 UNL     1      53.690   4.450   3.442  1.00  0.00     0.038 C
HETATM   46  C18 UNL     1      51.983   2.918   4.239  1.00  0.00     0.038 C
HETATM   47  C19 UNL     1      53.163   4.313   5.869  1.00  0.00     0.038 C
ENDBRANCH  39  44
ENDBRANCH  36  37
ENDBRANCH  33  36
ENDBRANCH   3  28
TORSDOF 11
ENDMDL