MODEL 5
REMARK VINA RESULT: -7.055012505      4.569     10.645
REMARK  13 active torsions:
REMARK  status: ('A' for Active; 'I' for Inactive)
REMARK    1  A    between atoms: C2_2  and  C3_3
REMARK    2  A    between atoms: C3_3  and  C4_4
REMARK    3  A    between atoms: C4_4  and  C5_5
REMARK    4  A    between atoms: C4_4  and  C30_43
REMARK    5  A    between atoms: C5_5  and  C6_6
REMARK    6  A    between atoms: C6_6  and  O1_9
REMARK    7  A    between atoms: O1_9  and  C9_10
REMARK       I    between atoms: C9_10  and  N1_12
REMARK    8  A    between atoms: N1_12  and  C10_13
REMARK    9  A    between atoms: C10_13  and  C11_14
REMARK   10  A    between atoms: C10_13  and  C26_39
REMARK       I    between atoms: C11_14  and  N2_16
REMARK   11  A    between atoms: C13_18  and  C14_19
REMARK   12  A    between atoms: C20_29  and  C21_30
REMARK       I    between atoms: C21_30  and  N5_32
REMARK   13  A    between atoms: N5_32  and  C22_34
ROOT
HETATM    1  C22 UNL     1      52.481   2.314   5.805  1.00  0.00     0.122 A
HETATM    2  C23 UNL     1      53.054   3.680   5.963  1.00  0.00     0.091 C
HETATM    3  N6  UNL     1      53.496   4.729   6.066  1.00  0.00    -0.195 NA
HETATM    4  C24 UNL     1      53.568   1.259   5.555  1.00  0.00     0.050 A
HETATM    5  C25 UNL     1      52.790   1.331   6.825  1.00  0.00     0.050 A
ENDROOT
BRANCH   1   6
HETATM    6  N5  UNL     1      51.398   2.261   4.867  1.00  0.00    -0.337 N
HETATM    7  C21 UNL     1      50.025   2.515   5.244  1.00  0.00     0.243 C
HETATM    8  O4  UNL     1      49.880   2.778   6.435  1.00  0.00    -0.271 OA
ATOM      9  H5  UNL     1      51.604   2.035   3.894  1.00  0.00     0.164 HD
BRANCH   7  10
HETATM   10  C20 UNL     1      49.010   2.439   4.246  1.00  0.00     0.196 C
HETATM   11  N2  UNL     1      48.659   3.462   3.335  1.00  0.00    -0.332 N
HETATM   12  C11 UNL     1      49.280   4.668   3.159  1.00  0.00     0.257 C
HETATM   13  C12 UNL     1      47.493   3.080   2.494  1.00  0.00     0.156 C
HETATM   14  O3  UNL     1      50.106   4.988   4.072  1.00  0.00    -0.270 OA
HETATM   15  C13 UNL     1      47.330   1.655   2.241  1.00  0.00     0.128 C
HETATM   16  N4  UNL     1      48.413   0.781   2.531  1.00  0.00    -0.409 N
HETATM   17  C19 UNL     1      49.488   1.294   3.244  1.00  0.00     0.149 C
ATOM     18  H4  UNL     1      48.401  -0.192   2.225  1.00  0.00     0.154 HD
BRANCH  12  19
HETATM   19  C10 UNL     1      49.204   5.702   2.110  1.00  0.00     0.268 C
BRANCH  19  20
HETATM   20  N1  UNL     1      49.183   6.995   2.614  1.00  0.00    -0.374 NA
HETATM   21  C9  UNL     1      49.162   8.278   3.115  1.00  0.00     0.436 C
HETATM   22  O2  UNL     1      49.894   8.672   4.049  1.00  0.00    -0.221 OA
BRANCH  21  23
HETATM   23  O1  UNL     1      48.331   9.267   2.624  1.00  0.00    -0.282 OA
BRANCH  23  24
HETATM   24  C6  UNL     1      48.147   9.649   1.250  1.00  0.00     0.066 C
HETATM   25  C7  UNL     1      47.197   8.683   0.594  1.00  0.00     0.046 C
HETATM   26  C8  UNL     1      49.483   9.603   0.570  1.00  0.00     0.046 C
BRANCH  24  27
HETATM   27  C5  UNL     1      47.586  11.018   1.358  1.00  0.00     0.043 C
BRANCH  27  28
HETATM   28  C4  UNL     1      46.177  11.392   1.510  1.00  0.00    -0.004 C
BRANCH  28  29
HETATM   29  C3  UNL     1      45.885  12.188   2.693  1.00  0.00     0.005 C
BRANCH  29  30
HETATM   30  C2  UNL     1      46.830  13.158   3.291  1.00  0.00    -0.004 C
HETATM   31  C1  UNL     1      46.447  14.600   3.120  1.00  0.00     0.005 C
ENDBRANCH  29  30
ENDBRANCH  28  29
BRANCH  28  32
HETATM   32  C30 UNL     1      45.613  11.903   0.174  1.00  0.00    -0.048 C
HETATM   33  C31 UNL     1      44.682  10.820  -0.420  1.00  0.00     0.015 C
HETATM   34  C32 UNL     1      46.607  12.247  -0.853  1.00  0.00     0.015 C
HETATM   35  C33 UNL     1      44.640  13.056   0.350  1.00  0.00     0.015 C
ENDBRANCH  28  32
ENDBRANCH  27  28
ENDBRANCH  24  27
ENDBRANCH  23  24
ENDBRANCH  21  23
ENDBRANCH  19  20
BRANCH  19  36
HETATM   36  C26 UNL     1      50.231   5.654   1.051  1.00  0.00    -0.010 C
HETATM   37  C27 UNL     1      51.462   6.432   1.074  1.00  0.00     0.018 C
HETATM   38  C28 UNL     1      50.619   4.189   0.807  1.00  0.00     0.018 C
HETATM   39  C29 UNL     1      49.558   6.031  -0.293  1.00  0.00     0.018 C
ENDBRANCH  19  36
ENDBRANCH  12  19
BRANCH  15  40
HETATM   40  C14 UNL     1      46.831   1.326   0.884  1.00  0.00    -0.032 A
HETATM   41  C15 UNL     1      45.658   0.591   0.674  1.00  0.00     0.026 A
HETATM   42  C16 UNL     1      45.234   0.280  -0.598  1.00  0.00     0.088 A
HETATM   43  N3  UNL     1      45.918   0.663  -1.697  1.00  0.00    -0.375 N
HETATM   44  C17 UNL     1      47.039   1.368  -1.538  1.00  0.00     0.088 A
ATOM     45  H3  UNL     1      45.584   0.420  -2.629  1.00  0.00     0.164 HD
HETATM   46  C18 UNL     1      47.488   1.694  -0.268  1.00  0.00     0.026 A
ENDBRANCH  15  40
ENDBRANCH   7  10
ENDBRANCH   1   6
TORSDOF 13
ENDMDL