MODEL 4
REMARK VINA RESULT: -6.698660133      1.384      1.906
REMARK  16 active torsions:
REMARK  status: ('A' for Active; 'I' for Inactive)
REMARK    1  A    between atoms: O1_2  and  C2_3
REMARK       I    between atoms: C2_3  and  N1_5
REMARK    2  A    between atoms: N1_5  and  C4_7
REMARK    3  A    between atoms: C4_7  and  C5_8
REMARK    4  A    between atoms: C5_8  and  O3_9
REMARK    5  A    between atoms: O3_9  and  C6_10
REMARK    6  A    between atoms: C10_14  and  C11_15
REMARK    7  A    between atoms: C11_15  and  C12_16
REMARK    8  A    between atoms: C12_16  and  N2_17
REMARK    9  A    between atoms: C12_16  and  C18_26
REMARK       I    between atoms: N2_17  and  C13_19
REMARK   10  A    between atoms: C13_19  and  O5_21
REMARK   11  A    between atoms: O5_21  and  C14_22
REMARK   12  A    between atoms: C18_26  and  N3_27
REMARK   13  A    between atoms: C18_26  and  C25_43
REMARK   14  A    between atoms: N3_27  and  C19_29
REMARK   15  A    between atoms: C21_35  and  N6_36
REMARK   16  A    between atoms: N6_36  and  C22_38
ROOT
HETATM    1  C12 UNL     1      45.784  10.302  -0.330  1.00  0.00     0.061 C
ENDROOT
BRANCH   1   2
HETATM    2  C11 UNL     1      46.243   8.979   0.136  1.00  0.00     0.044 C
BRANCH   2   3
HETATM    3  C10 UNL     1      47.570   8.445   0.066  1.00  0.00    -0.009 A
HETATM    4  C9  UNL     1      47.906   7.576  -0.983  1.00  0.00     0.013 A
HETATM    5  C8  UNL     1      49.183   7.112  -1.051  1.00  0.00     0.004 A
HETATM    6  C7  UNL     1      50.161   7.465  -0.126  1.00  0.00     0.038 A
HETATM    7  C6  UNL     1      49.876   8.309   0.915  1.00  0.00     0.091 A
HETATM    8  C29 UNL     1      48.542   8.772   0.960  1.00  0.00     0.077 A
HETATM    9 CL1  UNL     1      48.218   9.732   2.422  1.00  0.00    -0.080 Cl
BRANCH   7  10
HETATM   10  O3  UNL     1      50.765   8.711   1.876  1.00  0.00    -0.348 OA
BRANCH  10  11
HETATM   11  C5  UNL     1      50.937   8.135   3.111  1.00  0.00     0.195 C
BRANCH  11  12
HETATM   12  C4  UNL     1      51.104   6.642   3.150  1.00  0.00     0.154 C
BRANCH  12  13
HETATM   13  N1  UNL     1      50.563   6.076   4.376  1.00  0.00    -0.330 N
HETATM   14  C2  UNL     1      51.452   5.524   5.335  1.00  0.00     0.362 C
HETATM   15  O2  UNL     1      50.998   5.017   6.403  1.00  0.00    -0.238 OA
HETATM   16  C3  UNL     1      49.140   6.061   4.627  1.00  0.00     0.155 C
BRANCH  14  17
HETATM   17  O1  UNL     1      52.826   5.511   5.161  1.00  0.00    -0.309 OA
HETATM   18  C1  UNL     1      53.524   4.340   4.842  1.00  0.00     0.215 C
ENDBRANCH  14  17
ENDBRANCH  12  13
ENDBRANCH  11  12
ENDBRANCH  10  11
ENDBRANCH   7  10
ENDBRANCH   2   3
ENDBRANCH   1   2
BRANCH   1  19
HETATM   19  N2  UNL     1      44.500  10.281  -1.007  1.00  0.00    -0.301 N
HETATM   20  C13 UNL     1      44.128  10.131  -2.319  1.00  0.00     0.366 C
HETATM   21  O4  UNL     1      44.937   9.967  -3.257  1.00  0.00    -0.238 OA
ATOM     22  H2  UNL     1      43.709  10.404  -0.374  1.00  0.00     0.171 HD
BRANCH  20  23
HETATM   23  O5  UNL     1      42.780  10.153  -2.716  1.00  0.00    -0.294 OA
BRANCH  23  24
HETATM   24  C14 UNL     1      42.152   8.971  -3.172  1.00  0.00     0.061 C
HETATM   25  C15 UNL     1      42.196   8.835  -4.681  1.00  0.00     0.046 C
HETATM   26  C16 UNL     1      42.664   7.729  -2.509  1.00  0.00     0.046 C
HETATM   27  C17 UNL     1      40.666   9.115  -2.814  1.00  0.00     0.046 C
ENDBRANCH  23  24
ENDBRANCH  20  23
ENDBRANCH   1  19
BRANCH   1  28
HETATM   28  C18 UNL     1      46.697  11.382  -0.677  1.00  0.00     0.061 C
BRANCH  28  29
HETATM   29  N3  UNL     1      46.970  12.141   0.533  1.00  0.00    -0.192 N
ATOM     30  H3  UNL     1      47.838  11.890   1.007  1.00  0.00     0.184 HD
BRANCH  29  31
HETATM   31  C19 UNL     1      46.320  13.046   1.085  1.00  0.00     0.698 A
HETATM   32  N4  UNL     1      45.230  13.606   0.553  1.00  0.00    -0.187 N
HETATM   33  C20 UNL     1      44.569  14.588   1.200  1.00  0.00     0.215 A
ATOM     34  H4  UNL     1      44.892  13.287  -0.356  1.00  0.00     0.185 HD
HETATM   35  N5  UNL     1      45.003  15.021   2.402  1.00  0.00    -0.187 N
HETATM   36  C21 UNL     1      46.113  14.472   2.976  1.00  0.00     0.693 A
ATOM     37  H5  UNL     1      44.497  15.764   2.885  1.00  0.00     0.185 HD
HETATM   38  N7  UNL     1      46.728  13.503   2.292  1.00  0.00    -0.022 N
ATOM     39  H7  UNL     1      47.559  13.081   2.706  1.00  0.00     0.203 HD
BRANCH  36  40
HETATM   40  N6  UNL     1      46.477  14.922   4.115  1.00  0.00    -0.222 N
ATOM     41  H6  UNL     1      46.390  14.266   4.891  1.00  0.00     0.178 HD
BRANCH  40  42
HETATM   42  C22 UNL     1      46.984  16.202   4.458  1.00  0.00     0.091 C
HETATM   43  C23 UNL     1      47.953  16.689   3.402  1.00  0.00     0.032 C
HETATM   44  C24 UNL     1      45.940  17.228   4.777  1.00  0.00     0.032 C
ENDBRANCH  40  42
ENDBRANCH  36  40
ENDBRANCH  29  31
ENDBRANCH  28  29
BRANCH  28  45
HETATM   45  C25 UNL     1      47.666  11.593  -1.700  1.00  0.00    -0.006 C
HETATM   46  C26 UNL     1      48.985  12.011  -0.930  1.00  0.00     0.021 C
HETATM   47  C27 UNL     1      48.190  10.652  -2.670  1.00  0.00     0.021 C
HETATM   48  C28 UNL     1      47.436  12.927  -2.492  1.00  0.00     0.021 C
ENDBRANCH  28  45
ENDBRANCH   1  28
TORSDOF 16
ENDMDL