MODEL 4
REMARK VINA RESULT: -9.059329681      1.849      2.231
REMARK  11 active torsions:
REMARK  status: ('A' for Active; 'I' for Inactive)
REMARK    1  A    between atoms: C3_3  and  O1_4
REMARK    2  A    between atoms: C8_11  and  C9_12
REMARK    3  A    between atoms: C9_12  and  N2_13
REMARK    4  A    between atoms: N2_13  and  C10_14
REMARK    5  A    between atoms: N2_13  and  C11_16
REMARK    6  A    between atoms: C11_16  and  C12_17
REMARK    7  A    between atoms: C15_20  and  C16_21
REMARK    8  A    between atoms: C16_21  and  C17_22
REMARK    9  A    between atoms: C16_21  and  N3_26
REMARK   10  A    between atoms: C17_22  and  C18_23
REMARK       I    between atoms: N3_26  and  C21_27
REMARK   11  A    between atoms: C21_27  and  C22_29
ROOT
HETATM    1  C12 UNL     1      46.898  11.670   0.125  1.00  0.00     0.004 C
HETATM    2  C13 UNL     1      46.237  11.740   1.475  1.00  0.00     0.007 C
HETATM    3  C14 UNL     1      44.940  12.585   1.391  1.00  0.00     0.012 C
HETATM    4  C15 UNL     1      45.047  13.378   0.159  1.00  0.00     0.046 C
HETATM    5  C29 UNL     1      44.956  12.509  -1.061  1.00  0.00     0.012 C
HETATM    6  C30 UNL     1      45.869  11.292  -0.875  1.00  0.00     0.007 C
ENDROOT
BRANCH   1   7
HETATM    7  C11 UNL     1      48.117  10.768   0.210  1.00  0.00     0.130 C
BRANCH   7   8
HETATM    8  N2  UNL     1      48.028   9.681  -0.707  1.00  0.00    -0.355 N
BRANCH   8   9
HETATM    9  C9  UNL     1      47.665   8.347  -0.227  1.00  0.00     0.164 C
BRANCH   9  10
HETATM   10  C8  UNL     1      48.862   7.740   0.457  1.00  0.00    -0.030 A
HETATM   11  C6  UNL     1      48.753   7.523   1.845  1.00  0.00    -0.026 A
HETATM   12  C5  UNL     1      49.850   6.931   2.458  1.00  0.00     0.058 A
HETATM   13  C7  UNL     1      47.573   7.909   2.585  1.00  0.00     0.051 C
HETATM   14  N1  UNL     1      49.826   6.678   3.776  1.00  0.00    -0.330 N
HETATM   15  C33 UNL     1      50.984   6.588   1.694  1.00  0.00     0.064 A
HETATM   16  C3  UNL     1      50.945   6.080   4.319  1.00  0.00     0.152 A
HETATM   17  C4  UNL     1      48.712   6.983   4.588  1.00  0.00     0.158 C
HETATM   18  C2  UNL     1      52.055   5.735   3.615  1.00  0.00     0.040 A
HETATM   19  C1  UNL     1      53.198   5.090   4.299  1.00  0.00     0.057 C
HETATM   20  C34 UNL     1      52.078   5.989   2.291  1.00  0.00     0.196 A
HETATM   21  O4  UNL     1      53.091   5.690   1.579  1.00  0.00    -0.287 OA
HETATM   22  C32 UNL     1      51.026   6.830   0.336  1.00  0.00     0.051 A
HETATM   23  C31 UNL     1      49.966   7.406  -0.281  1.00  0.00     0.034 A
HETATM   24 CL1  UNL     1      52.479   6.370  -0.545  1.00  0.00    -0.083 Cl
BRANCH  16  25
HETATM   25  O1  UNL     1      50.882   5.832   5.712  1.00  0.00    -0.345 OA
ATOM     26  H1  UNL     1      50.550   6.499   6.301  1.00  0.00     0.219 HD
ENDBRANCH  16  25
ENDBRANCH   9  10
ENDBRANCH   8   9
BRANCH   8  27
HETATM   27  C10 UNL     1      48.300   9.872  -2.087  1.00  0.00     0.351 C
HETATM   28  O2  UNL     1      47.974   9.035  -2.972  1.00  0.00    -0.284 OA
ENDBRANCH   8  27
ENDBRANCH   7   8
ENDBRANCH   1   7
BRANCH   4  29
HETATM   29  C16 UNL     1      44.198  14.641   0.034  1.00  0.00     0.070 C
BRANCH  29  30
HETATM   30  C17 UNL     1      44.086  14.937  -1.413  1.00  0.00     0.072 C
BRANCH  30  31
HETATM   31  C18 UNL     1      43.309  16.105  -1.869  1.00  0.00    -0.016 C
HETATM   32  C19 UNL     1      42.015  15.878  -2.541  1.00  0.00     0.010 C
HETATM   33  C20 UNL     1      44.198  17.097  -2.656  1.00  0.00     0.010 C
ENDBRANCH  30  31
ENDBRANCH  29  30
BRANCH  29  34
HETATM   34  N3  UNL     1      44.318  15.636   0.969  1.00  0.00    -0.378 NA
HETATM   35  C21 UNL     1      44.436  16.628   1.897  1.00  0.00     0.323 C
HETATM   36  O3  UNL     1      44.197  17.858   1.821  1.00  0.00    -0.255 OA
BRANCH  35  37
HETATM   37  C22 UNL     1      44.948  16.265   3.300  1.00  0.00     0.296 C
HETATM   38  N4  UNL     1      45.297  17.483   3.984  1.00  0.00    -0.057 N
HETATM   39  C23 UNL     1      46.213  17.134   5.086  1.00  0.00     0.187 C
ATOM     40  H42 UNL     1      45.680  18.192   3.360  1.00  0.00     0.278 HD
ATOM     41  H41 UNL     1      44.480  18.006   4.299  1.00  0.00     0.278 HD
HETATM   42  C24 UNL     1      47.596  17.186   4.447  1.00  0.00     0.033 C
HETATM   43  C28 UNL     1      46.003  15.692   5.523  1.00  0.00     0.033 C
HETATM   44  C25 UNL     1      47.425  16.518   3.088  1.00  0.00     0.009 C
HETATM   45  C26 UNL     1      46.268  15.510   3.127  1.00  0.00     0.027 C
HETATM   46  C27 UNL     1      46.451  14.735   4.413  1.00  0.00     0.009 C
ENDBRANCH  35  37
ENDBRANCH  29  34
ENDBRANCH   4  29
TORSDOF 11
ENDMDL