MODEL 2
REMARK VINA RESULT: -9.294357014      1.053      1.413
REMARK  13 active torsions:
REMARK  status: ('A' for Active; 'I' for Inactive)
REMARK    1  A    between atoms: C2_2  and  C3_3
REMARK    2  A    between atoms: C2_2  and  C14_21
REMARK    3  A    between atoms: C3_3  and  C4_4
REMARK    4  A    between atoms: C4_4  and  C5_5
REMARK    5  A    between atoms: C8_8  and  O1_9
REMARK    6  A    between atoms: O1_9  and  C9_10
REMARK    7  A    between atoms: C9_10  and  C10_12
REMARK    8  A    between atoms: C10_12  and  C11_13
REMARK    9  A    between atoms: C10_12  and  N1_15
REMARK   10  A    between atoms: C21_28  and  C22_29
REMARK   11  A    between atoms: C22_29  and  C23_30
REMARK   12  A    between atoms: C22_29  and  C24_32
REMARK   13  A    between atoms: C30_41  and  O6_42
ROOT
HETATM    1  C14 UNL     1      48.970   9.328   1.423  1.00  0.00     0.043 C
HETATM    2  C15 UNL     1      49.602   9.370   0.047  1.00  0.00     0.018 C
HETATM    3  C16 UNL     1      48.997  10.538  -0.645  1.00  0.00     0.040 C
HETATM    4  C17 UNL     1      47.897  11.030   0.275  1.00  0.00    -0.049 C
HETATM    5  C18 UNL     1      47.918  10.330   1.371  1.00  0.00    -0.065 C
HETATM    6  C19 UNL     1      46.749  10.622   2.301  1.00  0.00     0.040 C
HETATM    7  C20 UNL     1      46.398  12.010   2.386  1.00  0.00     0.040 C
HETATM    8  C21 UNL     1      46.383  12.776   1.046  1.00  0.00    -0.062 C
HETATM    9  C33 UNL     1      47.099  12.272   0.108  1.00  0.00    -0.052 C
HETATM   10  C34 UNL     1      47.139  12.814  -1.290  1.00  0.00     0.049 C
ENDROOT
BRANCH   1  11
HETATM   11  C2  UNL     1      48.705   7.958   1.849  1.00  0.00    -0.081 C
HETATM   12  C1  UNL     1      47.946   7.129   1.192  1.00  0.00     0.015 C
BRANCH  11  13
HETATM   13  C3  UNL     1      49.347   7.493   3.127  1.00  0.00     0.038 C
BRANCH  13  14
HETATM   14  C4  UNL     1      50.735   7.924   3.312  1.00  0.00     0.034 C
BRANCH  14  15
HETATM   15  C5  UNL     1      51.675   7.008   2.619  1.00  0.00     0.006 C
HETATM   16  C6  UNL     1      52.283   6.084   3.369  1.00  0.00     0.055 A
HETATM   17  C7  UNL     1      52.090   5.912   4.818  1.00  0.00     0.132 A
HETATM   18  O3  UNL     1      53.194   5.124   2.966  1.00  0.00    -0.325 OA
HETATM   19  C8  UNL     1      52.976   4.783   5.160  1.00  0.00     0.085 A
HETATM   20  C13 UNL     1      53.571   4.381   4.071  1.00  0.00     0.175 A
BRANCH  19  21
HETATM   21  O1  UNL     1      53.182   4.201   6.428  1.00  0.00    -0.279 OA
BRANCH  21  22
HETATM   22  C9  UNL     1      52.108   3.789   7.201  1.00  0.00     0.296 C
HETATM   23  O2  UNL     1      51.639   4.661   7.987  1.00  0.00    -0.262 OA
BRANCH  22  24
HETATM   24  C10 UNL     1      51.525   2.432   7.137  1.00  0.00     0.298 C
BRANCH  24  25
HETATM   25  C11 UNL     1      52.599   1.434   6.800  1.00  0.00     0.158 C
HETATM   26 CL1  UNL     1      52.492   1.042   5.072  1.00  0.00    -0.128 Cl
ENDBRANCH  24  25
BRANCH  24  27
HETATM   27  N1  UNL     1      50.417   2.359   6.209  1.00  0.00    -0.065 N
HETATM   28  C12 UNL     1      49.327   1.575   6.682  1.00  0.00     0.268 C
ATOM     29  H12 UNL     1      50.102   3.294   5.950  1.00  0.00     0.277 HD
ATOM     30  H11 UNL     1      50.731   2.026   5.298  1.00  0.00     0.277 HD
ENDBRANCH  24  27
ENDBRANCH  22  24
ENDBRANCH  21  22
ENDBRANCH  19  21
ENDBRANCH  14  15
ENDBRANCH  13  14
ENDBRANCH  11  13
ENDBRANCH   1  11
BRANCH   8  31
HETATM   31  C22 UNL     1      45.613  14.004   1.132  1.00  0.00     0.082 C
BRANCH  31  32
HETATM   32  C23 UNL     1      44.384  13.733   0.253  1.00  0.00     0.240 C
HETATM   33  O4  UNL     1      44.271  14.334  -0.767  1.00  0.00    -0.306 OA
ENDBRANCH  31  32
BRANCH  31  34
HETATM   34  C24 UNL     1      45.124  14.678   2.315  1.00  0.00     0.020 C
HETATM   35  C25 UNL     1      44.004  15.652   1.973  1.00  0.00     0.034 C
HETATM   36  C26 UNL     1      44.570  17.017   2.170  1.00  0.00    -0.022 C
HETATM   37  C27 UNL     1      45.730  16.978   2.736  1.00  0.00    -0.062 C
HETATM   38  C28 UNL     1      46.717  18.010   3.163  1.00  0.00     0.137 C
HETATM   39  C31 UNL     1      46.105  15.580   3.014  1.00  0.00     0.028 C
HETATM   40  C29 UNL     1      47.113  17.659   4.586  1.00  0.00     0.223 C
HETATM   41  O5  UNL     1      47.747  18.524   5.226  1.00  0.00    -0.273 OA
HETATM   42  N2  UNL     1      46.775  16.405   5.158  1.00  0.00    -0.334 N
HETATM   43  C30 UNL     1      45.849  15.462   4.548  1.00  0.00     0.233 C
ATOM     44  H2  UNL     1      47.204  16.150   6.047  1.00  0.00     0.165 HD
HETATM   45  C32 UNL     1      47.547  15.285   2.844  1.00  0.00     0.025 C
BRANCH  43  46
HETATM   46  O6  UNL     1      44.556  15.786   4.870  1.00  0.00    -0.376 OA
ATOM     47  H6  UNL     1      44.302  16.598   4.447  1.00  0.00     0.212 HD
ENDBRANCH  43  46
ENDBRANCH  31  34
ENDBRANCH   8  31
TORSDOF 13
ENDMDL