MODEL 5
REMARK VINA RESULT: -6.170588733      1.820      2.692
REMARK  12 active torsions:
REMARK  status: ('A' for Active; 'I' for Inactive)
REMARK    1  A    between atoms: C2_2  and  N1_3
REMARK    2  A    between atoms: N1_3  and  C4_5
REMARK    3  A    between atoms: C4_5  and  C5_6
REMARK    4  A    between atoms: C5_6  and  C8_9
REMARK    5  A    between atoms: C8_9  and  C9_10
REMARK    6  A    between atoms: C9_10  and  C10_12
REMARK    7  A    between atoms: C12_14  and  O2_15
REMARK    8  A    between atoms: C21_25  and  C23_27
REMARK    9  A    between atoms: C24_29  and  C25_30
REMARK   10  A    between atoms: C25_30  and  O3_31
REMARK   11  A    between atoms: C26_33  and  O4_34
REMARK   12  A    between atoms: O4_34  and  S1_35
ROOT
HETATM    1  C10 UNL     1      48.270   8.680  -0.203  1.00  0.00     0.091 C
HETATM    2  C11 UNL     1      49.157   9.441  -1.213  1.00  0.00     0.049 C
HETATM    3  C12 UNL     1      48.785   8.868  -2.555  1.00  0.00     0.123 C
HETATM    4  C13 UNL     1      48.206   7.488  -2.444  1.00  0.00     0.066 C
HETATM    5  C14 UNL     1      48.731   6.718  -1.280  1.00  0.00    -0.073 C
HETATM    6  C15 UNL     1      48.796   7.308  -0.043  1.00  0.00    -0.057 C
HETATM    7  C16 UNL     1      49.370   6.562   1.055  1.00  0.00    -0.015 C
HETATM    8  C17 UNL     1      50.696   7.301   1.413  1.00  0.00     0.020 C
HETATM    9  C18 UNL     1      48.639   6.532   2.354  1.00  0.00     0.014 C
HETATM   10  C19 UNL     1      49.232   5.738   3.442  1.00  0.00     0.007 C
HETATM   11  C20 UNL     1      50.307   4.745   3.096  1.00  0.00     0.005 C
HETATM   12  C21 UNL     1      50.467   3.843   4.301  1.00  0.00    -0.006 C
HETATM   13  C22 UNL     1      50.198   4.730   5.573  1.00  0.00     0.018 C
HETATM   14  C24 UNL     1      49.514   2.724   4.400  1.00  0.00     0.050 C
HETATM   15  C26 UNL     1      48.473   2.643   3.312  1.00  0.00     0.153 C
HETATM   16  C27 UNL     1      48.684   3.295   2.023  1.00  0.00     0.044 C
HETATM   17  C28 UNL     1      49.916   4.151   1.818  1.00  0.00    -0.033 C
HETATM   18  C29 UNL     1      50.918   3.182   1.192  1.00  0.00     0.016 C
HETATM   19  C30 UNL     1      49.728   5.155   0.722  1.00  0.00     0.007 C
HETATM   20  C31 UNL     1      48.699   4.622  -0.261  1.00  0.00     0.011 C
HETATM   21  C32 UNL     1      49.116   5.323  -1.574  1.00  0.00     0.035 C
ENDROOT
BRANCH   1  22
HETATM   22  C9  UNL     1      47.986   9.568   0.892  1.00  0.00     0.154 C
HETATM   23  O1  UNL     1      48.947   9.983   1.551  1.00  0.00    -0.293 OA
BRANCH  22  24
HETATM   24  C8  UNL     1      46.651  10.005   1.279  1.00  0.00     0.034 C
BRANCH  24  25
HETATM   25  C5  UNL     1      46.078  11.299   1.054  1.00  0.00    -0.000 C
HETATM   26  C6  UNL     1      46.788  12.029  -0.154  1.00  0.00     0.021 C
HETATM   27  C7  UNL     1      44.706  10.944   0.318  1.00  0.00     0.021 C
BRANCH  25  28
HETATM   28  C4  UNL     1      45.697  12.330   1.991  1.00  0.00     0.284 C
BRANCH  28  29
HETATM   29  N1  UNL     1      45.909  13.732   1.711  1.00  0.00     0.084 N
HETATM   30  C3  UNL     1      46.448  14.448   2.899  1.00  0.00     0.309 C
BRANCH  29  31
HETATM   31  C2  UNL     1      44.573  14.388   1.588  1.00  0.00     0.267 C
HETATM   32  C1  UNL     1      44.509  15.676   2.338  1.00  0.00     0.037 C
ENDBRANCH  29  31
ENDBRANCH  28  29
ENDBRANCH  25  28
ENDBRANCH  24  25
ENDBRANCH  22  24
ENDBRANCH   1  22
BRANCH   3  33
HETATM   33  O2  UNL     1      49.932   8.810  -3.339  1.00  0.00    -0.395 OA
ATOM     34  H2  UNL     1      50.578   9.397  -2.966  1.00  0.00     0.210 HD
ENDBRANCH   3  33
BRANCH  12  35
HETATM   35  C23 UNL     1      51.920   3.560   4.617  1.00  0.00     0.232 C
HETATM   36  F1  UNL     1      52.888   4.254   4.039  1.00  0.00    -0.255 F
ENDBRANCH  12  35
BRANCH  15  37
HETATM   37  O4  UNL     1      48.218   1.253   3.163  1.00  0.00    -0.251 OA
BRANCH  37  38
HETATM   38  S1  UNL     1      46.630   0.835   3.254  1.00  0.00     0.251 S
HETATM   39  O5  UNL     1      46.231  -0.217   2.254  1.00  0.00    -0.572 OA
HETATM   40  O6  UNL     1      46.384   0.229   4.619  1.00  0.00    -0.572 OA
HETATM   41  O7  UNL     1      45.564   2.108   3.088  1.00  0.00    -0.572 OA
ENDBRANCH  37  38
ENDBRANCH  15  37
BRANCH  14  42
HETATM   42  C25 UNL     1      50.043   1.381   4.816  1.00  0.00     0.172 C
BRANCH  42  43
HETATM   43  O3  UNL     1      49.363   0.608   5.659  1.00  0.00    -0.400 OA
ATOM     44  H3  UNL     1      48.586   0.141   5.375  1.00  0.00     0.209 HD
ENDBRANCH  42  43
ENDBRANCH  14  42
TORSDOF 12
ENDMDL