MODEL 2
REMARK VINA RESULT: -8.362442547      1.435      2.277
REMARK  16 active torsions:
REMARK  status: ('A' for Active; 'I' for Inactive)
REMARK    1  A    between atoms: C3_5  and  O1_6
REMARK    2  A    between atoms: C4_8  and  C5_9
REMARK    3  A    between atoms: C5_9  and  C6_10
REMARK    4  A    between atoms: C6_10  and  C7_11
REMARK    5  A    between atoms: C7_11  and  C8_12
REMARK    6  A    between atoms: C8_12  and  C9_13
REMARK    7  A    between atoms: C9_13  and  C10_14
REMARK    8  A    between atoms: C10_14  and  C11_15
REMARK    9  A    between atoms: C11_15  and  C12_17
REMARK   10  A    between atoms: C16_21  and  N2_22
REMARK   11  A    between atoms: C22_28  and  C24_30
REMARK   12  A    between atoms: C24_30  and  O2_31
REMARK   13  A    between atoms: N3_34  and  C26_35
REMARK   14  A    between atoms: C26_35  and  C27_36
REMARK   15  A    between atoms: C32_41  and  O3_42
REMARK   16  A    between atoms: C34_49  and  O4_50
ROOT
HETATM    1  C1  UNL     1      43.850  12.116  -2.992  1.00  0.00     0.041 C
HETATM    2  C2  UNL     1      44.684  12.705  -1.831  1.00  0.00     0.155 C
HETATM    3  N1  UNL     1      44.186  12.205  -0.611  1.00  0.00    -0.361 N
ATOM      4  H1  UNL     1      43.215  11.894  -0.599  1.00  0.00     0.162 HD
HETATM    5  C3  UNL     1      44.907  12.099   0.591  1.00  0.00     0.136 C
HETATM    6  C4  UNL     1      45.840  12.984   1.164  1.00  0.00     0.164 C
HETATM    7  N3  UNL     1      45.335  14.210   1.810  1.00  0.00    -0.339 N
HETATM    8  C33 UNL     1      44.434  15.075   1.184  1.00  0.00     0.200 C
HETATM    9  N4  UNL     1      44.121  15.409   0.062  1.00  0.00    -0.294 N
ATOM     10  H4  UNL     1      43.379  16.104   0.138  1.00  0.00     0.187 HD
HETATM   11  N5  UNL     1      44.372  15.218  -1.246  1.00  0.00    -0.281 N
ATOM     12  H5  UNL     1      44.137  16.021  -1.828  1.00  0.00     0.189 HD
HETATM   13  C34 UNL     1      44.889  14.145  -1.963  1.00  0.00     0.153 C
ENDROOT
BRANCH   6  14
HETATM   14  C5  UNL     1      46.920  12.317   2.018  1.00  0.00     0.034 C
BRANCH  14  15
HETATM   15  C6  UNL     1      47.700  11.261   1.383  1.00  0.00     0.006 C
BRANCH  15  16
HETATM   16  C7  UNL     1      47.680   9.977   2.259  1.00  0.00     0.027 C
BRANCH  16  17
HETATM   17  C8  UNL     1      48.654   9.081   1.518  1.00  0.00    -0.027 C
BRANCH  17  18
HETATM   18  C9  UNL     1      49.444   8.285   2.158  1.00  0.00    -0.005 C
BRANCH  18  19
HETATM   19  C10 UNL     1      49.511   7.551   3.316  1.00  0.00     0.010 C
BRANCH  19  20
HETATM   20  C11 UNL     1      48.882   6.524   4.083  1.00  0.00     0.197 C
HETATM   21  F1  UNL     1      48.245   7.218   5.234  1.00  0.00    -0.245 F
BRANCH  20  22
HETATM   22  C12 UNL     1      49.658   5.423   4.833  1.00  0.00     0.024 C
HETATM   23  C13 UNL     1      49.298   4.155   4.104  1.00  0.00     0.012 C
HETATM   24  C14 UNL     1      50.024   3.635   2.991  1.00  0.00    -0.008 C
HETATM   25  C15 UNL     1      50.317   2.126   3.268  1.00  0.00     0.041 C
HETATM   26  C20 UNL     1      51.409   4.138   2.706  1.00  0.00    -0.007 C
HETATM   27  C16 UNL     1      51.733   2.147   3.749  1.00  0.00     0.227 C
HETATM   28  C19 UNL     1      52.127   3.545   3.940  1.00  0.00     0.033 C
HETATM   29  C22 UNL     1      51.907   4.343   5.119  1.00  0.00    -0.016 C
HETATM   30  C23 UNL     1      53.316   4.964   5.442  1.00  0.00     0.018 C
HETATM   31  C25 UNL     1      51.086   5.652   4.950  1.00  0.00     0.019 C
HETATM   32  C21 UNL     1      51.899   3.444   1.445  1.00  0.00     0.011 C
BRANCH  27  33
HETATM   33  N2  UNL     1      52.120   1.143   4.653  1.00  0.00     0.085 N
HETATM   34  C17 UNL     1      53.597   1.021   4.627  1.00  0.00     0.309 C
HETATM   35  C18 UNL     1      51.664  -0.185   4.329  1.00  0.00     0.309 C
ENDBRANCH  27  33
BRANCH  29  36
HETATM   36  C24 UNL     1      51.588   3.766   6.444  1.00  0.00     0.173 C
BRANCH  36  37
HETATM   37  O2  UNL     1      51.746   4.677   7.523  1.00  0.00    -0.400 OA
ATOM     38  H2  UNL     1      52.499   4.497   8.074  1.00  0.00     0.209 HD
ENDBRANCH  36  37
ENDBRANCH  29  36
ENDBRANCH  20  22
ENDBRANCH  19  20
ENDBRANCH  18  19
ENDBRANCH  17  18
ENDBRANCH  16  17
ENDBRANCH  15  16
ENDBRANCH  14  15
ENDBRANCH   6  14
BRANCH   5  39
HETATM   39  O1  UNL     1      44.608  10.970   1.199  1.00  0.00    -0.348 OA
ATOM     40  H1  UNL     1      45.400  10.543   1.503  1.00  0.00     0.219 HD
ENDBRANCH   5  39
BRANCH   7  41
HETATM   41  C26 UNL     1      45.764  14.431   3.158  1.00  0.00     0.107 C
BRANCH  41  42
HETATM   42  C27 UNL     1      46.435  15.650   3.533  1.00  0.00     0.013 A
HETATM   43  C28 UNL     1      47.703  16.025   3.196  1.00  0.00     0.015 A
HETATM   44  C29 UNL     1      48.298  17.107   3.849  1.00  0.00     0.001 A
HETATM   45  C30 UNL     1      47.655  17.820   4.834  1.00  0.00     0.003 A
HETATM   46  C31 UNL     1      46.387  17.449   5.167  1.00  0.00     0.037 A
HETATM   47  C32 UNL     1      45.784  16.402   4.548  1.00  0.00     0.077 A
BRANCH  47  48
HETATM   48  O3  UNL     1      44.488  16.073   4.935  1.00  0.00    -0.360 OA
ATOM     49  H3  UNL     1      44.044  16.592   5.595  1.00  0.00     0.217 HD
ENDBRANCH  47  48
ENDBRANCH  41  42
ENDBRANCH   7  41
BRANCH  13  50
HETATM   50  O4  UNL     1      45.694  14.449  -2.942  1.00  0.00    -0.347 OA
ATOM     51  H4  UNL     1      45.504  15.300  -3.319  1.00  0.00     0.219 HD
ENDBRANCH  13  50
TORSDOF 16
ENDMDL