MODEL 4
REMARK VINA RESULT: -9.709628920      1.693      2.441
REMARK  6 active torsions:
REMARK  status: ('A' for Active; 'I' for Inactive)
REMARK    1  A    between atoms: C7_7  and  C8_8
REMARK    2  A    between atoms: C11_11  and  S1_12
REMARK    3  A    between atoms: S1_12  and  C12_13
REMARK    4  A    between atoms: C12_13  and  C13_14
REMARK    5  A    between atoms: C13_14  and  N1_15
REMARK    6  A    between atoms: C14_18  and  C15_19
ROOT
HETATM    1  N1  UNL     1      47.994   7.982   0.179  1.00  0.00    -0.276 N
HETATM    2  N2  UNL     1      48.417   6.852   0.660  1.00  0.00    -0.292 N
ATOM      3  H2  UNL     1      48.026   5.910   0.677  1.00  0.00     0.187 HD
HETATM    4  C14 UNL     1      49.590   7.395   1.138  1.00  0.00     0.120 A
HETATM    5  C28 UNL     1      49.128   8.576   0.626  1.00  0.00     0.163 A
HETATM    6  N5  UNL     1      49.481   9.953   0.449  1.00  0.00    -0.079 NA
ENDROOT
BRANCH   4   7
HETATM    7  C15 UNL     1      50.761   6.798   1.752  1.00  0.00     0.092 A
HETATM    8  N3  UNL     1      51.947   6.784   1.121  1.00  0.00    -0.297 N
HETATM    9  N4  UNL     1      52.813   6.340   1.898  1.00  0.00    -0.299 N
ATOM     10  H3  UNL     1      52.111   7.088   0.161  1.00  0.00     0.187 HD
HETATM   11  C16 UNL     1      52.271   6.004   3.149  1.00  0.00     0.060 A
ATOM     12  H4  UNL     1      53.798   6.233   1.654  1.00  0.00     0.187 HD
HETATM   13  C17 UNL     1      50.942   6.287   3.086  1.00  0.00     0.022 A
HETATM   14  C27 UNL     1      53.233   5.480   4.107  1.00  0.00     0.035 C
HETATM   15  C18 UNL     1      49.805   6.099   3.985  1.00  0.00     0.017 C
HETATM   16  C19 UNL     1      49.462   5.448   5.071  1.00  0.00     0.013 C
HETATM   17  C20 UNL     1      50.434   4.558   5.756  1.00  0.00    -0.025 A
HETATM   18  C21 UNL     1      51.242   3.837   6.506  1.00  0.00     0.024 A
HETATM   19  C22 UNL     1      51.252   3.680   5.085  1.00  0.00    -0.025 A
HETATM   20  C23 UNL     1      51.457   3.213   3.842  1.00  0.00     0.015 C
HETATM   21  C24 UNL     1      52.611   2.279   3.643  1.00  0.00     0.043 C
HETATM   22  C25 UNL     1      53.781   2.962   3.961  1.00  0.00     0.116 C
HETATM   23  F1  UNL     1      54.913   2.238   3.827  1.00  0.00    -0.206 F
HETATM   24  C26 UNL     1      53.805   4.348   4.422  1.00  0.00     0.044 C
ENDBRANCH   4   7
BRANCH   1  25
HETATM   25  C13 UNL     1      46.814   8.403  -0.559  1.00  0.00     0.161 C
BRANCH  25  26
HETATM   26  C12 UNL     1      45.629   8.574   0.373  1.00  0.00     0.101 C
BRANCH  26  27
HETATM   27  S1  UNL     1      44.656  10.006  -0.177  1.00  0.00    -0.127 SA
BRANCH  27  28
HETATM   28  C11 UNL     1      45.174  11.472   0.724  1.00  0.00     0.016 A
HETATM   29  C10 UNL     1      46.082  11.463   1.742  1.00  0.00     0.022 A
HETATM   30  C9  UNL     1      46.409  12.651   2.375  1.00  0.00     0.032 A
HETATM   31  C8  UNL     1      45.817  13.831   1.973  1.00  0.00     0.042 A
HETATM   32  N6  UNL     1      44.951  13.797   0.991  1.00  0.00    -0.364 N
HETATM   33  C29 UNL     1      44.618  12.672   0.365  1.00  0.00     0.106 A
ATOM     34  H6  UNL     1      44.513  14.669   0.694  1.00  0.00     0.165 HD
BRANCH  31  35
HETATM   35  C7  UNL     1      46.178  15.086   2.647  1.00  0.00    -0.004 A
HETATM   36  C2  UNL     1      45.369  16.208   2.519  1.00  0.00    -0.050 A
HETATM   37  C1  UNL     1      44.115  16.210   1.736  1.00  0.00     0.049 C
HETATM   38  C3  UNL     1      45.781  17.380   3.170  1.00  0.00     0.007 A
HETATM   39  C4  UNL     1      46.930  17.460   3.913  1.00  0.00     0.001 A
HETATM   40  C5  UNL     1      47.716  16.364   4.036  1.00  0.00     0.001 A
HETATM   41  C6  UNL     1      47.320  15.182   3.392  1.00  0.00     0.014 A
ENDBRANCH  31  35
ENDBRANCH  27  28
ENDBRANCH  26  27
ENDBRANCH  25  26
ENDBRANCH   1  25
TORSDOF 6
ENDMDL