MODEL 5
REMARK VINA RESULT: -9.239301107      2.411      3.182
REMARK  7 active torsions:
REMARK  status: ('A' for Active; 'I' for Inactive)
REMARK    1  A    between atoms: N1_2  and  C2_3
REMARK    2  A    between atoms: N1_2  and  C9_11
REMARK    3  A    between atoms: C2_3  and  C3_4
REMARK    4  A    between atoms: C9_11  and  C10_12
REMARK    5  A    between atoms: C12_14  and  O1_15
REMARK    6  A    between atoms: O1_15  and  C13_16
REMARK    7  A    between atoms: C22_32  and  C23_33
ROOT
HETATM    1  C10 UNL     1      44.506  11.209  -1.261  1.00  0.00    -0.027 A
HETATM    2  C11 UNL     1      45.001   9.992  -0.792  1.00  0.00     0.046 A
HETATM    3  C12 UNL     1      45.686   9.900   0.401  1.00  0.00     0.077 A
HETATM    4  C21 UNL     1      45.887  11.042   1.143  1.00  0.00     0.052 A
HETATM    5  C22 UNL     1      45.418  12.281   0.726  1.00  0.00     0.011 A
HETATM    6  C30 UNL     1      44.739  12.317  -0.472  1.00  0.00     0.024 A
ENDROOT
BRANCH   3   7
HETATM    7  O1  UNL     1      46.142   8.653   0.794  1.00  0.00    -0.311 OA
BRANCH   7   8
HETATM    8  C13 UNL     1      47.475   8.404   1.099  1.00  0.00     0.077 A
HETATM    9  C14 UNL     1      48.437   8.740   0.172  1.00  0.00     0.039 A
HETATM   10  C15 UNL     1      49.747   8.485   0.492  1.00  0.00     0.033 A
HETATM   11  C16 UNL     1      50.056   7.908   1.712  1.00  0.00     0.047 A
HETATM   12  N2  UNL     1      51.353   7.655   2.030  1.00  0.00    -0.352 N
HETATM   13  C19 UNL     1      49.095   7.574   2.635  1.00  0.00     0.037 A
HETATM   14  C17 UNL     1      51.645   7.096   3.215  1.00  0.00     0.182 A
ATOM     15  H2  UNL     1      52.099   7.888   1.374  1.00  0.00     0.166 HD
HETATM   16  N3  UNL     1      50.698   6.768   4.120  1.00  0.00    -0.338 N
HETATM   17  C18 UNL     1      49.401   7.000   3.850  1.00  0.00     0.112 A
ATOM     18  H3  UNL     1      50.966   6.344   5.007  1.00  0.00     0.168 HD
HETATM   19  N4  UNL     1      48.468   6.699   4.694  1.00  0.00    -0.385 N
ATOM     20  H42 UNL     1      48.694   6.274   5.593  1.00  0.00     0.157 HD
ATOM     21  H41 UNL     1      47.484   6.875   4.489  1.00  0.00     0.157 HD
HETATM   22  C20 UNL     1      47.778   7.829   2.316  1.00  0.00     0.054 A
ENDBRANCH   7   8
ENDBRANCH   3   7
BRANCH   1  23
HETATM   23  C9  UNL     1      43.772  11.285  -2.546  1.00  0.00     0.311 C
BRANCH  23  24
HETATM   24  N1  UNL     1      44.507  10.798  -3.675  1.00  0.00     0.092 N
HETATM   25  C1  UNL     1      43.518  10.433  -4.693  1.00  0.00     0.310 C
BRANCH  24  26
HETATM   26  C2  UNL     1      45.393  11.823  -4.147  1.00  0.00     0.310 C
BRANCH  26  27
HETATM   27  C3  UNL     1      46.765  11.685  -3.562  1.00  0.00    -0.030 A
HETATM   28  C4  UNL     1      47.404  10.476  -3.615  1.00  0.00     0.010 A
HETATM   29  C5  UNL     1      48.662  10.332  -3.084  1.00  0.00     0.024 A
HETATM   30  C6  UNL     1      49.304  11.396  -2.487  1.00  0.00     0.034 A
HETATM   31 CL1  UNL     1      50.915  11.195  -1.811  1.00  0.00    -0.084 Cl
HETATM   32  C7  UNL     1      48.630  12.599  -2.450  1.00  0.00     0.024 A
HETATM   33  C8  UNL     1      47.385  12.754  -2.973  1.00  0.00     0.010 A
ENDBRANCH  26  27
ENDBRANCH  24  26
ENDBRANCH  23  24
ENDBRANCH   1  23
BRANCH   5  34
HETATM   34  C23 UNL     1      45.645  13.473   1.532  1.00  0.00     0.116 A
HETATM   35  N5  UNL     1      46.647  13.626   2.414  1.00  0.00    -0.340 N
HETATM   36  C24 UNL     1      46.576  14.838   2.990  1.00  0.00     0.060 A
ATOM     37  H5  UNL     1      47.359  12.924   2.616  1.00  0.00     0.167 HD
HETATM   38  C25 UNL     1      47.337  15.486   3.938  1.00  0.00     0.032 A
HETATM   39  C29 UNL     1      45.481  15.483   2.451  1.00  0.00     0.060 A
HETATM   40  C26 UNL     1      47.030  16.773   4.365  1.00  0.00     0.002 A
HETATM   41  C27 UNL     1      45.939  17.413   3.826  1.00  0.00     0.002 A
HETATM   42  C28 UNL     1      45.175  16.777   2.883  1.00  0.00     0.032 A
HETATM   43  N6  UNL     1      44.947  14.617   1.571  1.00  0.00    -0.340 N
ATOM     44  H6  UNL     1      44.119  14.806   1.007  1.00  0.00     0.167 HD
ENDBRANCH   5  34
TORSDOF 7
ENDMDL