MODEL 2
REMARK VINA RESULT: -9.550505714      1.070      1.478
REMARK  7 active torsions:
REMARK  status: ('A' for Active; 'I' for Inactive)
REMARK    1  A    between atoms: C4_4  and  C5_5
REMARK    2  A    between atoms: C8_8  and  C9_9
REMARK    3  A    between atoms: C9_9  and  C10_10
REMARK    4  A    between atoms: C9_9  and  C19_29
REMARK    5  A    between atoms: C10_10  and  N1_11
REMARK    6  A    between atoms: N1_11  and  C11_13
REMARK    7  A    between atoms: C13_15  and  C14_16
ROOT
HETATM    1  C19 UNL     1      46.513   9.226  -0.261  1.00  0.00    -0.048 A
HETATM    2  C20 UNL     1      45.435   8.808   0.494  1.00  0.00     0.009 A
HETATM    3  C21 UNL     1      44.251   8.408  -0.090  1.00  0.00     0.023 A
HETATM    4  C22 UNL     1      44.083   8.407  -1.468  1.00  0.00     0.044 A
HETATM    5  C23 UNL     1      42.856   7.994  -2.076  1.00  0.00     0.099 C
HETATM    6  N5  UNL     1      41.854   7.662  -2.551  1.00  0.00    -0.191 NA
HETATM    7  C24 UNL     1      45.166   8.826  -2.211  1.00  0.00     0.023 A
HETATM    8  C25 UNL     1      46.349   9.226  -1.630  1.00  0.00     0.009 A
ENDROOT
BRANCH   1   9
HETATM    9  C9  UNL     1      47.790   9.656   0.353  1.00  0.00     0.069 C
BRANCH   9  10
HETATM   10  C8  UNL     1      48.358   8.654   1.283  1.00  0.00    -0.048 A
HETATM   11  C7  UNL     1      48.931   7.494   0.806  1.00  0.00     0.009 A
HETATM   12  C6  UNL     1      49.443   6.599   1.719  1.00  0.00     0.013 A
HETATM   13  C5  UNL     1      49.429   6.768   3.084  1.00  0.00    -0.023 A
HETATM   14  C27 UNL     1      48.850   7.936   3.547  1.00  0.00     0.013 A
HETATM   15  C26 UNL     1      48.326   8.861   2.670  1.00  0.00     0.009 A
BRANCH  13  16
HETATM   16  C4  UNL     1      49.992   5.772   4.003  1.00  0.00     0.006 A
HETATM   17  C3  UNL     1      49.469   4.609   4.476  1.00  0.00     0.047 A
HETATM   18  C2  UNL     1      50.413   4.059   5.304  1.00  0.00     0.050 A
HETATM   19  C1  UNL     1      50.287   2.778   6.054  1.00  0.00     0.076 C
HETATM   20  O2  UNL     1      51.434   4.851   5.320  1.00  0.00    -0.319 OA
HETATM   21  C28 UNL     1      51.256   5.903   4.562  1.00  0.00     0.060 A
HETATM   22  C29 UNL     1      52.250   6.974   4.387  1.00  0.00     0.077 C
ENDBRANCH  13  16
ENDBRANCH   9  10
BRANCH   9  23
HETATM   23  C10 UNL     1      47.725  11.044   0.918  1.00  0.00     0.134 C
BRANCH  23  24
HETATM   24  N1  UNL     1      46.438  11.367   1.466  1.00  0.00    -0.388 N
ATOM     25  H1  UNL     1      45.859  10.608   1.829  1.00  0.00     0.159 HD
BRANCH  24  26
HETATM   26  C11 UNL     1      45.939  12.677   1.526  1.00  0.00     0.051 A
HETATM   27  C12 UNL     1      46.419  13.549   2.473  1.00  0.00     0.046 A
HETATM   28  C13 UNL     1      45.932  14.855   2.543  1.00  0.00     0.012 A
HETATM   29  C16 UNL     1      44.961  15.295   1.664  1.00  0.00     0.017 A
HETATM   30  C17 UNL     1      44.484  14.419   0.719  1.00  0.00     0.027 A
HETATM   31  C18 UNL     1      44.973  13.134   0.660  1.00  0.00     0.060 A
HETATM   32 CL1  UNL     1      44.332  12.044  -0.571  1.00  0.00    -0.082 Cl
BRANCH  28  33
HETATM   33  C14 UNL     1      46.447  15.774   3.552  1.00  0.00     0.134 A
HETATM   34  N2  UNL     1      45.768  16.240   4.615  1.00  0.00    -0.281 N
HETATM   35  N3  UNL     1      46.524  17.048   5.323  1.00  0.00    -0.250 N
ATOM     36  H2  UNL     1      44.802  16.000   4.840  1.00  0.00     0.188 HD
HETATM   37  C15 UNL     1      47.716  17.105   4.703  1.00  0.00     0.340 A
ATOM     38  H3  UNL     1      46.258  17.537   6.178  1.00  0.00     0.192 HD
HETATM   39  O1  UNL     1      48.716  17.784   5.085  1.00  0.00    -0.245 OA
HETATM   40  N4  UNL     1      47.679  16.327   3.615  1.00  0.00    -0.292 N
ATOM     41  H4  UNL     1      48.442  16.177   2.955  1.00  0.00     0.172 HD
ENDBRANCH  28  33
ENDBRANCH  24  26
ENDBRANCH  23  24
ENDBRANCH   9  23
ENDBRANCH   1   9
TORSDOF 7
ENDMDL