MODEL 4
REMARK VINA RESULT: -9.093286727      1.218      1.592
REMARK  8 active torsions:
REMARK  status: ('A' for Active; 'I' for Inactive)
REMARK    1  A    between atoms: N1_2  and  C1_4
REMARK    2  A    between atoms: N2_13  and  C10_14
REMARK    3  A    between atoms: C10_14  and  C11_15
REMARK    4  A    between atoms: C19_24  and  N3_25
REMARK    5  A    between atoms: N3_25  and  C20_27
REMARK    6  A    between atoms: C20_27  and  C21_28
REMARK    7  A    between atoms: C24_31  and  N4_32
REMARK    8  A    between atoms: N4_32  and  C25_34
ROOT
HETATM    1  C1  UNL     1      45.972  10.320  -0.511  1.00  0.00     0.130 A
HETATM    2  C2  UNL     1      45.382  11.580  -0.766  1.00  0.00     0.053 A
HETATM    3  C3  UNL     1      45.289  12.539   0.193  1.00  0.00     0.006 A
HETATM    4  C4  UNL     1      44.760  13.812   0.174  1.00  0.00     0.003 A
HETATM    5  C5  UNL     1      44.147  14.560  -0.801  1.00  0.00     0.014 A
HETATM    6  C6  UNL     1      43.683  15.855  -0.558  1.00  0.00     0.001 A
HETATM    7  C7  UNL     1      43.861  16.365   0.706  1.00  0.00     0.002 A
HETATM    8  C8  UNL     1      44.478  15.602   1.673  1.00  0.00     0.030 A
HETATM    9  C9  UNL     1      44.941  14.319   1.437  1.00  0.00     0.046 A
HETATM   10  N2  UNL     1      45.558  13.411   2.229  1.00  0.00    -0.341 N
HETATM   11  C17 UNL     1      45.771  12.318   1.467  1.00  0.00     0.048 A
HETATM   12  C18 UNL     1      46.342  11.092   1.705  1.00  0.00     0.062 A
HETATM   13  C19 UNL     1      46.448  10.092   0.734  1.00  0.00     0.064 A
ENDROOT
BRANCH  13  14
HETATM   14  N3  UNL     1      47.095   8.875   1.066  1.00  0.00    -0.384 N
ATOM     15  H3  UNL     1      46.557   8.009   1.104  1.00  0.00     0.160 HD
BRANCH  14  16
HETATM   16  C20 UNL     1      48.536   8.854   1.355  1.00  0.00     0.158 C
BRANCH  16  17
HETATM   17  C21 UNL     1      48.836   7.866   2.417  1.00  0.00    -0.040 A
HETATM   18  C22 UNL     1      50.124   7.412   2.623  1.00  0.00     0.011 A
HETATM   19  C23 UNL     1      50.412   6.500   3.598  1.00  0.00     0.030 A
HETATM   20  C24 UNL     1      49.431   5.985   4.427  1.00  0.00     0.049 A
HETATM   21  C28 UNL     1      48.138   6.439   4.224  1.00  0.00     0.030 A
HETATM   22  C29 UNL     1      47.851   7.358   3.239  1.00  0.00     0.011 A
BRANCH  20  23
HETATM   23  N4  UNL     1      49.716   5.039   5.447  1.00  0.00    -0.192 N
ATOM     24  H4  UNL     1      49.021   4.853   6.170  1.00  0.00     0.184 HD
BRANCH  23  25
HETATM   25  C25 UNL     1      50.831   4.416   5.470  1.00  0.00     0.682 A
HETATM   26  N5  UNL     1      51.927   4.676   6.202  1.00  0.00    -0.200 N
HETATM   27  C26 UNL     1      52.895   3.793   5.946  1.00  0.00     0.123 A
ATOM     28  H5  UNL     1      52.008   5.447   6.866  1.00  0.00     0.183 HD
HETATM   29  C27 UNL     1      52.416   2.924   5.014  1.00  0.00     0.123 A
HETATM   30  N6  UNL     1      51.167   3.313   4.735  1.00  0.00    -0.200 N
ATOM     31  H6  UNL     1      50.551   2.850   4.067  1.00  0.00     0.183 HD
ENDBRANCH  23  25
ENDBRANCH  20  23
ENDBRANCH  16  17
ENDBRANCH  14  16
ENDBRANCH  13  14
BRANCH   1  32
HETATM   32  N1  UNL     1      46.007   9.417  -1.583  1.00  0.00    -0.113 N
HETATM   33  O1  UNL     1      46.320   9.856  -2.734  1.00  0.00    -0.532 OA
HETATM   34  O2  UNL     1      45.731   8.105  -1.480  1.00  0.00    -0.532 OA
ENDBRANCH   1  32
BRANCH  10  35
HETATM   35  C10 UNL     1      45.943  13.531   3.596  1.00  0.00     0.168 C
BRANCH  35  36
HETATM   36  C11 UNL     1      46.496  14.852   3.987  1.00  0.00    -0.040 A
HETATM   37  C12 UNL     1      45.950  15.632   4.982  1.00  0.00     0.012 A
HETATM   38  C13 UNL     1      46.513  16.849   5.299  1.00  0.00     0.043 A
HETATM   39  C14 UNL     1      47.632  17.314   4.630  1.00  0.00     0.116 A
HETATM   40  F1  UNL     1      48.218  18.506   4.911  1.00  0.00    -0.206 F
HETATM   41  C15 UNL     1      48.185  16.548   3.638  1.00  0.00     0.043 A
HETATM   42  C16 UNL     1      47.610  15.332   3.332  1.00  0.00     0.012 A
ENDBRANCH  35  36
ENDBRANCH  10  35
TORSDOF 8
ENDMDL