MODEL 2
REMARK VINA RESULT: -9.481706500      1.891      2.446
REMARK  8 active torsions:
REMARK  status: ('A' for Active; 'I' for Inactive)
REMARK    1  A    between atoms: O1_2  and  C2_3
REMARK    2  A    between atoms: C5_8  and  C6_9
REMARK    3  A    between atoms: C8_13  and  C9_14
REMARK    4  A    between atoms: C13_18  and  N3_19
REMARK    5  A    between atoms: C15_23  and  C16_24
REMARK    6  A    between atoms: C19_27  and  O2_28
REMARK    7  A    between atoms: O2_28  and  C20_29
REMARK    8  A    between atoms: C20_29  and  C21_30
ROOT
HETATM    1  C9  UNL     1      48.270   5.573   1.119  1.00  0.00    -0.006 A
HETATM    2  C10 UNL     1      48.450   5.209  -0.192  1.00  0.00     0.015 A
HETATM    3  C11 UNL     1      48.094   6.037  -1.249  1.00  0.00     0.017 A
HETATM    4  C12 UNL     1      47.540   7.263  -0.940  1.00  0.00     0.017 A
HETATM    5  C13 UNL     1      47.172   8.113  -1.939  1.00  0.00     0.040 A
HETATM    6  C14 UNL     1      46.618   9.340  -1.593  1.00  0.00     0.060 A
HETATM    7  C15 UNL     1      46.441   9.696  -0.293  1.00  0.00     0.045 A
HETATM    8  N4  UNL     1      46.799   8.867   0.677  1.00  0.00    -0.355 N
ATOM      9  H4  UNL     1      46.667   9.132   1.653  1.00  0.00     0.166 HD
HETATM   10  C29 UNL     1      47.344   7.659   0.366  1.00  0.00     0.046 A
HETATM   11  C30 UNL     1      47.715   6.802   1.383  1.00  0.00     0.044 A
ENDROOT
BRANCH   1  12
HETATM   12  C8  UNL     1      48.656   4.677   2.192  1.00  0.00     0.059 A
HETATM   13  C7  UNL     1      47.943   3.539   2.576  1.00  0.00     0.120 A
HETATM   14  N2  UNL     1      48.615   2.977   3.600  1.00  0.00    -0.349 N
HETATM   15  C6  UNL     1      49.710   3.699   3.879  1.00  0.00     0.117 A
ATOM     16  H2  UNL     1      48.332   2.128   4.090  1.00  0.00     0.167 HD
HETATM   17  N5  UNL     1      49.711   4.725   3.011  1.00  0.00    -0.340 N
ATOM     18  H5  UNL     1      50.428   5.450   2.981  1.00  0.00     0.167 HD
BRANCH  15  19
HETATM   19  C5  UNL     1      50.712   3.416   4.935  1.00  0.00     0.026 A
HETATM   20  C4  UNL     1      51.601   2.384   4.762  1.00  0.00     0.102 A
HETATM   21  N1  UNL     1      52.502   2.131   5.713  1.00  0.00    -0.372 N
HETATM   22  C3  UNL     1      52.539   2.876   6.826  1.00  0.00     0.124 A
ATOM     23  H1  UNL     1      53.167   1.366   5.593  1.00  0.00     0.164 HD
HETATM   24  C2  UNL     1      51.677   3.923   7.059  1.00  0.00     0.084 A
HETATM   25  C31 UNL     1      50.750   4.171   6.062  1.00  0.00     0.054 A
BRANCH  24  26
HETATM   26  O1  UNL     1      51.739   4.679   8.221  1.00  0.00    -0.355 OA
HETATM   27  C1  UNL     1      51.608   4.006   9.458  1.00  0.00     0.210 C
ENDBRANCH  24  26
ENDBRANCH  15  19
ENDBRANCH   1  12
BRANCH   5  28
HETATM   28  N3  UNL     1      47.326   7.806  -3.178  1.00  0.00    -0.398 N
ATOM     29  H32 UNL     1      48.036   8.282  -3.734  1.00  0.00     0.156 HD
ATOM     30  H31 UNL     1      46.754   7.094  -3.630  1.00  0.00     0.156 HD
ENDBRANCH   5  28
BRANCH   7  31
HETATM   31  C16 UNL     1      45.844  11.018   0.010  1.00  0.00    -0.009 A
HETATM   32  C17 UNL     1      45.953  12.099  -0.836  1.00  0.00     0.016 A
HETATM   33  C18 UNL     1      45.373  13.337  -0.514  1.00  0.00     0.037 A
HETATM   34  C19 UNL     1      44.676  13.525   0.653  1.00  0.00     0.069 A
HETATM   35  C27 UNL     1      44.563  12.451   1.501  1.00  0.00     0.037 A
HETATM   36  C28 UNL     1      45.145  11.211   1.175  1.00  0.00     0.016 A
BRANCH  34  37
HETATM   37  O2  UNL     1      44.106  14.767   0.953  1.00  0.00    -0.347 OA
BRANCH  37  38
HETATM   38  C20 UNL     1      43.969  15.133   2.303  1.00  0.00     0.214 C
BRANCH  38  39
HETATM   39  C21 UNL     1      45.263  15.656   2.812  1.00  0.00    -0.034 A
HETATM   40  C22 UNL     1      45.588  16.989   2.684  1.00  0.00     0.012 A
HETATM   41  C23 UNL     1      46.810  17.430   3.174  1.00  0.00     0.043 A
HETATM   42  C24 UNL     1      47.715  16.588   3.788  1.00  0.00     0.116 A
HETATM   43  F1  UNL     1      48.894  17.090   4.247  1.00  0.00    -0.206 F
HETATM   44  C25 UNL     1      47.378  15.253   3.911  1.00  0.00     0.043 A
HETATM   45  C26 UNL     1      46.155  14.799   3.421  1.00  0.00     0.012 A
ENDBRANCH  38  39
ENDBRANCH  37  38
ENDBRANCH  34  37
ENDBRANCH   7  31
TORSDOF 8
ENDMDL