MODEL 1
REMARK VINA RESULT: -8.672032797      0.000      0.000
REMARK  10 active torsions:
REMARK  status: ('A' for Active; 'I' for Inactive)
REMARK    1  A    between atoms: C3_5  and  C4_6
REMARK    2  A    between atoms: C7_9  and  C8_10
REMARK    3  A    between atoms: C10_14  and  C11_15
REMARK    4  A    between atoms: C11_15  and  C12_16
REMARK    5  A    between atoms: C12_16  and  C13_17
REMARK    6  A    between atoms: C19_25  and  O1_26
REMARK    7  A    between atoms: N4_31  and  C22_32
REMARK    8  A    between atoms: C22_32  and  C23_33
REMARK    9  A    between atoms: C23_33  and  O2_35
REMARK   10  A    between atoms: C23_33  and  C25_37
ROOT
HETATM    1  C4  UNL     1      48.491   7.111   2.017  1.00  0.00     0.017 A
HETATM    2  C5  UNL     1      47.605   7.002   0.944  1.00  0.00     0.016 A
HETATM    3  C6  UNL     1      46.852   8.044   0.482  1.00  0.00     0.017 A
HETATM    4  C7  UNL     1      46.947   9.316   1.098  1.00  0.00     0.027 A
HETATM    5  C19 UNL     1      47.804   9.426   2.148  1.00  0.00     0.100 A
HETATM    6  C20 UNL     1      48.556   8.341   2.590  1.00  0.00     0.080 A
HETATM    7 CL1  UNL     1      49.592   8.625   3.952  1.00  0.00    -0.080 Cl
ENDROOT
BRANCH   1   8
HETATM    8  C3  UNL     1      49.283   5.951   2.363  1.00  0.00     0.061 A
HETATM    9  N1  UNL     1      48.768   4.798   2.881  1.00  0.00    -0.344 N
HETATM   10  C2  UNL     1      49.707   3.867   3.056  1.00  0.00     0.079 A
ATOM     11  H1  UNL     1      47.782   4.665   3.106  1.00  0.00     0.167 HD
HETATM   12  C1  UNL     1      49.443   2.462   3.570  1.00  0.00     0.089 C
HETATM   13  N4  UNL     1      50.881   4.381   2.660  1.00  0.00    -0.342 N
HETATM   14  C21 UNL     1      50.614   5.662   2.236  1.00  0.00     0.122 A
BRANCH  13  15
HETATM   15  C22 UNL     1      52.145   3.704   2.649  1.00  0.00     0.172 C
BRANCH  15  16
HETATM   16  C23 UNL     1      53.065   4.115   3.728  1.00  0.00     0.098 C
HETATM   17  C24 UNL     1      54.422   3.489   3.584  1.00  0.00     0.053 C
BRANCH  16  18
HETATM   18  O2  UNL     1      53.236   5.519   3.749  1.00  0.00    -0.384 OA
ATOM     19  H2  UNL     1      53.452   5.827   4.621  1.00  0.00     0.211 HD
ENDBRANCH  16  18
BRANCH  16  20
HETATM   20  C25 UNL     1      52.534   3.736   5.080  1.00  0.00    -0.023 A
HETATM   21  C26 UNL     1      51.963   4.665   5.903  1.00  0.00     0.010 A
HETATM   22  C27 UNL     1      51.493   4.277   7.137  1.00  0.00     0.001 A
HETATM   23  C28 UNL     1      51.613   2.962   7.519  1.00  0.00     0.000 A
HETATM   24  C29 UNL     1      52.184   2.013   6.711  1.00  0.00     0.001 A
HETATM   25  C30 UNL     1      52.646   2.430   5.473  1.00  0.00     0.010 A
ENDBRANCH  16  20
ENDBRANCH  15  16
ENDBRANCH  13  15
ENDBRANCH   1   8
BRANCH   5  26
HETATM   26  O1  UNL     1      47.923  10.663   2.797  1.00  0.00    -0.358 OA
ATOM     27  H1  UNL     1      48.665  10.810   3.372  1.00  0.00     0.217 HD
ENDBRANCH   5  26
BRANCH   4  28
HETATM   28  C8  UNL     1      46.191  10.415   0.529  1.00  0.00     0.062 A
HETATM   29  C9  UNL     1      45.221  10.300  -0.471  1.00  0.00     0.120 A
HETATM   30  N2  UNL     1      44.599  11.481  -0.608  1.00  0.00    -0.350 N
HETATM   31  C10 UNL     1      45.147  12.342   0.270  1.00  0.00     0.105 A
ATOM     32  H2  UNL     1      43.844  11.689  -1.262  1.00  0.00     0.166 HD
HETATM   33  N3  UNL     1      46.093  11.686   0.931  1.00  0.00    -0.341 N
ATOM     34  H3  UNL     1      46.674  12.101   1.659  1.00  0.00     0.167 HD
BRANCH  31  35
HETATM   35  C11 UNL     1      44.671  13.716   0.532  1.00  0.00     0.049 C
BRANCH  35  36
HETATM   36  C12 UNL     1      44.527  14.123   1.770  1.00  0.00     0.015 C
BRANCH  36  37
HETATM   37  C13 UNL     1      45.354  15.146   2.371  1.00  0.00    -0.036 A
HETATM   38  C14 UNL     1      45.097  16.481   2.389  1.00  0.00     0.011 A
HETATM   39  C15 UNL     1      45.959  17.448   2.897  1.00  0.00     0.001 A
HETATM   40  C16 UNL     1      47.182  17.056   3.435  1.00  0.00     0.000 A
HETATM   41  C17 UNL     1      47.447  15.707   3.422  1.00  0.00     0.001 A
HETATM   42  C18 UNL     1      46.601  14.762   2.925  1.00  0.00     0.011 A
ENDBRANCH  36  37
ENDBRANCH  35  36
ENDBRANCH  31  35
ENDBRANCH   4  28
TORSDOF 10
ENDMDL