MODEL 5
REMARK VINA RESULT: -8.109813848      3.347      7.828
REMARK  7 active torsions:
REMARK  status: ('A' for Active; 'I' for Inactive)
REMARK    1  A    between atoms: C5_5  and  N1_6
REMARK    2  A    between atoms: C6_9  and  C7_10
REMARK    3  A    between atoms: C7_10  and  C8_11
REMARK    4  A    between atoms: C18_23  and  C19_24
REMARK    5  A    between atoms: C19_24  and  N4_25
REMARK    6  A    between atoms: N4_25  and  C20_28
REMARK    7  A    between atoms: C27_36  and  C28_37
ROOT
HETATM    1  N1  UNL     1      45.603  11.502  -0.881  1.00  0.00    -0.254 N
HETATM    2  N2  UNL     1      46.612  10.648  -0.869  1.00  0.00    -0.296 N
ATOM      3  H2  UNL     1      46.786   9.942  -1.583  1.00  0.00     0.187 HD
HETATM    4  C6  UNL     1      47.391  10.848   0.240  1.00  0.00     0.043 A
HETATM    5  C16 UNL     1      46.792  11.883   0.910  1.00  0.00     0.018 A
HETATM    6  C17 UNL     1      47.110  12.533   2.080  1.00  0.00     0.024 A
HETATM    7  C18 UNL     1      46.314  13.581   2.542  1.00  0.00    -0.032 A
HETATM    8  C23 UNL     1      45.216  13.965   1.832  1.00  0.00     0.011 A
HETATM    9  C24 UNL     1      44.875  13.334   0.659  1.00  0.00     0.033 A
HETATM   10  C25 UNL     1      45.658  12.300   0.200  1.00  0.00     0.069 A
ENDROOT
BRANCH   1  11
HETATM   11  C5  UNL     1      44.577  11.606  -1.871  1.00  0.00     0.079 A
HETATM   12  C4  UNL     1      44.381  12.764  -2.596  1.00  0.00     0.034 A
HETATM   13  C3  UNL     1      43.414  12.915  -3.555  1.00  0.00     0.010 A
HETATM   14  C2  UNL     1      42.577  11.848  -3.818  1.00  0.00    -0.046 A
HETATM   15  C1  UNL     1      41.502  11.977  -4.864  1.00  0.00     0.049 C
HETATM   16  C27 UNL     1      42.740  10.675  -3.116  1.00  0.00     0.039 A
HETATM   17  C26 UNL     1      43.726  10.545  -2.151  1.00  0.00     0.077 A
HETATM   18 CL1  UNL     1      43.899   9.034  -1.281  1.00  0.00    -0.081 Cl
BRANCH  16  19
HETATM   19  C28 UNL     1      41.863   9.520  -3.375  1.00  0.00     0.133 A
HETATM   20  N5  UNL     1      42.113   8.536  -4.231  1.00  0.00    -0.336 N
HETATM   21  C29 UNL     1      41.090   7.670  -4.190  1.00  0.00     0.199 A
ATOM     22  H5  UNL     1      42.942   8.452  -4.819  1.00  0.00     0.168 HD
HETATM   23  N6  UNL     1      40.184   8.133  -3.287  1.00  0.00    -0.295 N
HETATM   24  N7  UNL     1      40.673   9.254  -2.804  1.00  0.00    -0.284 N
ATOM     25  H6  UNL     1      39.299   7.696  -3.032  1.00  0.00     0.187 HD
ATOM     26  H7  UNL     1      40.218   9.837  -2.101  1.00  0.00     0.188 HD
ENDBRANCH  16  19
ENDBRANCH   1  11
BRANCH   4  27
HETATM   27  C7  UNL     1      48.602  10.071   0.607  1.00  0.00     0.098 C
BRANCH  27  28
HETATM   28  C8  UNL     1      48.323   8.755   1.191  1.00  0.00    -0.052 A
HETATM   29  C9  UNL     1      47.876   8.509   2.467  1.00  0.00     0.010 A
HETATM   30  C10 UNL     1      47.637   7.212   2.924  1.00  0.00     0.031 A
HETATM   31  C11 UNL     1      47.858   6.141   2.063  1.00  0.00     0.042 A
HETATM   32  N3  UNL     1      47.710   4.802   2.243  1.00  0.00    -0.365 N
HETATM   33  C14 UNL     1      48.306   6.359   0.780  1.00  0.00    -0.008 A
HETATM   34  C12 UNL     1      48.046   4.140   1.123  1.00  0.00     0.089 A
ATOM     35  H3  UNL     1      47.390   4.362   3.107  1.00  0.00     0.165 HD
HETATM   36  C13 UNL     1      48.417   5.108   0.212  1.00  0.00     0.030 A
HETATM   37  C15 UNL     1      48.526   7.650   0.377  1.00  0.00     0.021 A
ENDBRANCH  27  28
ENDBRANCH   4  27
BRANCH   7  38
HETATM   38  C19 UNL     1      46.712  14.247   3.815  1.00  0.00     0.271 C
BRANCH  38  39
HETATM   39  N4  UNL     1      45.821  15.335   4.077  1.00  0.00    -0.068 N
ATOM     40  H42 UNL     1      45.046  15.332   3.415  1.00  0.00     0.277 HD
ATOM     41  H41 UNL     1      45.306  15.178   4.944  1.00  0.00     0.277 HD
BRANCH  39  42
HETATM   42  C20 UNL     1      46.466  16.614   4.097  1.00  0.00     0.178 C
HETATM   43  C21 UNL     1      46.071  17.495   2.912  1.00  0.00     0.039 C
HETATM   44  C22 UNL     1      47.986  16.472   4.004  1.00  0.00     0.039 C
ENDBRANCH  39  42
ENDBRANCH  38  39
ENDBRANCH   7  38
TORSDOF 7
ENDMDL