MODEL 2
REMARK VINA RESULT: -8.488955711      0.706      1.159
REMARK  8 active torsions:
REMARK  status: ('A' for Active; 'I' for Inactive)
REMARK    1  A    between atoms: C2_2  and  C3_3
REMARK    2  A    between atoms: C3_3  and  O1_4
REMARK    3  A    between atoms: O1_4  and  C4_5
REMARK    4  A    between atoms: C7_8  and  N1_9
REMARK    5  A    between atoms: N1_9  and  C8_11
REMARK    6  A    between atoms: C9_14  and  C10_15
REMARK    7  A    between atoms: C18_27  and  C19_28
REMARK    8  A    between atoms: C21_34  and  C22_35
ROOT
HETATM    1  C8  UNL     1      47.482   9.653   1.006  1.00  0.00     0.683 A
HETATM    2  N2  UNL     1      47.405  10.795   1.683  1.00  0.00    -0.191 N
ATOM      3  H2  UNL     1      48.163  11.070   2.307  1.00  0.00     0.184 HD
HETATM    4  C9  UNL     1      46.324  11.592   1.544  1.00  0.00     0.061 A
HETATM    5  C17 UNL     1      45.301  11.234   0.709  1.00  0.00     0.062 A
HETATM    6  C18 UNL     1      45.385  10.033  -0.002  1.00  0.00     0.065 A
HETATM    7  N7  UNL     1      46.485   9.297   0.186  1.00  0.00    -0.191 N
ATOM      8  H7  UNL     1      46.569   8.417  -0.322  1.00  0.00     0.184 HD
ENDROOT
BRANCH   6   9
HETATM    9  C19 UNL     1      44.315   9.626  -0.898  1.00  0.00     0.037 A
HETATM   10  C20 UNL     1      43.521   8.517  -0.781  1.00  0.00     0.123 A
HETATM   11  N5  UNL     1      42.636   8.491  -1.821  1.00  0.00    -0.310 N
HETATM   12  N6  UNL     1      42.872   9.557  -2.566  1.00  0.00    -0.299 N
ATOM     13  H5  UNL     1      41.924   7.780  -1.991  1.00  0.00     0.186 HD
HETATM   14  C21 UNL     1      43.901  10.280  -2.027  1.00  0.00     0.072 A
ATOM     15  H6  UNL     1      42.363   9.804  -3.414  1.00  0.00     0.187 HD
BRANCH  14  16
HETATM   16  C22 UNL     1      44.489  11.517  -2.516  1.00  0.00    -0.007 A
HETATM   17  C23 UNL     1      43.980  12.762  -2.213  1.00  0.00     0.017 A
HETATM   18  C24 UNL     1      44.537  13.931  -2.676  1.00  0.00     0.043 A
HETATM   19  C25 UNL     1      45.657  13.893  -3.484  1.00  0.00     0.116 A
HETATM   20  F1  UNL     1      46.208  15.041  -3.942  1.00  0.00    -0.206 F
HETATM   21  C26 UNL     1      46.189  12.659  -3.804  1.00  0.00     0.043 A
HETATM   22  C27 UNL     1      45.609  11.485  -3.324  1.00  0.00     0.017 A
ENDBRANCH  14  16
ENDBRANCH   6   9
BRANCH   4  23
HETATM   23  C10 UNL     1      46.227  12.844   2.278  1.00  0.00    -0.006 A
HETATM   24  C11 UNL     1      46.836  13.065   3.482  1.00  0.00     0.016 A
HETATM   25  C12 UNL     1      46.704  14.294   4.143  1.00  0.00     0.033 A
HETATM   26  C13 UNL     1      45.955  15.304   3.591  1.00  0.00     0.060 A
HETATM   27  N3  UNL     1      45.656  16.564   3.988  1.00  0.00    -0.351 N
HETATM   28  C15 UNL     1      45.334  15.087   2.371  1.00  0.00     0.060 A
HETATM   29  C14 UNL     1      44.872  17.118   3.047  1.00  0.00     0.181 A
ATOM     30  H3  UNL     1      45.969  17.012   4.848  1.00  0.00     0.166 HD
HETATM   31  N4  UNL     1      44.681  16.223   2.073  1.00  0.00    -0.350 N
ATOM     32  H4  UNL     1      44.125  16.378   1.232  1.00  0.00     0.166 HD
HETATM   33  C16 UNL     1      45.482  13.864   1.739  1.00  0.00     0.045 A
ENDBRANCH   4  23
BRANCH   1  34
HETATM   34  N1  UNL     1      48.514   8.884   1.135  1.00  0.00    -0.192 N
ATOM     35  H1  UNL     1      49.222   8.907   0.401  1.00  0.00     0.184 HD
BRANCH  34  36
HETATM   36  C7  UNL     1      48.724   8.011   2.232  1.00  0.00     0.049 A
HETATM   37  C6  UNL     1      47.730   7.426   2.947  1.00  0.00     0.033 A
HETATM   38  C5  UNL     1      48.026   6.592   3.994  1.00  0.00     0.039 A
HETATM   39  C4  UNL     1      49.343   6.296   4.383  1.00  0.00     0.068 A
HETATM   40  C29 UNL     1      50.342   6.893   3.651  1.00  0.00     0.039 A
HETATM   41  C28 UNL     1      50.024   7.744   2.582  1.00  0.00     0.033 A
BRANCH  39  42
HETATM   42  O1  UNL     1      49.501   5.453   5.435  1.00  0.00    -0.351 OA
BRANCH  42  43
HETATM   43  C3  UNL     1      50.209   4.301   5.626  1.00  0.00     0.175 C
BRANCH  43  44
HETATM   44  C2  UNL     1      51.485   4.520   6.389  1.00  0.00     0.022 C
HETATM   45  C1  UNL     1      51.523   3.670   7.657  1.00  0.00     0.007 C
ENDBRANCH  43  44
ENDBRANCH  42  43
ENDBRANCH  39  42
ENDBRANCH  34  36
ENDBRANCH   1  34
TORSDOF 8
ENDMDL