MODEL 5
REMARK VINA RESULT: -6.949837559      3.078      5.292
REMARK  8 active torsions:
REMARK  status: ('A' for Active; 'I' for Inactive)
REMARK    1  A    between atoms: C6_11  and  C7_12
REMARK    2  A    between atoms: C11_22  and  N6_23
REMARK    3  A    between atoms: N6_23  and  C12_25
REMARK    4  A    between atoms: C19_32  and  N7_33
REMARK    5  A    between atoms: C20_35  and  C21_36
REMARK    6  A    between atoms: C21_36  and  C22_37
REMARK    7  A    between atoms: C22_37  and  C23_38
REMARK    8  A    between atoms: C23_38  and  N8_39
ROOT
HETATM    1 CL1  UNL     1      44.275  11.348   1.521  1.00  0.00    -0.082 Cl
HETATM    2  C1  UNL     1      45.103  10.202   0.488  1.00  0.00     0.061 A
HETATM    3  C2  UNL     1      44.514   9.820  -0.695  1.00  0.00     0.028 A
HETATM    4  C3  UNL     1      45.126   8.910  -1.523  1.00  0.00     0.032 A
HETATM    5  C4  UNL     1      46.338   8.374  -1.169  1.00  0.00     0.048 A
HETATM    6  N1  UNL     1      46.892   7.481  -2.013  1.00  0.00    -0.340 N
ATOM      7  H1  UNL     1      46.408   7.237  -2.876  1.00  0.00     0.167 HD
HETATM    8  C5  UNL     1      48.070   6.912  -1.732  1.00  0.00     0.137 A
HETATM    9  N2  UNL     1      48.818   6.012  -2.398  1.00  0.00    -0.326 N
ATOM     10  H2  UNL     1      48.581   5.590  -3.295  1.00  0.00     0.169 HD
HETATM   11  C6  UNL     1      49.919   5.763  -1.692  1.00  0.00     0.120 A
HETATM   12  N5  UNL     1      49.856   6.509  -0.587  1.00  0.00    -0.337 N
ATOM     13  H5  UNL     1      50.570   6.521   0.142  1.00  0.00     0.167 HD
HETATM   14  C10 UNL     1      48.732   7.240  -0.559  1.00  0.00     0.106 A
HETATM   15  C11 UNL     1      48.196   8.148   0.327  1.00  0.00     0.078 A
HETATM   16  C18 UNL     1      46.982   8.729   0.023  1.00  0.00     0.048 A
HETATM   17  C19 UNL     1      46.343   9.642   0.829  1.00  0.00     0.068 A
ENDROOT
BRANCH  17  18
HETATM   18  N7  UNL     1      46.932  10.067   2.024  1.00  0.00    -0.367 N
HETATM   19  C20 UNL     1      47.417  11.237   2.275  1.00  0.00     0.061 C
ATOM     20  H7  UNL     1      46.983   9.381   2.777  1.00  0.00     0.165 HD
BRANCH  19  21
HETATM   21  C21 UNL     1      47.459  12.376   1.360  1.00  0.00     0.049 C
BRANCH  21  22
HETATM   22  C22 UNL     1      46.714  13.579   1.869  1.00  0.00     0.050 C
BRANCH  22  23
HETATM   23  C23 UNL     1      46.567  13.587   3.379  1.00  0.00     0.068 C
BRANCH  23  24
HETATM   24  N8  UNL     1      46.304  14.845   3.925  1.00  0.00    -0.354 N
HETATM   25  C24 UNL     1      45.113  15.523   3.676  1.00  0.00     0.068 C
HETATM   26  C25 UNL     1      45.309  16.717   2.769  1.00  0.00     0.045 C
HETATM   27  C26 UNL     1      46.511  17.544   3.125  1.00  0.00     0.010 C
HETATM   28  C27 UNL     1      47.724  16.695   3.430  1.00  0.00     0.045 C
HETATM   29  C28 UNL     1      47.334  15.635   4.451  1.00  0.00     0.068 C
ENDBRANCH  23  24
ENDBRANCH  22  23
ENDBRANCH  21  22
ENDBRANCH  19  21
ENDBRANCH  17  18
BRANCH  15  30
HETATM   30  N6  UNL     1      48.789   8.448   1.421  1.00  0.00    -0.353 N
ATOM     31  H6  UNL     1      49.124   9.405   1.527  1.00  0.00     0.166 HD
BRANCH  30  32
HETATM   32  C12 UNL     1      49.016   7.551   2.498  1.00  0.00     0.032 A
HETATM   33  C13 UNL     1      47.964   6.864   3.105  1.00  0.00     0.029 A
HETATM   34  C14 UNL     1      48.263   6.011   4.145  1.00  0.00     0.002 A
HETATM   35  C15 UNL     1      49.543   5.809   4.606  1.00  0.00     0.000 A
HETATM   36  C16 UNL     1      50.581   6.487   4.007  1.00  0.00     0.002 A
HETATM   37  C17 UNL     1      50.295   7.340   2.968  1.00  0.00     0.029 A
ENDBRANCH  30  32
ENDBRANCH  15  30
BRANCH  11  38
HETATM   38  C7  UNL     1      50.990   4.831  -2.092  1.00  0.00     0.042 A
HETATM   39  C8  UNL     1      52.220   4.649  -1.492  1.00  0.00     0.123 A
HETATM   40  N3  UNL     1      52.881   3.699  -2.186  1.00  0.00    -0.311 N
HETATM   41  N4  UNL     1      52.126   3.272  -3.197  1.00  0.00    -0.311 N
ATOM     42  H3  UNL     1      53.818   3.359  -1.969  1.00  0.00     0.186 HD
HETATM   43  C9  UNL     1      50.969   3.955  -3.151  1.00  0.00     0.123 A
ATOM     44  H4  UNL     1      52.378   2.560  -3.881  1.00  0.00     0.186 HD
ENDBRANCH  11  38
TORSDOF 8
ENDMDL