MODEL 2
REMARK VINA RESULT: -7.773380868      5.035      8.676
REMARK  8 active torsions:
REMARK  status: ('A' for Active; 'I' for Inactive)
REMARK    1  A    between atoms: S1_2  and  N1_4
REMARK    2  A    between atoms: S1_2  and  C21_33
REMARK    3  A    between atoms: N1_4  and  C1_6
REMARK    4  A    between atoms: C3_8  and  C4_9
REMARK    5  A    between atoms: C4_9  and  S2_10
REMARK    6  A    between atoms: C4_9  and  C10_18
REMARK    7  A    between atoms: S2_10  and  C5_11
REMARK    8  A    between atoms: C20_30  and  O3_31
ROOT
HETATM    1  C1  UNL     1      48.534   9.335   1.146  1.00  0.00     0.076 A
HETATM    2  C2  UNL     1      47.337   9.949   1.441  1.00  0.00     0.041 A
HETATM    3  C3  UNL     1      47.013  11.152   0.853  1.00  0.00    -0.037 A
HETATM    4  C18 UNL     1      47.897  11.722  -0.026  1.00  0.00     0.011 A
HETATM    5  C19 UNL     1      49.100  11.128  -0.338  1.00  0.00     0.039 A
HETATM    6  C20 UNL     1      49.420   9.933   0.247  1.00  0.00     0.092 A
ENDROOT
BRANCH   3   7
HETATM    7  C4  UNL     1      45.734  11.867   1.126  1.00  0.00     0.122 C
BRANCH   7   8
HETATM    8  S2  UNL     1      44.977  12.197  -0.464  1.00  0.00    -0.098 SA
BRANCH   8   9
HETATM    9  C5  UNL     1      44.314  10.640  -1.099  1.00  0.00     0.070 A
HETATM   10  C6  UNL     1      44.225   9.514  -0.309  1.00  0.00     0.037 A
HETATM   11  C7  UNL     1      43.721   8.354  -0.816  1.00  0.00     0.004 A
HETATM   12  C8  UNL     1      43.290   8.282  -2.126  1.00  0.00     0.017 A
HETATM   13  C9  UNL     1      43.382   9.405  -2.901  1.00  0.00     0.089 A
HETATM   14  N2  UNL     1      43.882  10.537  -2.382  1.00  0.00    -0.361 N
ATOM     15  H2  UNL     1      43.940  11.360  -2.981  1.00  0.00     0.165 HD
ENDBRANCH   8   9
ENDBRANCH   7   8
BRANCH   7  16
HETATM   16  C10 UNL     1      45.920  13.015   2.005  1.00  0.00    -0.012 A
HETATM   17  C11 UNL     1      46.748  12.975   3.105  1.00  0.00     0.098 A
HETATM   18  N3  UNL     1      46.704  14.191   3.668  1.00  0.00    -0.365 N
HETATM   19  C12 UNL     1      45.886  14.998   2.978  1.00  0.00     0.043 A
ATOM     20  H3  UNL     1      47.220  14.464   4.505  1.00  0.00     0.165 HD
HETATM   21  C13 UNL     1      45.544  16.315   3.200  1.00  0.00     0.030 A
HETATM   22  C17 UNL     1      45.389  14.251   1.925  1.00  0.00    -0.000 A
HETATM   23  C14 UNL     1      44.669  16.962   2.363  1.00  0.00     0.002 A
HETATM   24  C15 UNL     1      44.163  16.234   1.306  1.00  0.00     0.001 A
HETATM   25  C16 UNL     1      44.501  14.919   1.079  1.00  0.00     0.014 A
ENDBRANCH   7  16
ENDBRANCH   3   7
BRANCH   1  26
HETATM   26  N1  UNL     1      48.892   8.091   1.708  1.00  0.00    -0.278 N
ATOM     27  H1  UNL     1      48.457   7.265   1.298  1.00  0.00     0.179 HD
BRANCH  26  28
HETATM   28  S1  UNL     1      49.971   7.819   2.997  1.00  0.00     0.263 S
HETATM   29  O1  UNL     1      51.362   8.089   2.484  1.00  0.00    -0.200 OA
HETATM   30  O2  UNL     1      49.716   8.865   4.079  1.00  0.00    -0.200 OA
BRANCH  28  31
HETATM   31  C21 UNL     1      49.922   6.238   3.676  1.00  0.00     0.080 A
HETATM   32  C22 UNL     1      49.106   5.239   3.231  1.00  0.00     0.027 A
HETATM   33  C23 UNL     1      49.112   3.993   3.809  1.00  0.00     0.025 A
HETATM   34  C24 UNL     1      49.954   3.731   4.862  1.00  0.00     0.034 A
HETATM   35 CL1  UNL     1      49.964   2.144   5.601  1.00  0.00    -0.084 Cl
HETATM   36  C25 UNL     1      50.796   4.717   5.344  1.00  0.00     0.025 A
HETATM   37  C26 UNL     1      50.770   5.957   4.745  1.00  0.00     0.027 A
ENDBRANCH  28  31
ENDBRANCH  26  28
ENDBRANCH   1  26
BRANCH   6  38
HETATM   38  O3  UNL     1      50.631   9.336  -0.068  1.00  0.00    -0.358 OA
ATOM     39  H3  UNL     1      51.157   9.648  -0.795  1.00  0.00     0.217 HD
ENDBRANCH   6  38
TORSDOF 8
ENDMDL