MODEL 1
REMARK VINA RESULT: -7.485281739      0.000      0.000
REMARK  11 active torsions:
REMARK  status: ('A' for Active; 'I' for Inactive)
REMARK    1  A    between atoms: C2_2  and  O1_4
REMARK    2  A    between atoms: O1_4  and  C3_5
REMARK    3  A    between atoms: C13_16  and  C14_17
REMARK    4  A    between atoms: C14_17  and  O3_18
REMARK    5  A    between atoms: C15_20  and  C16_21
REMARK    6  A    between atoms: C17_22  and  C18_23
REMARK    7  A    between atoms: C18_23  and  C20_25
REMARK    8  A    between atoms: C18_23  and  C21_28
REMARK    9  A    between atoms: C20_25  and  O4_26
REMARK   10  A    between atoms: C21_28  and  C22_29
REMARK   11  A    between atoms: C22_29  and  O5_30
ROOT
HETATM    1  C3  UNL     1      50.645   3.622   2.439  1.00  0.00     0.163 C
HETATM    2  C4  UNL     1      50.478   4.656   3.485  1.00  0.00     0.036 C
HETATM    3  C5  UNL     1      50.605   6.094   2.954  1.00  0.00     0.017 C
HETATM    4  C6  UNL     1      49.513   6.320   1.963  1.00  0.00    -0.004 C
HETATM    5  C7  UNL     1      48.209   5.806   2.733  1.00  0.00     0.021 C
HETATM    6  C8  UNL     1      49.720   5.361   0.863  1.00  0.00    -0.035 C
HETATM    7  C9  UNL     1      49.244   5.607  -0.342  1.00  0.00     0.009 C
HETATM    8  C10 UNL     1      48.567   6.860  -0.586  1.00  0.00     0.033 C
HETATM    9  C11 UNL     1      48.463   7.806   0.316  1.00  0.00     0.055 C
HETATM   10  O2  UNL     1      47.702   8.875  -0.191  1.00  0.00    -0.354 OA
HETATM   11  C12 UNL     1      46.895   9.743   0.645  1.00  0.00     0.186 C
HETATM   12  C13 UNL     1      47.841  10.521   1.471  1.00  0.00     0.067 C
HETATM   13  C23 UNL     1      48.367   9.861   2.708  1.00  0.00     0.014 C
HETATM   14  C24 UNL     1      48.355   8.363   2.705  1.00  0.00     0.018 C
HETATM   15  C25 UNL     1      49.131   7.698   1.637  1.00  0.00     0.016 C
HETATM   16  C26 UNL     1      50.456   8.531   1.455  1.00  0.00     0.023 C
HETATM   17  C27 UNL     1      50.531   4.133   1.008  1.00  0.00     0.229 C
HETATM   18  F2  UNL     1      50.060   3.197   0.129  1.00  0.00    -0.242 F
ENDROOT
BRANCH  12  19
HETATM   19  C14 UNL     1      47.360  11.898   1.692  1.00  0.00     0.057 C
HETATM   20  C15 UNL     1      47.535  12.480   2.904  1.00  0.00     0.097 C
BRANCH  19  21
HETATM   21  O3  UNL     1      46.729  12.644   0.718  1.00  0.00    -0.364 OA
ATOM     22  H3  UNL     1      47.197  13.180   0.090  1.00  0.00     0.217 HD
ENDBRANCH  19  21
BRANCH  20  23
HETATM   23  C16 UNL     1      47.090  13.769   3.146  1.00  0.00    -0.075 C
HETATM   24  C17 UNL     1      46.704  14.890   3.357  1.00  0.00    -0.090 C
BRANCH  24  25
HETATM   25  C18 UNL     1      46.238  16.217   3.607  1.00  0.00     0.043 C
HETATM   26  C19 UNL     1      45.242  16.587   2.497  1.00  0.00     0.031 C
BRANCH  25  27
HETATM   27  C20 UNL     1      45.496  16.303   4.933  1.00  0.00     0.186 C
BRANCH  27  28
HETATM   28  O4  UNL     1      44.887  17.537   5.090  1.00  0.00    -0.399 OA
ATOM     29  H4  UNL     1      45.093  17.917   5.936  1.00  0.00     0.209 HD
ENDBRANCH  27  28
ENDBRANCH  25  27
BRANCH  25  30
HETATM   30  C21 UNL     1      47.431  17.156   3.550  1.00  0.00     0.050 C
BRANCH  30  31
HETATM   31  C22 UNL     1      48.514  16.861   4.518  1.00  0.00     0.165 C
BRANCH  31  32
HETATM   32  O5  UNL     1      48.937  17.888   5.313  1.00  0.00    -0.401 OA
ATOM     33  H5  UNL     1      49.046  17.703   6.238  1.00  0.00     0.209 HD
ENDBRANCH  31  32
ENDBRANCH  30  31
ENDBRANCH  25  30
ENDBRANCH  24  25
ENDBRANCH  20  23
ENDBRANCH  12  19
BRANCH   1  34
HETATM   34  O1  UNL     1      49.937   2.448   2.592  1.00  0.00    -0.349 OA
BRANCH  34  35
HETATM   35  C2  UNL     1      49.029   2.387   3.608  1.00  0.00     0.303 C
HETATM   36  C1  UNL     1      47.601   2.179   3.219  1.00  0.00     0.076 C
HETATM   37  F1  UNL     1      49.378   1.101   4.218  1.00  0.00    -0.220 F
ENDBRANCH  34  35
ENDBRANCH   1  34
TORSDOF 11
ENDMDL