MODEL 1
REMARK VINA RESULT: -7.864510615      0.000      0.000
REMARK  10 active torsions:
REMARK  status: ('A' for Active; 'I' for Inactive)
REMARK    1  A    between atoms: C3_5  and  C4_6
REMARK    2  A    between atoms: C6_8  and  O1_9
REMARK    3  A    between atoms: O1_9  and  C7_10
REMARK    4  A    between atoms: C7_10  and  C8_11
REMARK    5  A    between atoms: C8_11  and  C9_12
REMARK    6  A    between atoms: C9_12  and  C10_13
REMARK    7  A    between atoms: C10_13  and  O2_14
REMARK    8  A    between atoms: C12_17  and  C13_18
REMARK    9  A    between atoms: C15_20  and  N2_21
REMARK   10  A    between atoms: N2_21  and  C16_23
ROOT
HETATM    1  C4  UNL     1      44.370  15.752  -0.373  1.00  0.00     0.017 A
HETATM    2  C5  UNL     1      44.247  16.313   0.906  1.00  0.00     0.052 A
HETATM    3  C6  UNL     1      44.576  15.586   2.021  1.00  0.00     0.070 A
HETATM    4  C11 UNL     1      45.031  14.300   1.910  1.00  0.00     0.052 A
HETATM    5  C12 UNL     1      45.165  13.712   0.652  1.00  0.00     0.017 A
HETATM    6  C23 UNL     1      44.831  14.452  -0.448  1.00  0.00     0.059 A
HETATM    7 CL1  UNL     1      44.882  13.761  -2.061  1.00  0.00    -0.082 Cl
ENDROOT
BRANCH   5   8
HETATM    8  C13 UNL     1      45.620  12.335   0.555  1.00  0.00     0.064 A
HETATM    9  C14 UNL     1      46.838  11.750   0.688  1.00  0.00     0.081 A
HETATM   10  C15 UNL     1      46.742  10.351   0.546  1.00  0.00     0.120 A
HETATM   11  N3  UNL     1      45.455  10.137   0.330  1.00  0.00    -0.281 N
HETATM   12  C22 UNL     1      44.796   8.839   0.113  1.00  0.00     0.179 C
HETATM   13  N4  UNL     1      44.781  11.263   0.330  1.00  0.00    -0.296 N
ATOM     14  H4  UNL     1      43.774  11.336   0.182  1.00  0.00     0.187 HD
BRANCH  10  15
HETATM   15  N2  UNL     1      47.684   9.544   0.615  1.00  0.00    -0.370 N
ATOM     16  H2  UNL     1      47.746   8.876  -0.153  1.00  0.00     0.161 HD
BRANCH  15  17
HETATM   17  C16 UNL     1      48.690   9.420   1.617  1.00  0.00     0.083 C
HETATM   18  C17 UNL     1      49.897   8.758   1.013  1.00  0.00     0.025 C
HETATM   19  C18 UNL     1      49.799   7.253   0.997  1.00  0.00     0.002 C
HETATM   20  C19 UNL     1      49.707   6.813   2.450  1.00  0.00     0.000 C
HETATM   21  C20 UNL     1      48.362   7.304   2.937  1.00  0.00     0.002 C
HETATM   22  C21 UNL     1      48.220   8.788   2.889  1.00  0.00     0.025 C
ENDBRANCH  15  17
ENDBRANCH  10  15
ENDBRANCH   5   8
BRANCH   3  23
HETATM   23  O1  UNL     1      44.440  16.172   3.261  1.00  0.00    -0.351 OA
BRANCH  23  24
HETATM   24  C7  UNL     1      45.455  16.185   4.236  1.00  0.00     0.175 C
BRANCH  24  25
HETATM   25  C8  UNL     1      46.305  17.432   3.948  1.00  0.00     0.029 C
BRANCH  25  26
HETATM   26  C9  UNL     1      47.669  17.040   3.450  1.00  0.00     0.028 C
BRANCH  26  27
HETATM   27  C10 UNL     1      48.589  16.682   4.579  1.00  0.00     0.164 C
BRANCH  27  28
HETATM   28  O2  UNL     1      48.841  17.872   5.293  1.00  0.00    -0.401 OA
ATOM     29  H2  UNL     1      49.503  17.667   5.944  1.00  0.00     0.209 HD
ENDBRANCH  27  28
ENDBRANCH  26  27
ENDBRANCH  25  26
ENDBRANCH  24  25
ENDBRANCH  23  24
ENDBRANCH   3  23
BRANCH   1  30
HETATM   30  C3  UNL     1      43.985  16.565  -1.516  1.00  0.00     0.061 A
HETATM   31  N1  UNL     1      44.828  17.525  -2.010  1.00  0.00    -0.344 N
HETATM   32  C2  UNL     1      44.305  18.130  -3.070  1.00  0.00     0.077 A
ATOM     33  H1  UNL     1      45.742  17.747  -1.614  1.00  0.00     0.167 HD
HETATM   34  C1  UNL     1      44.933  19.232  -3.878  1.00  0.00     0.089 C
HETATM   35  N5  UNL     1      43.117  17.577  -3.284  1.00  0.00    -0.354 N
HETATM   36  C24 UNL     1      42.909  16.609  -2.332  1.00  0.00     0.119 A
ATOM     37  H5  UNL     1      42.469  17.829  -4.029  1.00  0.00     0.166 HD
ENDBRANCH   1  30
TORSDOF 10
ENDMDL