MODEL 1
REMARK VINA RESULT: -8.824572010      0.000      0.000
REMARK  10 active torsions:
REMARK  status: ('A' for Active; 'I' for Inactive)
REMARK    1  A    between atoms: C3_5  and  C4_6
REMARK    2  A    between atoms: C4_6  and  C5_7
REMARK    3  A    between atoms: C5_7  and  O1_8
REMARK    4  A    between atoms: N2_10  and  O2_12
REMARK    5  A    between atoms: C8_16  and  C9_17
REMARK    6  A    between atoms: N3_20  and  C12_21
REMARK    7  A    between atoms: C12_21  and  C13_22
REMARK    8  A    between atoms: C13_22  and  C14_23
REMARK    9  A    between atoms: C17_26  and  N4_27
REMARK   10  A    between atoms: N4_27  and  C18_29
ROOT
HETATM    1  C9  UNL     1      49.607   6.668   2.869  1.00  0.00    -0.003 C
HETATM    2  C10 UNL     1      49.997   6.443   1.423  1.00  0.00     0.070 C
HETATM    3  C11 UNL     1      48.571   6.427   0.827  1.00  0.00     0.281 C
HETATM    4  N3  UNL     1      47.899   7.490   1.579  1.00  0.00     0.126 N
HETATM    5  C26 UNL     1      48.269   7.233   2.977  1.00  0.00     0.435 C
HETATM    6  F1  UNL     1      48.246   8.552   3.539  1.00  0.00    -0.211 F
ENDROOT
BRANCH   1   7
HETATM    7  C8  UNL     1      50.317   5.900   3.845  1.00  0.00    -0.007 A
HETATM    8  C2  UNL     1      51.511   6.273   4.407  1.00  0.00     0.016 A
HETATM    9  C1  UNL     1      51.995   7.657   4.254  1.00  0.00     0.069 C
HETATM   10  N1  UNL     1      52.204   5.460   5.221  1.00  0.00    -0.362 N
HETATM   11  C3  UNL     1      51.755   4.207   5.544  1.00  0.00     0.017 A
ATOM     12  H1  UNL     1      53.090   5.784   5.610  1.00  0.00     0.165 HD
HETATM   13  C6  UNL     1      50.605   3.762   5.039  1.00  0.00     0.026 A
HETATM   14  C7  UNL     1      49.890   4.602   4.197  1.00  0.00     0.016 A
BRANCH  11  15
HETATM   15  C4  UNL     1      52.560   3.398   6.514  1.00  0.00     0.142 C
BRANCH  15  16
HETATM   16  C5  UNL     1      51.883   3.614   7.849  1.00  0.00     0.140 C
HETATM   17  N2  UNL     1      51.170   2.720   8.375  1.00  0.00    -0.251 N
ATOM     18  H2  UNL     1      50.740   2.926   9.276  1.00  0.00     0.196 HD
BRANCH  16  19
HETATM   19  O1  UNL     1      52.077   4.827   8.480  1.00  0.00    -0.348 OA
ATOM     20  H1  UNL     1      51.519   5.553   8.226  1.00  0.00     0.219 HD
ENDBRANCH  16  19
BRANCH  17  21
HETATM   21  O2  UNL     1      50.936   1.501   7.825  1.00  0.00    -0.288 OA
ATOM     22  H2  UNL     1      50.145   0.993   7.962  1.00  0.00     0.244 HD
ENDBRANCH  17  21
ENDBRANCH  15  16
ENDBRANCH  11  15
ENDBRANCH   1   7
BRANCH   4  23
HETATM   23  C12 UNL     1      48.527   8.768   1.201  1.00  0.00     0.277 C
BRANCH  23  24
HETATM   24  C13 UNL     1      47.560   9.611   0.425  1.00  0.00     0.035 C
BRANCH  24  25
HETATM   25  C14 UNL     1      46.822  10.638   1.214  1.00  0.00    -0.012 C
HETATM   26  C15 UNL     1      47.893  11.510   1.884  1.00  0.00     0.010 C
HETATM   27  C16 UNL     1      47.293  12.521   2.809  1.00  0.00     0.052 C
HETATM   28  C17 UNL     1      46.242  13.288   2.088  1.00  0.00    -0.018 C
HETATM   29  C24 UNL     1      45.199  12.428   1.486  1.00  0.00     0.052 C
HETATM   30  C25 UNL     1      45.931  11.550   0.431  1.00  0.00     0.010 C
BRANCH  28  31
HETATM   31  N4  UNL     1      45.786  14.461   2.696  1.00  0.00    -0.392 N
ATOM     32  H4  UNL     1      44.810  14.732   2.580  1.00  0.00     0.159 HD
BRANCH  31  33
HETATM   33  C18 UNL     1      46.631  15.274   3.460  1.00  0.00     0.081 C
HETATM   34  C19 UNL     1      46.508  15.274   4.947  1.00  0.00     0.025 C
HETATM   35  C20 UNL     1      46.650  16.654   5.562  1.00  0.00     0.002 C
HETATM   36  C21 UNL     1      47.766  17.415   4.887  1.00  0.00     0.000 C
HETATM   37  C22 UNL     1      47.501  17.556   3.419  1.00  0.00     0.002 C
HETATM   38  C23 UNL     1      46.311  16.728   3.031  1.00  0.00     0.025 C
ENDBRANCH  31  33
ENDBRANCH  28  31
ENDBRANCH  24  25
ENDBRANCH  23  24
ENDBRANCH   4  23
TORSDOF 10
ENDMDL