MODEL 1
REMARK VINA RESULT: -6.023191607      0.000      0.000
REMARK  11 active torsions:
REMARK  status: ('A' for Active; 'I' for Inactive)
REMARK    1  A    between atoms: O1_2  and  C2_3
REMARK    2  A    between atoms: C2_3  and  O2_4
REMARK    3  A    between atoms: O2_4  and  C3_5
REMARK    4  A    between atoms: C3_5  and  C4_6
REMARK    5  A    between atoms: C13_15  and  O3_16
REMARK    6  A    between atoms: C15_19  and  C16_20
REMARK    7  A    between atoms: C16_20  and  C17_22
REMARK    8  A    between atoms: C17_22  and  O5_23
REMARK    9  A    between atoms: C18_25  and  C19_26
REMARK   10  A    between atoms: C20_27  and  C21_28
REMARK   11  A    between atoms: C21_28  and  C22_29
ROOT
HETATM    1  C4  UNL     1      50.303   2.451   4.880  1.00  0.00    -0.012 C
HETATM    2  C5  UNL     1      49.741   2.100   6.274  1.00  0.00     0.018 C
HETATM    3  C6  UNL     1      49.908   1.251   4.029  1.00  0.00    -0.008 C
HETATM    4  C7  UNL     1      48.544   0.720   4.391  1.00  0.00     0.011 C
HETATM    5  C8  UNL     1      50.028   1.490   2.572  1.00  0.00     0.006 C
HETATM    6  C9  UNL     1      50.291   2.879   2.141  1.00  0.00     0.010 C
HETATM    7  C10 UNL     1      49.445   3.880   2.942  1.00  0.00    -0.033 C
HETATM    8  C11 UNL     1      48.022   3.592   2.516  1.00  0.00     0.016 C
HETATM    9  C12 UNL     1      49.614   3.663   4.431  1.00  0.00     0.033 C
HETATM   10  C13 UNL     1      50.093   4.926   5.141  1.00  0.00     0.125 C
HETATM   11  C14 UNL     1      49.171   6.039   4.677  1.00  0.00     0.050 C
HETATM   12  C15 UNL     1      49.567   6.433   3.249  1.00  0.00     0.036 C
HETATM   13  C18 UNL     1      48.366   6.990   2.522  1.00  0.00     0.024 C
HETATM   14  C25 UNL     1      48.539   6.637   1.078  1.00  0.00     0.010 C
HETATM   15  C26 UNL     1      49.502   5.449   1.059  1.00  0.00     0.007 C
HETATM   16  C27 UNL     1      49.953   5.220   2.475  1.00  0.00     0.011 C
ENDROOT
BRANCH   1  17
HETATM   17  C3  UNL     1      51.784   2.476   5.075  1.00  0.00     0.180 C
BRANCH  17  18
HETATM   18  O2  UNL     1      51.987   2.353   6.478  1.00  0.00    -0.366 OA
BRANCH  18  19
HETATM   19  C2  UNL     1      53.124   3.020   6.874  1.00  0.00     0.337 C
BRANCH  19  20
HETATM   20  O1  UNL     1      52.738   4.235   7.429  1.00  0.00    -0.372 OA
HETATM   21  C1  UNL     1      51.961   4.065   8.564  1.00  0.00     0.204 C
ENDBRANCH  19  20
ENDBRANCH  18  19
ENDBRANCH  17  18
ENDBRANCH   1  17
BRANCH  10  22
HETATM   22  O3  UNL     1      51.419   5.175   4.963  1.00  0.00    -0.395 OA
ATOM     23  H3  UNL     1      51.669   6.065   5.184  1.00  0.00     0.210 HD
ENDBRANCH  10  22
BRANCH  12  24
HETATM   24  C16 UNL     1      50.652   7.436   3.397  1.00  0.00     0.159 C
HETATM   25  O4  UNL     1      50.824   8.036   4.475  1.00  0.00    -0.295 OA
BRANCH  24  26
HETATM   26  C17 UNL     1      51.577   7.779   2.291  1.00  0.00     0.243 C
BRANCH  26  27
HETATM   27  O5  UNL     1      51.366   9.097   1.875  1.00  0.00    -0.394 OA
ATOM     28  H5  UNL     1      52.152   9.614   2.008  1.00  0.00     0.209 HD
ENDBRANCH  26  27
ENDBRANCH  24  26
ENDBRANCH  12  24
BRANCH  13  29
HETATM   29  C19 UNL     1      47.995   8.371   2.711  1.00  0.00    -0.025 C
HETATM   30  C20 UNL     1      47.651   9.163   1.712  1.00  0.00    -0.030 C
BRANCH  30  31
HETATM   31  C21 UNL     1      47.262  10.587   1.887  1.00  0.00     0.030 C
BRANCH  31  32
HETATM   32  C22 UNL     1      46.181  10.953   0.918  1.00  0.00    -0.019 C
HETATM   33  C23 UNL     1      45.603   9.733   0.291  1.00  0.00     0.010 C
HETATM   34  C24 UNL     1      45.115  11.762   1.671  1.00  0.00     0.010 C
ENDBRANCH  31  32
ENDBRANCH  30  31
ENDBRANCH  13  29
TORSDOF 11
ENDMDL