MODEL 4
REMARK VINA RESULT: -6.937045185      2.156      5.267
REMARK  11 active torsions:
REMARK  status: ('A' for Active; 'I' for Inactive)
REMARK    1  A    between atoms: C4_4  and  C5_5
REMARK    2  A    between atoms: C5_5  and  C6_6
REMARK    3  A    between atoms: C6_6  and  C7_7
REMARK    4  A    between atoms: C9_9  and  C10_10
REMARK    5  A    between atoms: C10_10  and  C11_11
REMARK    6  A    between atoms: C11_11  and  O1_12
REMARK    7  A    between atoms: C13_15  and  C14_16
REMARK    8  A    between atoms: C14_16  and  C15_18
REMARK    9  A    between atoms: C18_23  and  O4_24
REMARK   10  A    between atoms: C24_31  and  C26_33
REMARK   11  A    between atoms: C26_33  and  O5_34
ROOT
HETATM    1  C11 UNL     1      45.881  11.877   0.337  1.00  0.00     0.066 C
HETATM    2  C12 UNL     1      46.318  12.684  -0.851  1.00  0.00     0.058 C
HETATM    3  C13 UNL     1      46.295  11.873  -2.142  1.00  0.00     0.132 C
HETATM    4  C17 UNL     1      47.439  10.943  -2.036  1.00  0.00     0.167 C
HETATM    5  O3  UNL     1      48.406  11.111  -2.713  1.00  0.00    -0.294 OA
HETATM    6  C18 UNL     1      47.441   9.762  -1.080  1.00  0.00     0.197 C
HETATM    7  C19 UNL     1      47.843  10.269   0.251  1.00  0.00     0.005 C
HETATM    8  C20 UNL     1      49.130  11.048   0.131  1.00  0.00     0.020 C
HETATM    9  C21 UNL     1      46.746  10.985   1.000  1.00  0.00     0.032 C
HETATM   10  C22 UNL     1      47.561  11.365   2.204  1.00  0.00     0.009 C
HETATM   11  C23 UNL     1      48.113   9.961   2.576  1.00  0.00     0.012 C
HETATM   12  C24 UNL     1      48.181   9.191   1.251  1.00  0.00    -0.012 C
HETATM   13  C25 UNL     1      49.582   8.645   1.053  1.00  0.00     0.018 C
ENDROOT
BRANCH   1  14
HETATM   14  C10 UNL     1      45.081  12.816   1.202  1.00  0.00     0.065 C
BRANCH  14  15
HETATM   15  C9  UNL     1      44.777  14.124   0.607  1.00  0.00    -0.021 C
HETATM   16  C7  UNL     1      44.728  15.240   1.248  1.00  0.00    -0.087 C
HETATM   17  C8  UNL     1      44.368  16.491   0.455  1.00  0.00     0.043 C
BRANCH  16  18
HETATM   18  C6  UNL     1      44.961  15.470   2.685  1.00  0.00     0.037 C
BRANCH  18  19
HETATM   19  C5  UNL     1      45.526  16.836   2.997  1.00  0.00     0.031 C
BRANCH  19  20
HETATM   20  C4  UNL     1      46.991  16.762   3.171  1.00  0.00    -0.024 C
HETATM   21  C2  UNL     1      47.575  16.861   4.336  1.00  0.00    -0.091 C
HETATM   22  C1  UNL     1      49.066  16.782   4.454  1.00  0.00     0.042 C
HETATM   23  C3  UNL     1      46.824  17.037   5.616  1.00  0.00     0.042 C
ENDBRANCH  19  20
ENDBRANCH  18  19
ENDBRANCH  16  18
ENDBRANCH  14  15
ENDBRANCH   1  14
BRANCH   1  24
HETATM   24  O1  UNL     1      44.809  11.098  -0.279  1.00  0.00    -0.389 OA
ATOM     25  H1  UNL     1      45.255  10.763  -1.049  1.00  0.00     0.210 HD
ENDBRANCH   1  24
BRANCH   3  26
HETATM   26  C14 UNL     1      46.431  12.824  -3.273  1.00  0.00     0.156 C
HETATM   27  O2  UNL     1      46.111  12.434  -4.425  1.00  0.00    -0.295 OA
BRANCH  26  28
HETATM   28  C15 UNL     1      46.911  14.208  -3.200  1.00  0.00     0.148 C
HETATM   29  C16 UNL     1      46.115  15.139  -4.105  1.00  0.00     0.034 C
HETATM   30 CL1  UNL     1      48.627  14.469  -3.435  1.00  0.00    -0.117 Cl
ENDBRANCH  26  28
ENDBRANCH   3  26
BRANCH   6  31
HETATM   31  O4  UNL     1      48.428   8.904  -1.572  1.00  0.00    -0.387 OA
ATOM     32  H4  UNL     1      47.956   8.255  -2.079  1.00  0.00     0.210 HD
ENDBRANCH   6  31
BRANCH  12  33
HETATM   33  C26 UNL     1      47.266   8.036   1.333  1.00  0.00     0.174 C
BRANCH  33  34
HETATM   34  O5  UNL     1      47.534   7.357   2.554  1.00  0.00    -0.400 OA
ATOM     35  H5  UNL     1      46.783   7.478   3.124  1.00  0.00     0.209 HD
ENDBRANCH  33  34
ENDBRANCH  12  33
TORSDOF 11
ENDMDL