MODEL 4
REMARK VINA RESULT: -6.937749037      4.012      7.247
REMARK  10 active torsions:
REMARK  status: ('A' for Active; 'I' for Inactive)
REMARK    1  A    between atoms: C2_2  and  C3_3
REMARK    2  A    between atoms: C3_3  and  C4_4
REMARK    3  A    between atoms: C4_4  and  N1_5
REMARK    4  A    between atoms: C4_4  and  C11_16
REMARK       I    between atoms: N1_5  and  C5_7
REMARK       I    between atoms: C5_7  and  N2_9
REMARK    5  A    between atoms: N2_9  and  C6_11
REMARK    6  A    between atoms: C6_11  and  C8_13
REMARK    7  A    between atoms: C12_19  and  N4_20
REMARK    8  A    between atoms: N4_20  and  C13_22
REMARK    9  A    between atoms: C15_24  and  C16_25
REMARK   10  A    between atoms: N5_27  and  C18_28
ROOT
HETATM    1  C11 UNL     1      48.991   9.281   0.766  1.00  0.00     0.095 A
HETATM    2  N3  UNL     1      48.226   9.939   1.664  1.00  0.00    -0.188 N
ATOM      3  H3  UNL     1      47.761   9.389   2.387  1.00  0.00     0.184 HD
HETATM    4  C12 UNL     1      48.038  11.258   1.671  1.00  0.00     0.683 A
HETATM    5  N6  UNL     1      48.636  12.003   0.734  1.00  0.00    -0.200 N
ATOM      6  H6  UNL     1      48.508  13.015   0.717  1.00  0.00     0.183 HD
HETATM    7  C23 UNL     1      49.409  11.397  -0.184  1.00  0.00     0.132 A
HETATM    8  C24 UNL     1      49.598  10.031  -0.184  1.00  0.00     0.079 A
HETATM    9 CL1  UNL     1      50.599   9.265  -1.385  1.00  0.00    -0.080 Cl
ENDROOT
BRANCH   1  10
HETATM   10  C4  UNL     1      49.115   7.835   0.943  1.00  0.00     0.042 C
BRANCH  10  11
HETATM   11  C3  UNL     1      48.451   6.997  -0.126  1.00  0.00     0.059 C
BRANCH  11  12
HETATM   12  C2  UNL     1      49.266   5.915  -0.709  1.00  0.00     0.002 C
HETATM   13  C1  UNL     1      48.762   4.516  -0.550  1.00  0.00     0.005 C
ENDBRANCH  11  12
ENDBRANCH  10  11
BRANCH  10  14
HETATM   14  N1  UNL     1      50.342   7.309   1.423  1.00  0.00    -0.310 N
HETATM   15  C5  UNL     1      50.680   7.343   2.789  1.00  0.00     0.320 C
HETATM   16  O1  UNL     1      49.877   7.851   3.611  1.00  0.00    -0.247 OA
HETATM   17  N2  UNL     1      51.893   6.831   3.286  1.00  0.00    -0.338 N
ATOM     18  H2  UNL     1      52.547   6.417   2.621  1.00  0.00     0.164 HD
ATOM     19  H1  UNL     1      50.997   6.894   0.761  1.00  0.00     0.170 HD
BRANCH  17  20
HETATM   20  C6  UNL     1      52.265   6.855   4.678  1.00  0.00     0.085 C
HETATM   21  C7  UNL     1      52.885   8.154   5.114  1.00  0.00     0.032 C
BRANCH  20  22
HETATM   22  C8  UNL     1      53.215   5.734   4.975  1.00  0.00    -0.000 C
HETATM   23  C9  UNL     1      53.909   5.320   3.671  1.00  0.00     0.011 C
HETATM   24  C10 UNL     1      52.572   4.551   5.635  1.00  0.00     0.011 C
ENDBRANCH  20  22
ENDBRANCH  17  20
ENDBRANCH  10  14
ENDBRANCH   1  10
BRANCH   4  25
HETATM   25  N4  UNL     1      47.278  11.736   2.604  1.00  0.00    -0.190 N
ATOM     26  H4  UNL     1      47.060  11.123   3.390  1.00  0.00     0.184 HD
BRANCH  25  27
HETATM   27  C13 UNL     1      46.727  13.036   2.623  1.00  0.00     0.066 A
HETATM   28  C14 UNL     1      45.658  13.556   1.941  1.00  0.00     0.056 A
HETATM   29  C15 UNL     1      45.480  14.893   2.272  1.00  0.00     0.014 A
HETATM   30  N5  UNL     1      46.425  15.200   3.147  1.00  0.00    -0.349 N
HETATM   31  C22 UNL     1      47.197  14.090   3.379  1.00  0.00     0.122 A
BRANCH  29  32
HETATM   32  C16 UNL     1      44.426  15.789   1.755  1.00  0.00     0.053 C
HETATM   33  C17 UNL     1      44.435  15.884   0.240  1.00  0.00     0.011 C
ENDBRANCH  29  32
BRANCH  30  34
HETATM   34  C18 UNL     1      46.740  16.409   3.841  1.00  0.00     0.026 C
HETATM   35  C19 UNL     1      45.887  16.598   5.103  1.00  0.00     0.038 C
HETATM   36  C20 UNL     1      48.176  16.255   4.392  1.00  0.00     0.038 C
HETATM   37  C21 UNL     1      46.780  17.665   3.078  1.00  0.00     0.038 C
ENDBRANCH  30  34
ENDBRANCH  25  27
ENDBRANCH   4  25
TORSDOF 10
ENDMDL