MODEL 2
REMARK VINA RESULT: -7.612820461      0.821      1.321
REMARK  12 active torsions:
REMARK  status: ('A' for Active; 'I' for Inactive)
REMARK    1  A    between atoms: O1_2  and  C2_3
REMARK    2  A    between atoms: C2_3  and  C3_5
REMARK    3  A    between atoms: C3_5  and  C4_6
REMARK    4  A    between atoms: C4_6  and  C6_8
REMARK    5  A    between atoms: C6_8  and  C7_9
REMARK    6  A    between atoms: C7_9  and  C9_11
REMARK    7  A    between atoms: C9_11  and  C10_12
REMARK    8  A    between atoms: C11_13  and  C12_14
REMARK    9  A    between atoms: C12_14  and  C14_16
REMARK   10  A    between atoms: C22_25  and  O3_27
REMARK   11  A    between atoms: C24_29  and  O4_30
REMARK   12  A    between atoms: C25_32  and  O5_33
ROOT
HETATM    1  C14 UNL     1      48.198   8.217   0.613  1.00  0.00     0.047 C
HETATM    2  C15 UNL     1      48.718   7.385  -0.440  1.00  0.00    -0.012 C
HETATM    3  C16 UNL     1      48.907   5.960  -0.412  1.00  0.00    -0.069 C
HETATM    4  C17 UNL     1      49.030   5.343  -1.801  1.00  0.00     0.047 C
HETATM    5  C18 UNL     1      49.016   5.068   0.516  1.00  0.00    -0.017 C
HETATM    6  C19 UNL     1      48.980   5.211   1.987  1.00  0.00     0.056 C
HETATM    7  C20 UNL     1      50.358   5.147   2.537  1.00  0.00    -0.000 C
HETATM    8  C21 UNL     1      51.104   6.115   3.018  1.00  0.00     0.044 C
HETATM    9 CL1  UNL     1      52.747   5.659   3.603  1.00  0.00    -0.086 Cl
HETATM   10  C22 UNL     1      50.734   7.560   3.131  1.00  0.00     0.120 C
HETATM   11  C23 UNL     1      49.809   7.724   4.298  1.00  0.00     0.055 C
HETATM   12  C24 UNL     1      50.440   8.246   1.866  1.00  0.00     0.187 C
HETATM   13  C25 UNL     1      49.157   8.874   1.571  1.00  0.00     0.158 C
ENDROOT
BRANCH   1  14
HETATM   14  C12 UNL     1      47.442   9.373  -0.090  1.00  0.00     0.014 C
HETATM   15  C13 UNL     1      46.654   8.844  -1.289  1.00  0.00     0.015 C
BRANCH  14  16
HETATM   16  C11 UNL     1      46.571  10.144   0.781  1.00  0.00    -0.026 C
HETATM   17  C10 UNL     1      46.145  11.382   0.554  1.00  0.00    -0.030 C
BRANCH  17  18
HETATM   18  C9  UNL     1      45.252  12.117   1.490  1.00  0.00     0.031 C
BRANCH  18  19
HETATM   19  C7  UNL     1      45.781  13.491   1.702  1.00  0.00    -0.015 C
HETATM   20  C8  UNL     1      46.873  13.446   2.743  1.00  0.00     0.010 C
BRANCH  19  21
HETATM   21  C6  UNL     1      44.716  14.500   2.036  1.00  0.00     0.009 C
BRANCH  21  22
HETATM   22  C4  UNL     1      45.272  15.895   2.173  1.00  0.00    -0.009 C
HETATM   23  C5  UNL     1      44.609  16.818   1.180  1.00  0.00     0.010 C
BRANCH  22  24
HETATM   24  C3  UNL     1      45.031  16.436   3.561  1.00  0.00     0.115 C
BRANCH  24  25
HETATM   25  C2  UNL     1      46.245  17.054   4.139  1.00  0.00     0.258 C
HETATM   26  O2  UNL     1      46.217  17.703   5.208  1.00  0.00    -0.265 OA
BRANCH  25  27
HETATM   27  O1  UNL     1      47.482  16.923   3.487  1.00  0.00    -0.326 OA
HETATM   28  C1  UNL     1      48.650  16.662   4.238  1.00  0.00     0.213 C
ENDBRANCH  25  27
ENDBRANCH  24  25
ENDBRANCH  22  24
ENDBRANCH  21  22
ENDBRANCH  19  21
ENDBRANCH  18  19
ENDBRANCH  17  18
ENDBRANCH  14  16
ENDBRANCH   1  14
BRANCH  13  29
HETATM   29  O5  UNL     1      48.529   9.257   2.750  1.00  0.00    -0.392 OA
ATOM     30  H5  UNL     1      47.608   9.447   2.613  1.00  0.00     0.210 HD
ENDBRANCH  13  29
BRANCH  12  31
HETATM   31  O4  UNL     1      51.434   9.264   1.660  1.00  0.00    -0.390 OA
ATOM     32  H4  UNL     1      52.289   8.851   1.649  1.00  0.00     0.210 HD
ENDBRANCH  12  31
BRANCH  10  33
HETATM   33  O3  UNL     1      51.886   8.222   3.694  1.00  0.00    -0.382 OA
ATOM     34  H3  UNL     1      51.760   8.208   4.636  1.00  0.00     0.211 HD
ENDBRANCH  10  33
TORSDOF 12
ENDMDL