MODEL 1
REMARK VINA RESULT: -7.398898229      0.000      0.000
REMARK  10 active torsions:
REMARK  status: ('A' for Active; 'I' for Inactive)
REMARK    1  A    between atoms: C2_2  and  C3_3
REMARK    2  A    between atoms: C3_3  and  C4_4
REMARK    3  A    between atoms: C7_7  and  N1_8
REMARK       I    between atoms: N1_8  and  C8_10
REMARK    4  A    between atoms: C8_10  and  C9_12
REMARK    5  A    between atoms: C9_12  and  C10_13
REMARK    6  A    between atoms: C9_12  and  N2_16
REMARK    7  A    between atoms: C10_13  and  O2_14
REMARK    8  A    between atoms: C12_18  and  C13_19
REMARK    9  A    between atoms: C16_23  and  O3_24
REMARK   10  A    between atoms: C21_31  and  C22_32
ROOT
HETATM    1  N2  UNL     1      50.318   6.791   3.357  1.00  0.00    -0.362 N
HETATM    2  C11 UNL     1      51.147   7.416   4.333  1.00  0.00     0.135 C
HETATM    3  C12 UNL     1      51.746   6.297   5.209  1.00  0.00     0.053 C
HETATM    4  C14 UNL     1      50.869   5.169   4.936  1.00  0.00    -0.015 A
HETATM    5  C15 UNL     1      50.025   5.463   3.850  1.00  0.00     0.075 A
HETATM    6  C16 UNL     1      49.083   4.556   3.423  1.00  0.00     0.128 A
HETATM    7  C17 UNL     1      48.940   3.316   4.057  1.00  0.00     0.121 A
HETATM    8  O4  UNL     1      48.133   2.286   3.852  1.00  0.00    -0.319 OA
HETATM    9  C18 UNL     1      48.376   1.333   4.715  1.00  0.00     0.143 A
HETATM   10  C19 UNL     1      49.403   1.751   5.543  1.00  0.00     0.039 A
HETATM   11  C20 UNL     1      49.741   3.015   5.100  1.00  0.00     0.009 A
HETATM   12  C21 UNL     1      50.698   3.945   5.530  1.00  0.00    -0.036 A
ENDROOT
BRANCH   1  13
HETATM   13  C9  UNL     1      49.815   7.349   2.133  1.00  0.00     0.200 C
BRANCH  13  14
HETATM   14  C8  UNL     1      48.729   8.362   2.401  1.00  0.00     0.243 C
HETATM   15  N1  UNL     1      48.456   9.443   1.563  1.00  0.00    -0.355 N
ATOM     16  H1  UNL     1      49.039   9.539   0.731  1.00  0.00     0.162 HD
HETATM   17  O1  UNL     1      48.049   8.200   3.444  1.00  0.00    -0.271 OA
BRANCH  15  18
HETATM   18  C7  UNL     1      47.443  10.427   1.754  1.00  0.00     0.084 C
HETATM   19  C6  UNL     1      48.059  11.803   1.452  1.00  0.00     0.025 C
HETATM   20  C5  UNL     1      47.054  12.796   2.063  1.00  0.00     0.006 C
HETATM   21  C4  UNL     1      45.792  12.673   1.234  1.00  0.00    -0.014 C
HETATM   22  C25 UNL     1      45.227  11.306   1.151  1.00  0.00     0.006 C
HETATM   23  C24 UNL     1      46.286  10.261   0.824  1.00  0.00     0.025 C
BRANCH  21  24
HETATM   24  C3  UNL     1      44.810  13.744   1.486  1.00  0.00     0.004 C
BRANCH  24  25
HETATM   25  C2  UNL     1      45.256  14.982   2.167  1.00  0.00    -0.004 C
HETATM   26  C1  UNL     1      44.580  16.257   1.808  1.00  0.00     0.005 C
ENDBRANCH  24  25
ENDBRANCH  21  24
ENDBRANCH  15  18
ENDBRANCH  13  14
BRANCH  13  27
HETATM   27  C10 UNL     1      50.889   7.981   1.279  1.00  0.00     0.199 C
BRANCH  27  28
HETATM   28  O2  UNL     1      51.253   9.240   1.680  1.00  0.00    -0.398 OA
ATOM     29  H2  UNL     1      51.895   9.252   2.380  1.00  0.00     0.209 HD
ENDBRANCH  27  28
ENDBRANCH  13  27
ENDBRANCH   1  13
BRANCH   3  30
HETATM   30  C13 UNL     1      53.175   6.179   4.812  1.00  0.00     0.125 C
HETATM   31 CL1  UNL     1      53.478   5.126   3.429  1.00  0.00    -0.130 Cl
ENDBRANCH   3  30
BRANCH   6  32
HETATM   32  O3  UNL     1      48.210   4.761   2.366  1.00  0.00    -0.356 OA
ATOM     33  H3  UNL     1      48.055   4.141   1.663  1.00  0.00     0.218 HD
ENDBRANCH   6  32
BRANCH  12  34
HETATM   34  C22 UNL     1      51.521   3.497   6.672  1.00  0.00     0.036 C
HETATM   35  C23 UNL     1      52.747   2.804   6.162  1.00  0.00     0.010 C
ENDBRANCH  12  34
TORSDOF 10
ENDMDL