MODEL 5
REMARK VINA RESULT: -7.264068426      3.141      8.002
REMARK  9 active torsions:
REMARK  status: ('A' for Active; 'I' for Inactive)
REMARK    1  A    between atoms: C2_2  and  C3_3
REMARK    2  A    between atoms: C3_3  and  C4_4
REMARK    3  A    between atoms: C5_7  and  C6_8
REMARK    4  A    between atoms: C6_8  and  C7_9
REMARK    5  A    between atoms: C8_10  and  C9_11
REMARK    6  A    between atoms: C9_11  and  C10_12
REMARK    7  A    between atoms: C10_12  and  O1_13
REMARK    8  A    between atoms: N3_18  and  C12_19
REMARK    9  A    between atoms: C14_23  and  C15_24
ROOT
HETATM    1  C4  UNL     1      46.234  12.189   0.236  1.00  0.00     0.038 A
HETATM    2  N1  UNL     1      45.385  12.967   0.919  1.00  0.00    -0.347 N
ATOM      3  H1  UNL     1      44.433  13.181   0.623  1.00  0.00     0.167 HD
HETATM    4  C5  UNL     1      45.951  13.426   2.039  1.00  0.00     0.087 A
HETATM    5  N4  UNL     1      47.187  12.905   2.032  1.00  0.00    -0.343 N
ATOM      6  H4  UNL     1      47.874  13.072   2.766  1.00  0.00     0.167 HD
HETATM    7  C14 UNL     1      47.424  12.134   0.946  1.00  0.00     0.067 A
ENDROOT
BRANCH   7   8
HETATM    8  C15 UNL     1      48.591  11.348   0.599  1.00  0.00     0.002 A
HETATM    9  C16 UNL     1      49.459  11.892  -0.346  1.00  0.00     0.023 A
HETATM   10  C17 UNL     1      50.549  11.235  -0.806  1.00  0.00    -0.037 A
HETATM   11  C18 UNL     1      51.470  11.830  -1.824  1.00  0.00     0.050 C
HETATM   12  C19 UNL     1      50.782   9.959  -0.282  1.00  0.00     0.067 A
HETATM   13 CL1  UNL     1      52.190   9.122  -0.895  1.00  0.00    -0.081 Cl
HETATM   14  C20 UNL     1      49.978   9.349   0.654  1.00  0.00     0.065 A
HETATM   15  C21 UNL     1      48.851  10.099   1.083  1.00  0.00    -0.017 A
HETATM   16  N6  UNL     1      50.303   8.066   1.183  1.00  0.00    -0.340 N
HETATM   17  C22 UNL     1      47.886   9.451   1.978  1.00  0.00     0.049 C
HETATM   18  C23 UNL     1      48.666   8.626   3.015  1.00  0.00     0.081 C
HETATM   19  C24 UNL     1      49.401   7.568   2.203  1.00  0.00     0.077 C
HETATM   20  N5  UNL     1      49.231   6.354   2.401  1.00  0.00    -0.389 N
ATOM     21  H52 UNL     1      48.596   6.003   3.118  1.00  0.00     0.157 HD
ATOM     22  H51 UNL     1      49.723   5.645   1.857  1.00  0.00     0.157 HD
HETATM   23  C25 UNL     1      51.435   7.338   0.752  1.00  0.00     0.158 C
ENDBRANCH   7   8
BRANCH   1  24
HETATM   24  C3  UNL     1      45.899  11.500  -1.013  1.00  0.00     0.059 C
BRANCH  24  25
HETATM   25  C2  UNL     1      44.565  10.740  -0.880  1.00  0.00     0.002 C
HETATM   26  C1  UNL     1      44.864   9.510  -0.048  1.00  0.00     0.005 C
ENDBRANCH  24  25
ENDBRANCH   1  24
BRANCH   4  27
HETATM   27  C6  UNL     1      45.355  14.341   3.039  1.00  0.00     0.136 C
BRANCH  27  28
HETATM   28  C7  UNL     1      45.745  15.735   2.898  1.00  0.00     0.043 A
HETATM   29  C8  UNL     1      46.795  16.398   3.490  1.00  0.00    -0.015 A
HETATM   30  C11 UNL     1      46.747  17.694   3.020  1.00  0.00     0.116 A
HETATM   31  N2  UNL     1      45.707  17.784   2.181  1.00  0.00    -0.309 N
HETATM   32  N3  UNL     1      45.083  16.606   2.091  1.00  0.00    -0.296 N
ATOM     33  H2  UNL     1      45.430  18.630   1.683  1.00  0.00     0.186 HD
BRANCH  29  34
HETATM   34  C9  UNL     1      47.810  15.847   4.454  1.00  0.00     0.068 C
BRANCH  34  35
HETATM   35  C10 UNL     1      49.033  16.740   4.440  1.00  0.00     0.168 C
BRANCH  35  36
HETATM   36  O1  UNL     1      49.061  17.629   5.508  1.00  0.00    -0.401 OA
ATOM     37  H1  UNL     1      49.134  18.534   5.230  1.00  0.00     0.209 HD
ENDBRANCH  35  36
ENDBRANCH  34  35
ENDBRANCH  29  34
BRANCH  32  38
HETATM   38  C12 UNL     1      43.926  16.422   1.251  1.00  0.00     0.144 C
HETATM   39  C13 UNL     1      44.278  16.278  -0.190  1.00  0.00     0.028 C
ENDBRANCH  32  38
ENDBRANCH  27  28
ENDBRANCH   4  27
TORSDOF 9
ENDMDL