MODEL 3
REMARK VINA RESULT: -6.813572146      2.415      3.424
REMARK  10 active torsions:
REMARK  status: ('A' for Active; 'I' for Inactive)
REMARK    1  A    between atoms: C2_2  and  C3_3
REMARK    2  A    between atoms: C3_3  and  C4_4
REMARK    3  A    between atoms: C4_4  and  C5_5
REMARK    4  A    between atoms: C5_5  and  C6_6
REMARK    5  A    between atoms: C6_6  and  C7_7
REMARK    6  A    between atoms: C7_7  and  C8_8
REMARK    7  A    between atoms: C8_8  and  C10_10
REMARK    8  A    between atoms: C16_19  and  O1_20
REMARK    9  A    between atoms: C24_31  and  C25_32
REMARK   10  A    between atoms: C25_32  and  O3_33
ROOT
HETATM    1  C10 UNL     1      48.738   9.150   1.906  1.00  0.00     0.012 A
HETATM    2  C11 UNL     1      49.649   9.270   0.895  1.00  0.00     0.100 A
HETATM    3  N1  UNL     1      50.754   8.499   0.835  1.00  0.00    -0.363 N
ATOM      4  H1  UNL     1      51.416   8.612   0.068  1.00  0.00     0.165 HD
HETATM    5  C12 UNL     1      50.980   7.583   1.791  1.00  0.00     0.074 A
HETATM    6  C13 UNL     1      52.138   6.810   1.685  1.00  0.00     0.095 A
HETATM    7 CL1  UNL     1      53.245   7.040   0.351  1.00  0.00    -0.079 Cl
HETATM    8  C14 UNL     1      52.410   5.858   2.643  1.00  0.00     0.106 A
HETATM    9  C15 UNL     1      51.522   5.714   3.663  1.00  0.00     0.053 A
HETATM   10  C16 UNL     1      50.346   6.483   3.788  1.00  0.00     0.094 A
HETATM   11  C17 UNL     1      50.089   7.436   2.817  1.00  0.00     0.077 A
HETATM   12  C18 UNL     1      48.954   8.213   2.895  1.00  0.00     0.195 A
HETATM   13  O2  UNL     1      48.110   8.131   3.794  1.00  0.00    -0.287 OA
HETATM   14  C19 UNL     1      52.027   4.631   4.570  1.00  0.00     0.227 A
HETATM   15  C20 UNL     1      52.019   4.959   6.000  1.00  0.00     0.052 C
HETATM   16  C21 UNL     1      51.127   3.919   6.618  1.00  0.00     0.033 C
HETATM   17  C22 UNL     1      50.878   2.875   5.581  1.00  0.00     0.274 C
HETATM   18  N2  UNL     1      51.262   3.450   4.343  1.00  0.00     0.109 N
HETATM   19  C23 UNL     1      52.371   2.888   3.634  1.00  0.00     0.317 A
HETATM   20  C24 UNL     1      53.227   4.107   3.914  1.00  0.00     0.155 A
HETATM   21  O4  UNL     1      53.466   4.946   2.810  1.00  0.00    -0.331 OA
ENDROOT
BRANCH   1  22
HETATM   22  C8  UNL     1      47.529  10.028   1.905  1.00  0.00     0.020 C
HETATM   23  C9  UNL     1      46.590   9.682   0.809  1.00  0.00     0.015 C
BRANCH  22  24
HETATM   24  C7  UNL     1      47.851  11.449   2.051  1.00  0.00     0.009 C
BRANCH  24  25
HETATM   25  C6  UNL     1      47.163  12.280   3.070  1.00  0.00     0.001 C
BRANCH  25  26
HETATM   26  C5  UNL     1      46.713  13.621   2.662  1.00  0.00     0.000 C
BRANCH  26  27
HETATM   27  C4  UNL     1      47.159  14.662   3.700  1.00  0.00     0.000 C
BRANCH  27  28
HETATM   28  C3  UNL     1      46.537  15.994   3.458  1.00  0.00    -0.000 C
BRANCH  28  29
HETATM   29  C2  UNL     1      47.570  17.124   3.449  1.00  0.00    -0.005 C
HETATM   30  C1  UNL     1      48.724  16.684   4.327  1.00  0.00     0.005 C
ENDBRANCH  28  29
ENDBRANCH  27  28
ENDBRANCH  26  27
ENDBRANCH  25  26
ENDBRANCH  24  25
ENDBRANCH  22  24
ENDBRANCH   1  22
BRANCH  10  31
HETATM   31  O1  UNL     1      49.521   6.264   4.845  1.00  0.00    -0.359 OA
ATOM     32  H1  UNL     1      49.525   6.877   5.570  1.00  0.00     0.217 HD
ENDBRANCH  10  31
BRANCH  20  33
HETATM   33  C25 UNL     1      54.422   3.733   4.719  1.00  0.00     0.207 C
BRANCH  33  34
HETATM   34  O3  UNL     1      55.595   3.776   3.971  1.00  0.00    -0.398 OA
ATOM     35  H3  UNL     1      56.371   3.740   4.517  1.00  0.00     0.209 HD
ENDBRANCH  33  34
ENDBRANCH  20  33
TORSDOF 10
ENDMDL