MODEL 4
REMARK VINA RESULT: -6.951139950      3.373      6.535
REMARK  8 active torsions:
REMARK  status: ('A' for Active; 'I' for Inactive)
REMARK    1  A    between atoms: C2_2  and  C3_3
REMARK    2  A    between atoms: C3_3  and  C4_4
REMARK    3  A    between atoms: C4_4  and  C5_5
REMARK    4  A    between atoms: C5_5  and  C6_6
REMARK    5  A    between atoms: C6_6  and  C7_7
REMARK    6  A    between atoms: C10_12  and  C11_13
REMARK    7  A    between atoms: C11_13  and  O1_14
REMARK    8  A    between atoms: C11_13  and  C12_16
ROOT
HETATM    1  C7  UNL     1      44.291  13.383  -3.096  1.00  0.00     0.060 C
HETATM    2  C8  UNL     1      44.337  13.917  -1.738  1.00  0.00     0.089 A
HETATM    3  N1  UNL     1      44.134  15.207  -1.329  1.00  0.00    -0.354 N
ATOM      4  H1  UNL     1      43.932  15.914  -2.036  1.00  0.00     0.166 HD
HETATM    5  C9  UNL     1      44.186  15.580  -0.070  1.00  0.00     0.102 A
HETATM    6  C10 UNL     1      44.464  14.608   0.912  1.00  0.00     0.029 A
HETATM    7  C16 UNL     1      44.661  13.331   0.468  1.00  0.00     0.115 A
HETATM    8  S1  UNL     1      44.989  12.181   1.608  1.00  0.00    -0.059 SA
HETATM    9  N4  UNL     1      44.604  12.960  -0.844  1.00  0.00    -0.321 N
HETATM   10  C17 UNL     1      44.767  11.718  -1.505  1.00  0.00     0.098 C
HETATM   11  C18 UNL     1      45.859  10.855  -0.920  1.00  0.00     0.038 C
HETATM   12  C19 UNL     1      46.556  10.167  -2.010  1.00  0.00    -0.005 A
HETATM   13  C20 UNL     1      45.710   9.123  -2.673  1.00  0.00     0.019 C
HETATM   14  C21 UNL     1      47.891  10.282  -2.506  1.00  0.00     0.183 A
HETATM   15  F1  UNL     1      48.896  10.471  -1.548  1.00  0.00    -0.248 F
HETATM   16  C22 UNL     1      47.076  11.379  -2.854  1.00  0.00     0.032 A
HETATM   17  C23 UNL     1      45.936  11.576  -3.770  1.00  0.00     0.015 C
HETATM   18  C24 UNL     1      44.734  11.937  -2.955  1.00  0.00     0.021 C
ENDROOT
BRANCH   6  19
HETATM   19  C11 UNL     1      44.529  14.999   2.319  1.00  0.00     0.196 C
BRANCH  19  20
HETATM   20  O1  UNL     1      43.260  15.459   2.776  1.00  0.00    -0.386 OA
ATOM     21  H1  UNL     1      43.184  15.361   3.718  1.00  0.00     0.210 HD
ENDBRANCH  19  20
BRANCH  19  22
HETATM   22  C12 UNL     1      45.594  15.900   2.727  1.00  0.00     0.068 A
HETATM   23  C13 UNL     1      46.855  15.574   3.172  1.00  0.00     0.036 A
HETATM   24  C14 UNL     1      47.459  14.206   3.312  1.00  0.00     0.070 C
HETATM   25  N2  UNL     1      47.510  16.708   3.484  1.00  0.00    -0.302 N
HETATM   26  N3  UNL     1      46.707  17.725   3.252  1.00  0.00    -0.266 N
ATOM     27  H2  UNL     1      48.464  16.769   3.840  1.00  0.00     0.186 HD
HETATM   28  C15 UNL     1      45.522  17.272   2.788  1.00  0.00     0.271 A
ATOM     29  H3  UNL     1      46.945  18.705   3.400  1.00  0.00     0.190 HD
HETATM   30  O2  UNL     1      44.589  18.073   2.497  1.00  0.00    -0.266 OA
ENDBRANCH  19  22
ENDBRANCH   6  19
BRANCH   1  31
HETATM   31  C6  UNL     1      45.006  14.129  -4.148  1.00  0.00     0.013 C
BRANCH  31  32
HETATM   32  C5  UNL     1      44.128  14.924  -5.074  1.00  0.00     0.001 C
BRANCH  32  33
HETATM   33  C4  UNL     1      44.308  16.395  -4.804  1.00  0.00     0.000 C
BRANCH  33  34
HETATM   34  C3  UNL     1      45.611  16.818  -4.242  1.00  0.00    -0.000 C
BRANCH  34  35
HETATM   35  C2  UNL     1      45.718  18.146  -3.619  1.00  0.00    -0.005 C
HETATM   36  C1  UNL     1      44.658  18.664  -2.741  1.00  0.00     0.005 C
ENDBRANCH  34  35
ENDBRANCH  33  34
ENDBRANCH  32  33
ENDBRANCH  31  32
ENDBRANCH   1  31
TORSDOF 8
ENDMDL