MODEL 4
REMARK VINA RESULT: -8.958981159      1.493      2.188
REMARK  8 active torsions:
REMARK  status: ('A' for Active; 'I' for Inactive)
REMARK    1  A    between atoms: C5_8  and  S1_9
REMARK    2  A    between atoms: S1_9  and  C6_10
REMARK    3  A    between atoms: C8_12  and  N2_13
REMARK    4  A    between atoms: N2_13  and  C9_15
REMARK    5  A    between atoms: C12_18  and  C13_19
REMARK    6  A    between atoms: C13_19  and  N3_20
REMARK    7  A    between atoms: N3_20  and  C14_23
REMARK    8  A    between atoms: C14_23  and  C15_24
ROOT
HETATM    1  C6  UNL     1      46.723  10.034   0.824  1.00  0.00     0.077 A
HETATM    2  C7  UNL     1      47.438   9.958   1.996  1.00  0.00     0.066 A
HETATM    3  C8  UNL     1      48.706   9.369   2.029  1.00  0.00     0.036 A
HETATM    4  C20 UNL     1      49.234   8.864   0.880  1.00  0.00     0.046 A
HETATM    5  C21 UNL     1      48.498   8.950  -0.287  1.00  0.00     0.091 A
HETATM    6  N6  UNL     1      47.265   9.531  -0.288  1.00  0.00    -0.360 N
ATOM      7  H6  UNL     1      46.742   9.582  -1.161  1.00  0.00     0.166 HD
ENDROOT
BRANCH   3   8
HETATM    8  N2  UNL     1      49.363   9.307   3.137  1.00  0.00    -0.356 N
ATOM      9  H2  UNL     1      49.651  10.165   3.606  1.00  0.00     0.166 HD
BRANCH   8  10
HETATM   10  C9  UNL     1      49.685   8.051   3.705  1.00  0.00     0.032 A
HETATM   11  C10 UNL     1      48.690   7.186   4.098  1.00  0.00     0.030 A
HETATM   12  C11 UNL     1      48.995   5.951   4.657  1.00  0.00     0.011 A
HETATM   13  C12 UNL     1      50.314   5.599   4.811  1.00  0.00    -0.033 A
HETATM   14  C18 UNL     1      51.330   6.447   4.424  1.00  0.00     0.011 A
HETATM   15  C19 UNL     1      50.999   7.680   3.867  1.00  0.00     0.030 A
BRANCH  13  16
HETATM   16  C13 UNL     1      50.715   4.284   5.406  1.00  0.00     0.271 C
BRANCH  16  17
HETATM   17  N3  UNL     1      51.715   4.563   6.404  1.00  0.00    -0.065 N
ATOM     18  H32 UNL     1      52.652   4.639   6.010  1.00  0.00     0.277 HD
ATOM     19  H31 UNL     1      51.643   5.510   6.776  1.00  0.00     0.277 HD
BRANCH  17  20
HETATM   20  C14 UNL     1      51.624   3.543   7.446  1.00  0.00     0.308 C
BRANCH  20  21
HETATM   21  C15 UNL     1      52.355   2.338   6.920  1.00  0.00     0.106 A
HETATM   22  N4  UNL     1      51.892   1.062   6.915  1.00  0.00    -0.353 N
HETATM   23  C16 UNL     1      52.821   0.256   6.368  1.00  0.00     0.106 A
ATOM     24  H4  UNL     1      50.983   0.762   7.268  1.00  0.00     0.166 HD
HETATM   25  C17 UNL     1      53.900   1.040   6.019  1.00  0.00     0.106 A
HETATM   26  N5  UNL     1      53.581   2.305   6.371  1.00  0.00    -0.353 N
ATOM     27  H5  UNL     1      54.184   3.117   6.239  1.00  0.00     0.166 HD
ENDBRANCH  20  21
ENDBRANCH  17  20
ENDBRANCH  16  17
ENDBRANCH  13  16
ENDBRANCH   8  10
ENDBRANCH   3   8
BRANCH   1  28
HETATM   28  S1  UNL     1      45.119  10.794   0.841  1.00  0.00    -0.055 SA
BRANCH  28  29
HETATM   29  C5  UNL     1      45.312  12.500   1.398  1.00  0.00     0.076 A
HETATM   30  N1  UNL     1      46.272  12.840   2.275  1.00  0.00    -0.350 N
HETATM   31  C4  UNL     1      46.470  14.095   2.730  1.00  0.00     0.043 A
ATOM     32  H1  UNL     1      46.889  12.104   2.619  1.00  0.00     0.166 HD
HETATM   33  C3  UNL     1      47.465  14.402   3.631  1.00  0.00     0.033 A
HETATM   34  C24 UNL     1      45.626  15.080   2.256  1.00  0.00    -0.006 A
HETATM   35  C2  UNL     1      47.670  15.682   4.098  1.00  0.00     0.044 A
HETATM   36  C1  UNL     1      46.836  16.677   3.633  1.00  0.00     0.117 A
HETATM   37  F1  UNL     1      47.022  17.959   4.084  1.00  0.00    -0.206 F
HETATM   38  C25 UNL     1      45.840  16.364   2.731  1.00  0.00     0.056 A
HETATM   39  C23 UNL     1      44.619  14.799   1.351  1.00  0.00     0.016 A
HETATM   40  C22 UNL     1      44.484  13.491   0.937  1.00  0.00     0.038 A
ENDBRANCH  28  29
ENDBRANCH   1  28
TORSDOF 8
ENDMDL