MODEL 1
REMARK VINA RESULT: -7.179553259      0.000      0.000
REMARK  9 active torsions:
REMARK  status: ('A' for Active; 'I' for Inactive)
REMARK    1  A    between atoms: C2_2  and  N1_3
REMARK    2  A    between atoms: N1_3  and  C3_4
REMARK    3  A    between atoms: N1_3  and  C5_6
REMARK    4  A    between atoms: C5_6  and  C6_7
REMARK    5  A    between atoms: C6_7  and  O1_8
REMARK    6  A    between atoms: O1_8  and  C7_9
REMARK    7  A    between atoms: C8_10  and  C9_11
REMARK    8  A    between atoms: C12_18  and  N4_19
REMARK    9  A    between atoms: C17_31  and  C18_32
ROOT
HETATM    1  C7  UNL     1      44.694  14.140   0.400  1.00  0.00     0.087 A
HETATM    2  C8  UNL     1      45.492  13.168   0.947  1.00  0.00     0.010 A
HETATM    3  C16 UNL     1      46.189  13.491   2.118  1.00  0.00     0.024 A
HETATM    4  C17 UNL     1      46.103  14.724   2.724  1.00  0.00    -0.027 A
HETATM    5  C22 UNL     1      45.297  15.699   2.165  1.00  0.00     0.049 A
HETATM    6 CL1  UNL     1      45.122  17.297   2.856  1.00  0.00    -0.083 Cl
HETATM    7  C23 UNL     1      44.603  15.405   1.015  1.00  0.00    -0.005 A
HETATM    8  C24 UNL     1      43.722  16.405   0.357  1.00  0.00     0.053 C
ENDROOT
BRANCH   2   9
HETATM    9  C9  UNL     1      45.678  11.855   0.340  1.00  0.00    -0.007 A
HETATM   10  C10 UNL     1      44.769  10.841   0.420  1.00  0.00     0.102 A
HETATM   11  N2  UNL     1      45.058   9.672  -0.174  1.00  0.00    -0.350 N
HETATM   12  C11 UNL     1      46.193   9.423  -0.852  1.00  0.00     0.135 A
ATOM     13  H2  UNL     1      44.370   8.922  -0.107  1.00  0.00     0.166 HD
HETATM   14  N3  UNL     1      46.442   8.243  -1.435  1.00  0.00    -0.176 N
HETATM   15  C14 UNL     1      47.140  10.448  -0.949  1.00  0.00     0.053 A
HETATM   16  C12 UNL     1      47.578   8.003  -2.115  1.00  0.00     0.679 A
ATOM     17  H3  UNL     1      45.746   7.501  -1.361  1.00  0.00     0.186 HD
HETATM   18  N5  UNL     1      48.507   8.956  -2.228  1.00  0.00    -0.176 N
HETATM   19  C13 UNL     1      48.301  10.177  -1.653  1.00  0.00     0.128 A
ATOM     20  H5  UNL     1      49.368   8.773  -2.743  1.00  0.00     0.186 HD
HETATM   21  N6  UNL     1      49.184  11.097  -1.757  1.00  0.00    -0.384 N
ATOM     22  H62 UNL     1      50.039  10.898  -2.275  1.00  0.00     0.157 HD
ATOM     23  H61 UNL     1      49.030  12.010  -1.327  1.00  0.00     0.157 HD
HETATM   24  C15 UNL     1      46.875  11.652  -0.352  1.00  0.00     0.032 A
BRANCH  16  25
HETATM   25  N4  UNL     1      47.771   6.847  -2.660  1.00  0.00    -0.234 N
ATOM     26  H42 UNL     1      46.990   6.349  -3.088  1.00  0.00     0.174 HD
ATOM     27  H41 UNL     1      48.704   6.434  -2.662  1.00  0.00     0.174 HD
ENDBRANCH  16  25
ENDBRANCH   2   9
BRANCH   1  28
HETATM   28  O1  UNL     1      43.960  13.909  -0.746  1.00  0.00    -0.348 OA
BRANCH  28  29
HETATM   29  C6  UNL     1      44.593  14.106  -2.004  1.00  0.00     0.206 C
BRANCH  29  30
HETATM   30  C5  UNL     1      43.764  14.708  -3.069  1.00  0.00     0.299 C
BRANCH  30  31
HETATM   31  N1  UNL     1      43.644  16.131  -2.898  1.00  0.00     0.089 N
BRANCH  31  32
HETATM   32  C2  UNL     1      42.327  16.595  -3.306  1.00  0.00     0.268 C
HETATM   33  C1  UNL     1      41.206  16.123  -2.454  1.00  0.00     0.037 C
ENDBRANCH  31  32
BRANCH  31  34
HETATM   34  C3  UNL     1      44.693  16.942  -3.413  1.00  0.00     0.268 C
HETATM   35  C4  UNL     1      44.558  18.327  -2.794  1.00  0.00     0.037 C
ENDBRANCH  31  34
ENDBRANCH  30  31
ENDBRANCH  29  30
ENDBRANCH  28  29
ENDBRANCH   1  28
BRANCH   4  36
HETATM   36  C18 UNL     1      46.851  15.013   3.964  1.00  0.00    -0.022 C
HETATM   37  C19 UNL     1      47.604  13.757   4.375  1.00  0.00     0.019 C
HETATM   38  C20 UNL     1      47.846  16.119   3.823  1.00  0.00     0.019 C
HETATM   39  C21 UNL     1      45.901  15.328   5.120  1.00  0.00     0.019 C
ENDBRANCH   4  36
TORSDOF 9
ENDMDL