MODEL 4
REMARK VINA RESULT: -7.970845107      1.348      1.617
REMARK  8 active torsions:
REMARK  status: ('A' for Active; 'I' for Inactive)
REMARK    1  A    between atoms: C6_8  and  N2_9
REMARK    2  A    between atoms: C7_10  and  N3_11
REMARK    3  A    between atoms: N3_11  and  C8_13
REMARK    4  A    between atoms: C8_13  and  C9_14
REMARK    5  A    between atoms: C9_14  and  N4_15
REMARK    6  A    between atoms: N4_15  and  C10_17
REMARK    7  A    between atoms: C13_20  and  C14_21
REMARK    8  A    between atoms: C14_21  and  C15_22
ROOT
HETATM    1  N2  UNL     1      47.833   9.326   0.082  1.00  0.00    -0.144 N
HETATM    2  C7  UNL     1      48.844  10.053  -0.356  1.00  0.00     0.686 A
HETATM    3  N5  UNL     1      49.940   9.820   0.446  1.00  0.00    -0.189 N
ATOM      4  H5  UNL     1      50.866  10.238   0.356  1.00  0.00     0.184 HD
HETATM    5  C21 UNL     1      49.543   8.935   1.367  1.00  0.00     0.077 A
HETATM    6  C22 UNL     1      50.221   8.337   2.429  1.00  0.00     0.032 A
HETATM    7  C23 UNL     1      49.596   7.436   3.262  1.00  0.00     0.002 A
HETATM    8  C24 UNL     1      48.276   7.116   3.048  1.00  0.00     0.002 A
HETATM    9  C25 UNL     1      47.589   7.697   2.001  1.00  0.00     0.033 A
HETATM   10  C26 UNL     1      48.222   8.601   1.169  1.00  0.00     0.084 A
ENDROOT
BRANCH   2  11
HETATM   11  N3  UNL     1      48.890  10.850  -1.329  1.00  0.00    -0.224 N
ATOM     12  H3  UNL     1      49.072  10.392  -2.221  1.00  0.00     0.177 HD
BRANCH  11  13
HETATM   13  C8  UNL     1      48.740  12.249  -1.437  1.00  0.00     0.157 C
BRANCH  13  14
HETATM   14  C9  UNL     1      47.766  12.505  -2.589  1.00  0.00     0.142 C
BRANCH  14  15
HETATM   15  N4  UNL     1      46.418  12.143  -2.198  1.00  0.00    -0.369 N
ATOM     16  H4  UNL     1      46.010  11.270  -2.534  1.00  0.00     0.161 HD
BRANCH  15  17
HETATM   17  C10 UNL     1      45.666  12.991  -1.351  1.00  0.00     0.143 A
HETATM   18  C11 UNL     1      44.815  13.988  -1.783  1.00  0.00     0.058 A
HETATM   19  C12 UNL     1      44.270  14.591  -0.673  1.00  0.00     0.037 A
HETATM   20  C13 UNL     1      44.817  13.929   0.403  1.00  0.00     0.059 A
HETATM   21  O1  UNL     1      45.616  13.015  -0.037  1.00  0.00    -0.298 OA
BRANCH  20  22
HETATM   22  C14 UNL     1      44.475  14.289   1.821  1.00  0.00     0.103 C
BRANCH  22  23
HETATM   23  C15 UNL     1      45.505  15.150   2.421  1.00  0.00    -0.052 A
HETATM   24  C16 UNL     1      45.375  16.516   2.455  1.00  0.00     0.007 A
HETATM   25  C17 UNL     1      46.360  17.302   3.025  1.00  0.00     0.001 A
HETATM   26  C18 UNL     1      47.499  16.767   3.577  1.00  0.00     0.000 A
HETATM   27  C19 UNL     1      47.634  15.390   3.544  1.00  0.00     0.001 A
HETATM   28  C20 UNL     1      46.649  14.611   2.975  1.00  0.00     0.007 A
ENDBRANCH  22  23
ENDBRANCH  20  22
ENDBRANCH  15  17
ENDBRANCH  14  15
ENDBRANCH  13  14
ENDBRANCH  11  13
ENDBRANCH   2  11
BRANCH   1  29
HETATM   29  C6  UNL     1      46.482   9.202  -0.395  1.00  0.00     0.081 A
HETATM   30  C1  UNL     1      46.258   8.589  -1.609  1.00  0.00     0.075 A
HETATM   31  N1  UNL     1      47.371   8.103  -2.373  1.00  0.00    -0.100 NA
HETATM   32  C2  UNL     1      44.987   8.422  -2.125  1.00  0.00     0.052 A
HETATM   33  C3  UNL     1      43.939   8.905  -1.357  1.00  0.00     0.035 A
HETATM   34 CL1  UNL     1      42.317   8.699  -2.002  1.00  0.00    -0.084 Cl
HETATM   35  C4  UNL     1      44.140   9.520  -0.142  1.00  0.00     0.026 A
HETATM   36  C5  UNL     1      45.415   9.663   0.327  1.00  0.00     0.034 A
ENDBRANCH   1  29
TORSDOF 8
ENDMDL