MODEL 3
REMARK VINA RESULT: -8.181781674      1.370      2.340
REMARK  7 active torsions:
REMARK  status: ('A' for Active; 'I' for Inactive)
REMARK    1  A    between atoms: C2_2  and  N1_3
REMARK    2  A    between atoms: N1_3  and  C3_4
REMARK    3  A    between atoms: N1_3  and  C5_6
REMARK    4  A    between atoms: C10_13  and  C11_14
REMARK    5  A    between atoms: C17_21  and  C18_22
REMARK    6  A    between atoms: C18_22  and  N3_23
REMARK    7  A    between atoms: N3_23  and  C19_26
ROOT
HETATM    1  C11 UNL     1      46.494  12.278   1.688  1.00  0.00     0.077 A
HETATM    2  C12 UNL     1      45.729  12.732   0.612  1.00  0.00     0.036 A
HETATM    3  C13 UNL     1      45.157  13.992   0.681  1.00  0.00     0.014 A
HETATM    4  C14 UNL     1      44.405  14.433  -0.391  1.00  0.00     0.046 A
HETATM    5 CL1  UNL     1      44.182  13.407  -1.811  1.00  0.00    -0.083 Cl
HETATM    6  C15 UNL     1      43.846  15.686  -0.308  1.00  0.00     0.025 A
HETATM    7  C16 UNL     1      44.056  16.442   0.829  1.00  0.00     0.013 A
HETATM    8  C17 UNL     1      44.803  16.017   1.906  1.00  0.00    -0.005 A
HETATM    9  C22 UNL     1      45.361  14.759   1.814  1.00  0.00     0.055 A
HETATM   10  N4  UNL     1      46.086  14.328   2.836  1.00  0.00    -0.321 N
ATOM     11  H4  UNL     1      46.218  14.918   3.658  1.00  0.00     0.169 HD
HETATM   12  C23 UNL     1      46.656  13.088   2.780  1.00  0.00     0.260 A
HETATM   13  O1  UNL     1      47.327  12.761   3.791  1.00  0.00    -0.267 OA
ENDROOT
BRANCH   1  14
HETATM   14  C10 UNL     1      47.109  10.959   1.655  1.00  0.00     0.122 A
HETATM   15  N2  UNL     1      47.922  10.343   2.500  1.00  0.00    -0.339 N
HETATM   16  C9  UNL     1      48.199   9.121   2.005  1.00  0.00     0.067 A
ATOM     17  H2  UNL     1      48.277  10.728   3.375  1.00  0.00     0.167 HD
HETATM   18  C7  UNL     1      48.985   8.108   2.496  1.00  0.00    -0.031 A
HETATM   19  C24 UNL     1      47.533   8.984   0.821  1.00  0.00     0.063 A
HETATM   20  C6  UNL     1      49.089   6.951   1.770  1.00  0.00     0.038 A
HETATM   21  C8  UNL     1      49.708   8.270   3.791  1.00  0.00     0.050 C
HETATM   22  C5  UNL     1      48.422   6.805   0.574  1.00  0.00     0.033 A
HETATM   23  C25 UNL     1      47.643   7.799   0.082  1.00  0.00     0.061 A
HETATM   24  N5  UNL     1      46.865  10.109   0.604  1.00  0.00    -0.340 N
ATOM     25  H5  UNL     1      46.274  10.308  -0.202  1.00  0.00     0.167 HD
BRANCH  22  26
HETATM   26  N1  UNL     1      48.561   5.587  -0.147  1.00  0.00    -0.382 N
BRANCH  26  27
HETATM   27  C2  UNL     1      48.897   5.643  -1.541  1.00  0.00     0.118 C
HETATM   28  C1  UNL     1      50.383   5.953  -1.736  1.00  0.00     0.026 C
ENDBRANCH  26  27
BRANCH  26  29
HETATM   29  C3  UNL     1      48.362   4.348   0.566  1.00  0.00     0.118 C
HETATM   30  C4  UNL     1      48.136   3.159  -0.331  1.00  0.00     0.026 C
ENDBRANCH  26  29
ENDBRANCH  22  26
ENDBRANCH   1  14
BRANCH   8  31
HETATM   31  C18 UNL     1      44.932  16.911   3.038  1.00  0.00     0.273 C
BRANCH  31  32
HETATM   32  N3  UNL     1      46.156  17.686   2.982  1.00  0.00    -0.068 N
ATOM     33  H32 UNL     1      46.692  17.461   2.143  1.00  0.00     0.277 HD
ATOM     34  H31 UNL     1      45.956  18.669   2.793  1.00  0.00     0.277 HD
BRANCH  32  35
HETATM   35  C19 UNL     1      46.966  17.542   4.165  1.00  0.00     0.178 C
HETATM   36  C20 UNL     1      46.252  16.921   5.331  1.00  0.00     0.039 C
HETATM   37  C21 UNL     1      48.217  16.738   3.929  1.00  0.00     0.039 C
ENDBRANCH  32  35
ENDBRANCH  31  32
ENDBRANCH   8  31
TORSDOF 7
ENDMDL