MODEL 3
REMARK VINA RESULT: -8.822285838      1.665      2.068
REMARK  9 active torsions:
REMARK  status: ('A' for Active; 'I' for Inactive)
REMARK    1  A    between atoms: O1_2  and  C2_3
REMARK    2  A    between atoms: C7_8  and  N1_9
REMARK    3  A    between atoms: N1_9  and  C8_11
REMARK    4  A    between atoms: C10_13  and  C11_14
REMARK    5  A    between atoms: C11_14  and  N2_15
REMARK    6  A    between atoms: C11_14  and  C12_19
REMARK    7  A    between atoms: C12_19  and  C13_20
REMARK    8  A    between atoms: C16_23  and  O2_24
REMARK    9  A    between atoms: O2_24  and  C17_25
ROOT
HETATM    1  C11 UNL     1      48.304   9.484   1.281  1.00  0.00     0.220 C
ENDROOT
BRANCH   1   2
HETATM    2  C10 UNL     1      47.499  10.694   0.928  1.00  0.00    -0.023 A
HETATM    3  C9  UNL     1      47.042  11.527   1.951  1.00  0.00     0.058 A
HETATM    4  C8  UNL     1      46.296  12.647   1.656  1.00  0.00     0.105 A
HETATM    5  N5  UNL     1      46.004  12.944   0.399  1.00  0.00    -0.352 N
HETATM    6  C27 UNL     1      46.427  12.166  -0.603  1.00  0.00     0.090 A
ATOM      7  H5  UNL     1      45.451  13.776   0.193  1.00  0.00     0.166 HD
HETATM    8  C26 UNL     1      47.180  11.030  -0.360  1.00  0.00     0.026 A
BRANCH   4   9
HETATM    9  N1  UNL     1      45.917  13.358   2.670  1.00  0.00    -0.340 N
ATOM     10  H1  UNL     1      45.254  12.938   3.322  1.00  0.00     0.167 HD
BRANCH   9  11
HETATM   11  C7  UNL     1      46.354  14.665   2.935  1.00  0.00     0.067 A
HETATM   12  C2  UNL     1      45.569  15.722   2.526  1.00  0.00     0.094 A
HETATM   13  C3  UNL     1      45.923  17.037   2.748  1.00  0.00     0.039 A
HETATM   14  C4  UNL     1      47.114  17.321   3.408  1.00  0.00     0.003 A
HETATM   15  C5  UNL     1      47.914  16.280   3.826  1.00  0.00     0.002 A
HETATM   16  C6  UNL     1      47.528  14.979   3.587  1.00  0.00     0.032 A
BRANCH  12  17
HETATM   17  O1  UNL     1      44.380  15.472   1.869  1.00  0.00    -0.354 OA
HETATM   18  C1  UNL     1      44.050  16.029   0.620  1.00  0.00     0.210 C
ENDBRANCH  12  17
ENDBRANCH   9  11
ENDBRANCH   4   9
ENDBRANCH   1   2
BRANCH   1  19
HETATM   19  N2  UNL     1      49.628   9.675   0.753  1.00  0.00    -0.071 N
ATOM     20  H23 UNL     1      49.727   9.336  -0.204  1.00  0.00     0.275 HD
ATOM     21  H22 UNL     1      49.846  10.654   0.571  1.00  0.00     0.275 HD
ATOM     22  H21 UNL     1      50.283   9.235   1.400  1.00  0.00     0.275 HD
ENDBRANCH   1  19
BRANCH   1  23
HETATM   23  C12 UNL     1      48.258   9.300   2.766  1.00  0.00     0.076 C
BRANCH  23  24
HETATM   24  C13 UNL     1      48.977   8.072   3.202  1.00  0.00    -0.053 A
HETATM   25  C14 UNL     1      48.378   6.843   3.025  1.00  0.00     0.010 A
HETATM   26  C15 UNL     1      49.050   5.713   3.432  1.00  0.00     0.041 A
HETATM   27  C16 UNL     1      50.300   5.712   4.014  1.00  0.00     0.114 A
HETATM   28  C24 UNL     1      50.871   6.984   4.174  1.00  0.00     0.150 A
HETATM   29  F1  UNL     1      52.096   7.031   4.740  1.00  0.00    -0.203 F
HETATM   30  C25 UNL     1      50.227   8.135   3.779  1.00  0.00     0.052 A
BRANCH  27  31
HETATM   31  O2  UNL     1      50.966   4.582   4.417  1.00  0.00    -0.307 OA
BRANCH  31  32
HETATM   32  C17 UNL     1      50.877   3.889   5.581  1.00  0.00     0.091 A
HETATM   33  C18 UNL     1      51.647   4.286   6.685  1.00  0.00     0.055 A
HETATM   34  C19 UNL     1      51.537   3.571   7.842  1.00  0.00     0.092 A
HETATM   35  N3  UNL     1      50.727   2.508   7.970  1.00  0.00    -0.351 N
HETATM   36  C20 UNL     1      49.969   2.099   6.924  1.00  0.00     0.118 A
ATOM     37  H3  UNL     1      50.683   2.007   8.857  1.00  0.00     0.166 HD
HETATM   38  N4  UNL     1      49.083   1.066   6.818  1.00  0.00    -0.352 N
HETATM   39  C23 UNL     1      50.060   2.800   5.745  1.00  0.00     0.043 A
HETATM   40  C21 UNL     1      48.588   1.078   5.586  1.00  0.00     0.090 A
ATOM     41  H4  UNL     1      48.843   0.402   7.555  1.00  0.00     0.166 HD
HETATM   42  C22 UNL     1      49.166   2.133   4.895  1.00  0.00     0.035 A
ENDBRANCH  31  32
ENDBRANCH  27  31
ENDBRANCH  23  24
ENDBRANCH   1  23
TORSDOF 9
ENDMDL