MODEL 1
REMARK VINA RESULT: -8.206872623      0.000      0.000
REMARK  8 active torsions:
REMARK  status: ('A' for Active; 'I' for Inactive)
REMARK    1  A    between atoms: O1_2  and  C2_3
REMARK    2  A    between atoms: C7_9  and  N1_10
REMARK    3  A    between atoms: C8_11  and  N2_12
REMARK    4  A    between atoms: C12_20  and  O2_21
REMARK    5  A    between atoms: O2_21  and  C13_22
REMARK    6  A    between atoms: C18_29  and  C19_30
REMARK    7  A    between atoms: C19_30  and  C20_31
REMARK    8  A    between atoms: C20_31  and  N5_32
ROOT
HETATM    1  N1  UNL     1      50.741   6.803   1.976  1.00  0.00    -0.143 N
HETATM    2  C8  UNL     1      51.622   6.609   0.981  1.00  0.00     0.684 A
HETATM    3  N3  UNL     1      51.359   7.569   0.076  1.00  0.00    -0.189 N
ATOM      4  H3  UNL     1      51.860   7.696  -0.804  1.00  0.00     0.184 HD
HETATM    5  C9  UNL     1      50.339   8.337   0.499  1.00  0.00     0.077 A
HETATM    6  C10 UNL     1      49.666   9.434  -0.007  1.00  0.00     0.035 A
HETATM    7  C11 UNL     1      48.623  10.035   0.675  1.00  0.00     0.039 A
HETATM    8  C12 UNL     1      48.213   9.555   1.901  1.00  0.00     0.078 A
HETATM    9  C25 UNL     1      48.882   8.463   2.405  1.00  0.00     0.070 A
HETATM   10  C26 UNL     1      49.935   7.850   1.725  1.00  0.00     0.087 A
ENDROOT
BRANCH   8  11
HETATM   11  O2  UNL     1      47.160  10.153   2.602  1.00  0.00    -0.311 OA
BRANCH  11  12
HETATM   12  C13 UNL     1      46.388  11.168   2.125  1.00  0.00     0.077 A
HETATM   13  C14 UNL     1      45.390  10.946   1.211  1.00  0.00     0.039 A
HETATM   14  C15 UNL     1      44.608  11.992   0.730  1.00  0.00     0.033 A
HETATM   15  C16 UNL     1      44.830  13.282   1.173  1.00  0.00     0.043 A
HETATM   16  N4  UNL     1      44.264  14.482   0.910  1.00  0.00    -0.365 N
HETATM   17  C23 UNL     1      45.831  13.484   2.084  1.00  0.00     0.001 A
HETATM   18  C17 UNL     1      44.868  15.449   1.624  1.00  0.00     0.096 A
ATOM     19  H4  UNL     1      43.490  14.632   0.263  1.00  0.00     0.165 HD
HETATM   20  C18 UNL     1      45.850  14.835   2.359  1.00  0.00    -0.029 A
HETATM   21  C24 UNL     1      46.607  12.451   2.562  1.00  0.00     0.051 A
BRANCH  20  22
HETATM   22  C19 UNL     1      46.795  15.488   3.311  1.00  0.00     0.071 C
BRANCH  22  23
HETATM   23  C20 UNL     1      46.810  16.990   3.094  1.00  0.00     0.276 C
BRANCH  23  24
HETATM   24  N5  UNL     1      46.866  17.628   4.374  1.00  0.00     0.080 N
HETATM   25  C21 UNL     1      45.917  17.060   5.296  1.00  0.00     0.309 C
HETATM   26  C22 UNL     1      48.228  17.558   4.917  1.00  0.00     0.309 C
ENDBRANCH  23  24
ENDBRANCH  22  23
ENDBRANCH  20  22
ENDBRANCH  11  12
ENDBRANCH   8  11
BRANCH   1  27
HETATM   27  C7  UNL     1      50.662   6.015   3.146  1.00  0.00     0.093 A
HETATM   28  C2  UNL     1      51.432   6.339   4.239  1.00  0.00     0.096 A
HETATM   29  C3  UNL     1      51.334   5.553   5.367  1.00  0.00     0.042 A
HETATM   30  C4  UNL     1      50.491   4.466   5.418  1.00  0.00     0.045 A
HETATM   31  C5  UNL     1      49.710   4.126   4.329  1.00  0.00     0.118 A
HETATM   32  F1  UNL     1      48.863   3.057   4.342  1.00  0.00    -0.206 F
HETATM   33  C6  UNL     1      49.824   4.925   3.213  1.00  0.00     0.075 A
BRANCH  28  34
HETATM   34  O1  UNL     1      52.308   7.421   4.264  1.00  0.00    -0.354 OA
HETATM   35  C1  UNL     1      52.019   8.644   4.861  1.00  0.00     0.210 C
ENDBRANCH  28  34
ENDBRANCH   1  27
BRANCH   2  36
HETATM   36  N2  UNL     1      52.547   5.693   0.892  1.00  0.00    -0.234 N
ATOM     37  H22 UNL     1      53.499   5.756   1.252  1.00  0.00     0.174 HD
ATOM     38  H21 UNL     1      52.480   4.772   0.459  1.00  0.00     0.174 HD
ENDBRANCH   2  36
TORSDOF 8
ENDMDL