MODEL 2
REMARK VINA RESULT: -8.966314624      0.937      1.792
REMARK  8 active torsions:
REMARK  status: ('A' for Active; 'I' for Inactive)
REMARK    1  A    between atoms: C5_7  and  N2_8
REMARK    2  A    between atoms: N2_8  and  C6_10
REMARK    3  A    between atoms: C12_18  and  N4_19
REMARK    4  A    between atoms: N4_19  and  C13_21
REMARK    5  A    between atoms: C13_21  and  C14_22
REMARK    6  A    between atoms: C14_22  and  N5_23
REMARK    7  A    between atoms: N5_23  and  C15_26
REMARK    8  A    between atoms: C15_26  and  C16_27
ROOT
HETATM    1  C6  UNL     1      48.011   9.197   1.380  1.00  0.00     0.033 A
HETATM    2  C7  UNL     1      47.984   8.113   0.530  1.00  0.00     0.032 A
HETATM    3  C8  UNL     1      47.181   8.137  -0.582  1.00  0.00     0.033 A
HETATM    4  C9  UNL     1      46.392   9.227  -0.878  1.00  0.00     0.044 A
HETATM    5  N3  UNL     1      45.614   9.228  -1.974  1.00  0.00    -0.365 N
ATOM      6  H3  UNL     1      45.621   8.406  -2.579  1.00  0.00     0.165 HD
HETATM    7  C10 UNL     1      44.826  10.266  -2.307  1.00  0.00     0.090 A
HETATM    8  C11 UNL     1      44.808  11.390  -1.489  1.00  0.00     0.047 A
HETATM    9  C12 UNL     1      45.590  11.436  -0.354  1.00  0.00     0.042 A
HETATM   10  C22 UNL     1      46.386  10.337  -0.055  1.00  0.00     0.019 A
HETATM   11  C23 UNL     1      47.194  10.293   1.049  1.00  0.00     0.045 A
ENDROOT
BRANCH   9  12
HETATM   12  N4  UNL     1      45.617  12.444   0.440  1.00  0.00    -0.388 N
ATOM     13  H4  UNL     1      46.524  12.718   0.817  1.00  0.00     0.159 HD
BRANCH  12  14
HETATM   14  C13 UNL     1      44.469  13.221   0.845  1.00  0.00     0.147 C
BRANCH  14  15
HETATM   15  C14 UNL     1      44.481  14.516   0.066  1.00  0.00     0.252 C
BRANCH  15  16
HETATM   16  N5  UNL     1      44.123  15.649   0.882  1.00  0.00    -0.070 N
ATOM     17  H52 UNL     1      44.689  16.477   0.697  1.00  0.00     0.277 HD
ATOM     18  H51 UNL     1      43.221  16.057   0.637  1.00  0.00     0.277 HD
BRANCH  16  19
HETATM   19  C15 UNL     1      44.197  15.189   2.277  1.00  0.00     0.270 C
BRANCH  19  20
HETATM   20  C16 UNL     1      45.518  15.652   2.812  1.00  0.00    -0.033 A
HETATM   21  C17 UNL     1      45.837  16.994   2.839  1.00  0.00     0.012 A
HETATM   22  C18 UNL     1      47.055  17.429   3.332  1.00  0.00     0.043 A
HETATM   23  C19 UNL     1      48.001  16.542   3.816  1.00  0.00     0.116 A
HETATM   24  F1  UNL     1      49.178  17.015   4.287  1.00  0.00    -0.206 F
HETATM   25  C20 UNL     1      47.671  15.206   3.783  1.00  0.00     0.043 A
HETATM   26  C21 UNL     1      46.454  14.761   3.292  1.00  0.00     0.012 A
ENDBRANCH  19  20
ENDBRANCH  16  19
ENDBRANCH  15  16
ENDBRANCH  14  15
ENDBRANCH  12  14
ENDBRANCH   9  12
BRANCH   1  27
HETATM   27  N2  UNL     1      48.810   9.294   2.534  1.00  0.00    -0.356 N
ATOM     28  H2  UNL     1      49.005  10.232   2.886  1.00  0.00     0.166 HD
BRANCH  27  29
HETATM   29  C5  UNL     1      49.361   8.221   3.243  1.00  0.00     0.034 A
HETATM   30  C4  UNL     1      50.713   7.982   3.290  1.00  0.00     0.061 A
HETATM   31  C3  UNL     1      51.255   6.891   3.984  1.00  0.00     0.062 A
HETATM   32  N1  UNL     1      52.505   6.437   4.185  1.00  0.00    -0.344 N
HETATM   33  C26 UNL     1      50.418   6.022   4.648  1.00  0.00     0.062 A
HETATM   34  C2  UNL     1      52.491   5.326   4.941  1.00  0.00     0.080 A
ATOM     35  H1  UNL     1      53.347   6.875   3.814  1.00  0.00     0.167 HD
HETATM   36  C1  UNL     1      53.667   4.511   5.393  1.00  0.00     0.089 C
HETATM   37  N6  UNL     1      51.198   5.079   5.220  1.00  0.00    -0.339 N
HETATM   38  C27 UNL     1      50.712   3.971   6.016  1.00  0.00     0.158 C
HETATM   39  C25 UNL     1      49.068   6.259   4.603  1.00  0.00     0.034 A
HETATM   40  C24 UNL     1      48.529   7.321   3.927  1.00  0.00     0.032 A
ENDBRANCH  27  29
ENDBRANCH   1  27
TORSDOF 8
ENDMDL