MODEL 1
REMARK VINA RESULT: -8.209325507      0.000      0.000
REMARK  8 active torsions:
REMARK  status: ('A' for Active; 'I' for Inactive)
REMARK    1  A    between atoms: C4_4  and  C5_5
REMARK    2  A    between atoms: C8_10  and  C9_11
REMARK    3  A    between atoms: C9_11  and  N2_12
REMARK    4  A    between atoms: C9_11  and  C21_33
REMARK    5  A    between atoms: N2_12  and  C10_14
REMARK    6  A    between atoms: C10_14  and  C11_15
REMARK    7  A    between atoms: C15_20  and  C16_21
REMARK    8  A    between atoms: C18_25  and  N4_26
ROOT
HETATM    1  N2  UNL     1      48.094   8.711   2.628  1.00  0.00    -0.409 N
ATOM      2  H2  UNL     1      48.346   9.572   3.113  1.00  0.00     0.154 HD
ENDROOT
BRANCH   1   3
HETATM    3  C9  UNL     1      47.468   8.743   1.364  1.00  0.00     0.114 C
BRANCH   3   4
HETATM    4  C8  UNL     1      46.557   9.927   1.251  1.00  0.00    -0.019 A
HETATM    5  C7  UNL     1      45.421   9.861   0.478  1.00  0.00     0.096 A
HETATM    6  N1  UNL     1      44.630  10.936   0.401  1.00  0.00    -0.374 N
HETATM    7  C6  UNL     1      44.942  12.062   1.069  1.00  0.00     0.100 A
ATOM      8  H1  UNL     1      43.784  10.903  -0.168  1.00  0.00     0.164 HD
HETATM    9  C5  UNL     1      46.066  12.174   1.854  1.00  0.00    -0.009 A
HETATM   10  C24 UNL     1      46.902  11.088   1.955  1.00  0.00     0.024 A
BRANCH   9  11
HETATM   11  C4  UNL     1      46.395  13.433   2.588  1.00  0.00    -0.017 A
HETATM   12  C3  UNL     1      45.818  14.622   2.287  1.00  0.00     0.027 A
HETATM   13  C2  UNL     1      46.200  15.703   3.029  1.00  0.00    -0.021 A
HETATM   14  C1  UNL     1      45.693  17.114   2.872  1.00  0.00     0.056 C
HETATM   15  S1  UNL     1      47.336  15.057   4.115  1.00  0.00    -0.106 SA
HETATM   16  C25 UNL     1      47.307  13.433   3.610  1.00  0.00     0.062 A
ENDBRANCH   9  11
ENDBRANCH   3   4
BRANCH   3  17
HETATM   17  C21 UNL     1      48.305   8.704   0.142  1.00  0.00     0.004 C
HETATM   18  C22 UNL     1      49.669   9.315   0.359  1.00  0.00     0.012 C
HETATM   19  C23 UNL     1      48.363   7.416  -0.602  1.00  0.00     0.012 C
ENDBRANCH   3  17
ENDBRANCH   1   3
BRANCH   1  20
HETATM   20  C10 UNL     1      48.365   7.424   3.209  1.00  0.00     0.153 C
BRANCH  20  21
HETATM   21  C11 UNL     1      49.747   7.448   3.836  1.00  0.00    -0.037 A
HETATM   22  C12 UNL     1      50.317   8.692   4.008  1.00  0.00     0.051 A
HETATM   23  C13 UNL     1      51.582   8.724   4.580  1.00  0.00     0.117 A
HETATM   24  F1  UNL     1      52.141   9.948   4.749  1.00  0.00    -0.206 F
HETATM   25  C14 UNL     1      52.233   7.564   4.958  1.00  0.00     0.054 A
HETATM   26  C15 UNL     1      51.658   6.321   4.783  1.00  0.00    -0.020 A
HETATM   27  C20 UNL     1      50.396   6.290   4.211  1.00  0.00     0.021 A
BRANCH  26  28
HETATM   28  C16 UNL     1      52.314   5.077   5.168  1.00  0.00     0.006 A
HETATM   29  C17 UNL     1      53.493   4.638   4.588  1.00  0.00     0.119 A
HETATM   30  N3  UNL     1      54.048   3.479   4.990  1.00  0.00    -0.201 N
HETATM   31  C18 UNL     1      53.495   2.705   5.957  1.00  0.00     0.675 A
ATOM     32  H3  UNL     1      54.916   3.172   4.550  1.00  0.00     0.183 HD
HETATM   33  N5  UNL     1      52.352   3.104   6.539  1.00  0.00    -0.201 N
HETATM   34  C19 UNL     1      51.790   4.250   6.150  1.00  0.00     0.119 A
ATOM     35  H5  UNL     1      51.920   2.538   7.268  1.00  0.00     0.183 HD
BRANCH  31  36
HETATM   36  N4  UNL     1      54.032   1.604   6.329  1.00  0.00    -0.234 N
ATOM     37  H42 UNL     1      54.995   1.610   6.667  1.00  0.00     0.174 HD
ATOM     38  H41 UNL     1      53.524   0.720   6.298  1.00  0.00     0.174 HD
ENDBRANCH  31  36
ENDBRANCH  26  28
ENDBRANCH  20  21
ENDBRANCH   1  20
TORSDOF 8
ENDMDL