MODEL 4
REMARK VINA RESULT: -8.233123852      3.940      9.584
REMARK  8 active torsions:
REMARK  status: ('A' for Active; 'I' for Inactive)
REMARK    1  A    between atoms: C7_8  and  C8_9
REMARK    2  A    between atoms: N2_12  and  C9_13
REMARK    3  A    between atoms: C14_18  and  C15_19
REMARK    4  A    between atoms: N4_25  and  C19_27
REMARK    5  A    between atoms: C19_27  and  C20_28
REMARK    6  A    between atoms: C20_28  and  C21_29
REMARK    7  A    between atoms: C21_29  and  C22_30
REMARK    8  A    between atoms: C22_30  and  N5_33
ROOT
HETATM    1  C8  UNL     1      47.143  11.325   1.533  1.00  0.00     0.074 A
HETATM    2  N1  UNL     1      47.396  10.395   2.476  1.00  0.00    -0.296 N
ATOM      3  H1  UNL     1      46.963  10.373   3.399  1.00  0.00     0.187 HD
HETATM    4  N2  UNL     1      48.281   9.515   2.042  1.00  0.00    -0.292 N
HETATM    5  C13 UNL     1      48.618   9.874   0.782  1.00  0.00     0.127 A
HETATM    6  C14 UNL     1      47.919  11.009   0.435  1.00  0.00     0.037 A
ENDROOT
BRANCH   6   7
HETATM    7  C15 UNL     1      47.937  11.777  -0.800  1.00  0.00     0.064 A
HETATM    8  C16 UNL     1      49.069  12.306  -1.381  1.00  0.00     0.048 A
HETATM    9  C17 UNL     1      49.010  13.027  -2.564  1.00  0.00     0.108 A
HETATM   10  N3  UNL     1      47.813  13.227  -3.179  1.00  0.00    -0.202 N
HETATM   11  C18 UNL     1      46.717  12.711  -2.610  1.00  0.00     0.678 A
ATOM     12  H3  UNL     1      47.752  13.755  -4.049  1.00  0.00     0.183 HD
HETATM   13  N4  UNL     1      45.581  12.888  -3.179  1.00  0.00    -0.226 N
HETATM   14  N6  UNL     1      46.781  11.997  -1.438  1.00  0.00    -0.191 N
ATOM     15  H4  UNL     1      44.751  12.491  -2.739  1.00  0.00     0.177 HD
ATOM     16  H6  UNL     1      45.919  11.623  -1.042  1.00  0.00     0.184 HD
BRANCH  13  17
HETATM   17  C19 UNL     1      45.419  13.636  -4.435  1.00  0.00     0.138 C
BRANCH  17  18
HETATM   18  C20 UNL     1      44.517  14.809  -4.243  1.00  0.00     0.023 C
BRANCH  18  19
HETATM   19  C21 UNL     1      44.960  15.902  -3.377  1.00  0.00     0.039 C
BRANCH  19  20
HETATM   20  C22 UNL     1      43.982  16.766  -2.682  1.00  0.00     0.116 C
HETATM   21  C23 UNL     1      43.771  16.268  -1.229  1.00  0.00     0.045 C
HETATM   22  C24 UNL     1      44.494  18.179  -2.516  1.00  0.00     0.045 C
BRANCH  20  23
HETATM   23  N5  UNL     1      42.691  16.826  -3.283  1.00  0.00    -0.071 N
ATOM     24  H53 UNL     1      42.110  17.512  -2.801  1.00  0.00     0.275 HD
ATOM     25  H52 UNL     1      42.753  17.260  -4.205  1.00  0.00     0.275 HD
ATOM     26  H51 UNL     1      42.201  15.933  -3.348  1.00  0.00     0.275 HD
ENDBRANCH  20  23
ENDBRANCH  19  20
ENDBRANCH  18  19
ENDBRANCH  17  18
ENDBRANCH  13  17
ENDBRANCH   6   7
BRANCH   1  27
HETATM   27  C7  UNL     1      46.237  12.467   1.606  1.00  0.00     0.021 A
HETATM   28  C6  UNL     1      46.504  13.651   2.260  1.00  0.00     0.005 A
HETATM   29  C5  UNL     1      47.595  14.099   2.983  1.00  0.00     0.018 A
HETATM   30  C26 UNL     1      45.408  14.503   2.114  1.00  0.00     0.052 A
HETATM   31  C4  UNL     1      47.598  15.370   3.550  1.00  0.00     0.044 A
HETATM   32  C3  UNL     1      46.496  16.182   3.382  1.00  0.00     0.124 A
HETATM   33  C2  UNL     1      45.384  15.768   2.664  1.00  0.00     0.004 A
HETATM   34  F1  UNL     1      46.461  17.439   3.923  1.00  0.00    -0.205 F
HETATM   35  C1  UNL     1      44.206  16.657   2.496  1.00  0.00     0.054 C
HETATM   36  N7  UNL     1      44.480  13.841   1.373  1.00  0.00    -0.364 N
HETATM   37  C25 UNL     1      44.977  12.630   1.072  1.00  0.00     0.103 A
ATOM     38  H7  UNL     1      43.567  14.200   1.095  1.00  0.00     0.165 HD
ENDBRANCH   1  27
BRANCH   4  39
HETATM   39  C9  UNL     1      48.780   8.373   2.814  1.00  0.00     0.049 A
HETATM   40  C10 UNL     1      50.173   8.549   3.382  1.00  0.00     0.041 C
HETATM   41  C11 UNL     1      48.458   7.000   2.352  1.00  0.00     0.035 A
HETATM   42  C12 UNL     1      47.802   7.559   3.561  1.00  0.00     0.035 A
ENDBRANCH   4  39
TORSDOF 8
ENDMDL