MODEL 5
REMARK VINA RESULT: -6.755842056      3.197      6.523
REMARK  10 active torsions:
REMARK  status: ('A' for Active; 'I' for Inactive)
REMARK    1  A    between atoms: O1_2  and  C2_3
REMARK    2  A    between atoms: C3_4  and  C5_6
REMARK    3  A    between atoms: C5_6  and  C6_7
REMARK    4  A    between atoms: C6_7  and  N1_8
REMARK    5  A    between atoms: N1_8  and  C7_10
REMARK    6  A    between atoms: C12_18  and  C13_19
REMARK    7  A    between atoms: C13_19  and  O3_21
REMARK    8  A    between atoms: C15_23  and  O4_24
REMARK    9  A    between atoms: C15_23  and  C16_26
REMARK       I    between atoms: C16_26  and  N3_28
REMARK   10  A    between atoms: N3_28  and  N4_30
ROOT
HETATM    1  C7  UNL     1     -19.534  36.974  -1.049  1.00  0.00     0.119 A
HETATM    2  C8  UNL     1     -18.508  36.514  -0.342  1.00  0.00     0.077 A
HETATM    3  S1  UNL     1     -17.381  35.210  -0.491  1.00  0.00    -0.071 SA
HETATM    4  C9  UNL     1     -16.489  35.490   0.935  1.00  0.00     0.048 A
HETATM    5  C10 UNL     1     -15.312  34.715   1.470  1.00  0.00     0.076 C
HETATM    6  N2  UNL     1     -17.085  36.542   1.443  1.00  0.00    -0.352 N
ATOM      7  H2  UNL     1     -16.749  36.937   2.321  1.00  0.00     0.166 HD
HETATM    8  C11 UNL     1     -18.107  37.094   0.837  1.00  0.00     0.071 A
HETATM    9  C12 UNL     1     -18.792  38.170   1.280  1.00  0.00     0.110 A
HETATM   10  C15 UNL     1     -19.943  38.733   0.594  1.00  0.00     0.255 A
HETATM   11  N5  UNL     1     -20.277  38.107  -0.663  1.00  0.00    -0.332 N
ATOM     12  H5  UNL     1     -21.025  38.472  -1.252  1.00  0.00     0.165 HD
ENDROOT
BRANCH   1  13
HETATM   13  N1  UNL     1     -19.839  36.249  -2.257  1.00  0.00    -0.375 N
ATOM     14  H1  UNL     1     -19.549  35.278  -2.373  1.00  0.00     0.161 HD
BRANCH  13  15
HETATM   15  C6  UNL     1     -20.561  36.930  -3.290  1.00  0.00     0.125 C
BRANCH  15  16
HETATM   16  C5  UNL     1     -21.985  36.620  -3.473  1.00  0.00     0.055 C
BRANCH  16  17
HETATM   17  C3  UNL     1     -22.956  37.395  -2.652  1.00  0.00    -0.060 C
HETATM   18  C2  UNL     1     -23.490  36.789  -1.581  1.00  0.00     0.136 C
HETATM   19  C4  UNL     1     -23.385  38.766  -2.957  1.00  0.00     0.045 C
BRANCH  18  20
HETATM   20  O1  UNL     1     -24.377  37.336  -0.771  1.00  0.00    -0.368 OA
HETATM   21  C1  UNL     1     -25.683  37.383  -0.458  1.00  0.00     0.208 C
ENDBRANCH  18  20
ENDBRANCH  16  17
ENDBRANCH  15  16
ENDBRANCH  13  15
ENDBRANCH   1  13
BRANCH  10  22
HETATM   22  O4  UNL     1     -19.790  40.118   0.402  1.00  0.00    -0.359 OA
ATOM     23  H4  UNL     1     -19.903  40.591   1.218  1.00  0.00     0.213 HD
ENDBRANCH  10  22
BRANCH  10  24
HETATM   24  C16 UNL     1     -21.117  38.563   1.538  1.00  0.00     0.297 C
HETATM   25  O5  UNL     1     -21.259  39.369   2.503  1.00  0.00    -0.266 OA
HETATM   26  N3  UNL     1     -22.030  37.526   1.342  1.00  0.00    -0.272 N
ATOM     27  H3  UNL     1     -21.872  36.904   0.550  1.00  0.00     0.189 HD
BRANCH  26  28
HETATM   28  N4  UNL     1     -23.137  37.276   2.143  1.00  0.00    -0.342 N
ATOM     29  H42 UNL     1     -23.261  36.314   2.457  1.00  0.00     0.176 HD
ATOM     30  H41 UNL     1     -23.820  37.976   2.433  1.00  0.00     0.176 HD
ENDBRANCH  26  28
ENDBRANCH  10  24
BRANCH   9  31
HETATM   31  C13 UNL     1     -18.374  38.817   2.552  1.00  0.00     0.296 C
HETATM   32  O2  UNL     1     -18.401  38.207   3.631  1.00  0.00    -0.259 OA
BRANCH  31  33
HETATM   33  O3  UNL     1     -17.939  40.130   2.572  1.00  0.00    -0.323 OA
HETATM   34  C14 UNL     1     -18.367  41.048   3.587  1.00  0.00     0.213 C
ENDBRANCH  31  33
ENDBRANCH   9  31
TORSDOF 10
ENDMDL