MODEL 3
REMARK VINA RESULT: -7.210134372      2.128      3.629
REMARK  9 active torsions:
REMARK  status: ('A' for Active; 'I' for Inactive)
REMARK    1  A    between atoms: N1_2  and  C2_4
REMARK    2  A    between atoms: C5_9  and  N3_10
REMARK    3  A    between atoms: N3_10  and  C6_12
REMARK    4  A    between atoms: C8_15  and  O2_16
REMARK    5  A    between atoms: N4_19  and  S1_20
REMARK    6  A    between atoms: S1_20  and  C10_22
REMARK    7  A    between atoms: S1_20  and  O5_26
REMARK    8  A    between atoms: C10_22  and  O4_23
REMARK    9  A    between atoms: O5_26  and  N6_27
ROOT
HETATM    1  O4  UNL     1     -21.698  36.608  -4.812  1.00  0.00    -0.268 OA
HETATM    2  C11 UNL     1     -22.772  36.405  -5.592  1.00  0.00     0.229 C
HETATM    3  N5  UNL     1     -23.695  36.225  -6.237  1.00  0.00    -0.164 NA
ENDROOT
BRANCH   1   4
HETATM    4  C10 UNL     1     -21.750  36.363  -3.383  1.00  0.00     0.339 C
BRANCH   4   5
HETATM    5  S1  UNL     1     -21.073  37.669  -2.343  1.00  0.00     0.212 S
HETATM    6  O3  UNL     1     -20.302  38.477  -3.690  1.00  0.00    -0.216 OA
BRANCH   5   7
HETATM    7  N4  UNL     1     -22.873  38.190  -1.819  1.00  0.00    -0.064 N
HETATM    8  C2  UNL     1     -23.270  37.723  -0.627  1.00  0.00     0.694 A
HETATM    9  N2  UNL     1     -24.478  38.029  -0.178  1.00  0.00    -0.201 N
HETATM   10  C3  UNL     1     -25.292  38.793  -0.908  1.00  0.00     0.110 A
ATOM     11  H2  UNL     1     -24.787  37.678   0.729  1.00  0.00     0.183 HD
HETATM   12  C4  UNL     1     -24.877  39.261  -2.122  1.00  0.00     0.068 A
HETATM   13  C5  UNL     1     -23.614  38.948  -2.602  1.00  0.00     0.141 A
BRANCH   8  14
HETATM   14  N1  UNL     1     -22.521  36.975   0.109  1.00  0.00    -0.229 N
HETATM   15  C1  UNL     1     -22.198  37.341   1.462  1.00  0.00     0.165 C
ATOM     16  H1  UNL     1     -22.151  36.106  -0.277  1.00  0.00     0.177 HD
ENDBRANCH   8  14
BRANCH  13  17
HETATM   17  N3  UNL     1     -23.210  39.464  -3.855  1.00  0.00    -0.339 N
ATOM     18  H3  UNL     1     -22.269  39.219  -4.162  1.00  0.00     0.167 HD
BRANCH  17  19
HETATM   19  C6  UNL     1     -23.954  40.272  -4.722  1.00  0.00     0.061 A
HETATM   20  C7  UNL     1     -24.231  39.934  -6.052  1.00  0.00     0.174 A
HETATM   21  O1  UNL     1     -24.895  40.901  -6.623  1.00  0.00    -0.298 OA
HETATM   22  C8  UNL     1     -25.096  41.882  -5.786  1.00  0.00     0.184 A
HETATM   23  C9  UNL     1     -24.515  41.515  -4.578  1.00  0.00     0.095 A
BRANCH  22  24
HETATM   24  O2  UNL     1     -25.764  43.099  -6.001  1.00  0.00    -0.341 OA
ATOM     25  H2  UNL     1     -26.132  43.697  -5.361  1.00  0.00     0.220 HD
ENDBRANCH  22  24
ENDBRANCH  17  19
ENDBRANCH  13  17
ENDBRANCH   5   7
BRANCH   5  26
HETATM   26  O5  UNL     1     -20.513  38.848  -1.410  1.00  0.00    -0.163 OA
BRANCH  26  27
HETATM   27  N6  UNL     1     -19.430  39.616  -1.290  1.00  0.00    -0.224 N
HETATM   28  C12 UNL     1     -19.099  40.055  -0.098  1.00  0.00     0.222 C
HETATM   29  N7  UNL     1     -19.872  39.723   1.046  1.00  0.00    -0.065 NA
HETATM   30  N8  UNL     1     -17.970  40.870   0.112  1.00  0.00    -0.065 NA
ATOM     31  H6  UNL     1     -18.871  39.857  -2.108  1.00  0.00     0.198 HD
ENDBRANCH  26  27
ENDBRANCH   5  26
ENDBRANCH   4   5
ENDBRANCH   1   4
TORSDOF 9
ENDMDL