MODEL 2
REMARK VINA RESULT: -7.067273897      1.245      1.381
REMARK  10 active torsions:
REMARK  status: ('A' for Active; 'I' for Inactive)
REMARK    1  A    between atoms: N1_1  and  C1_4
REMARK    2  A    between atoms: C2_7  and  N3_8
REMARK    3  A    between atoms: N4_11  and  C5_12
REMARK    4  A    between atoms: C5_12  and  C6_13
REMARK    5  A    between atoms: C6_13  and  O1_14
REMARK    6  A    between atoms: C9_20  and  N6_21
REMARK    7  A    between atoms: C14_29  and  S1_30
REMARK    8  A    between atoms: S1_30  and  C15_31
REMARK    9  A    between atoms: C15_31  and  C16_32
REMARK   10  A    between atoms: C16_32  and  N8_33
ROOT
HETATM    1  C1  UNL     1     -21.831  37.722   0.558  1.00  0.00     0.135 A
HETATM    2  N2  UNL     1     -20.789  38.512   0.899  1.00  0.00    -0.176 N
ATOM      3  H2  UNL     1     -20.588  38.653   1.889  1.00  0.00     0.186 HD
HETATM    4  C2  UNL     1     -19.998  39.129  -0.017  1.00  0.00     0.683 A
HETATM    5  N5  UNL     1     -20.299  38.919  -1.313  1.00  0.00    -0.175 N
ATOM      6  H5  UNL     1     -19.724  39.369  -2.025  1.00  0.00     0.186 HD
HETATM    7  C9  UNL     1     -21.321  38.143  -1.711  1.00  0.00     0.140 A
HETATM    8  C14 UNL     1     -22.119  37.520  -0.768  1.00  0.00     0.089 A
ENDROOT
BRANCH   4   9
HETATM    9  N3  UNL     1     -18.925  39.963   0.385  1.00  0.00    -0.211 N
HETATM   10  C3  UNL     1     -17.607  39.421   0.593  1.00  0.00     0.186 C
HETATM   11  C4  UNL     1     -16.863  40.227   1.641  1.00  0.00     0.083 C
HETATM   12  N4  UNL     1     -17.726  40.868   2.540  1.00  0.00    -0.369 N
HETATM   13  C7  UNL     1     -18.814  41.618   2.089  1.00  0.00     0.147 C
HETATM   14  C8  UNL     1     -19.109  41.378   0.595  1.00  0.00     0.161 C
BRANCH  12  15
HETATM   15  C5  UNL     1     -17.670  40.442   3.880  1.00  0.00     0.089 C
BRANCH  15  16
HETATM   16  C6  UNL     1     -18.926  39.788   4.398  1.00  0.00     0.208 C
BRANCH  16  17
HETATM   17  O1  UNL     1     -19.173  38.600   3.687  1.00  0.00    -0.396 OA
ATOM     18  H1  UNL     1     -19.434  38.806   2.798  1.00  0.00     0.209 HD
ENDBRANCH  16  17
ENDBRANCH  15  16
ENDBRANCH  12  15
ENDBRANCH   4   9
BRANCH   1  19
HETATM   19  N1  UNL     1     -22.542  37.179   1.521  1.00  0.00    -0.384 N
ATOM     20  H12 UNL     1     -22.650  37.622   2.434  1.00  0.00     0.157 HD
ATOM     21  H11 UNL     1     -22.993  36.281   1.342  1.00  0.00     0.157 HD
ENDBRANCH   1  19
BRANCH   7  22
HETATM   22  N6  UNL     1     -21.671  37.907  -3.067  1.00  0.00    -0.362 N
HETATM   23  C10 UNL     1     -21.032  36.932  -3.910  1.00  0.00     0.152 C
HETATM   24  C11 UNL     1     -22.120  36.179  -4.672  1.00  0.00     0.252 C
HETATM   25  N7  UNL     1     -22.850  37.073  -5.538  1.00  0.00    -0.072 N
HETATM   26  C12 UNL     1     -22.667  38.469  -5.186  1.00  0.00     0.252 C
ATOM     27  H72 UNL     1     -22.612  36.909  -6.517  1.00  0.00     0.277 HD
ATOM     28  H71 UNL     1     -23.840  36.829  -5.565  1.00  0.00     0.277 HD
HETATM   29  C13 UNL     1     -22.757  38.677  -3.688  1.00  0.00     0.152 C
ENDBRANCH   7  22
BRANCH   8  30
HETATM   30  S1  UNL     1     -23.456  36.491  -1.257  1.00  0.00    -0.121 SA
BRANCH  30  31
HETATM   31  C15 UNL     1     -25.031  37.314  -1.416  1.00  0.00     0.107 C
BRANCH  31  32
HETATM   32  C16 UNL     1     -25.683  37.694  -0.110  1.00  0.00     0.240 C
BRANCH  32  33
HETATM   33  N8  UNL     1     -25.844  36.522   0.748  1.00  0.00    -0.079 N
ATOM     34  H83 UNL     1     -26.040  35.681   0.205  1.00  0.00     0.274 HD
ATOM     35  H82 UNL     1     -24.958  36.234   1.164  1.00  0.00     0.274 HD
ATOM     36  H81 UNL     1     -26.557  36.689   1.458  1.00  0.00     0.274 HD
ENDBRANCH  32  33
ENDBRANCH  31  32
ENDBRANCH  30  31
ENDBRANCH   8  30
TORSDOF 10
ENDMDL