MODEL 1
REMARK VINA RESULT: -9.120520130      0.000      0.000
REMARK  9 active torsions:
REMARK  status: ('A' for Active; 'I' for Inactive)
REMARK    1  A    between atoms: O1_2  and  N1_3
REMARK       I    between atoms: N1_3  and  C2_5
REMARK    2  A    between atoms: C2_5  and  C3_7
REMARK    3  A    between atoms: C6_10  and  C7_11
REMARK       I    between atoms: C7_11  and  N2_13
REMARK    4  A    between atoms: N2_13  and  S1_14
REMARK    5  A    between atoms: S1_14  and  O6_17
REMARK    6  A    between atoms: O6_17  and  C8_18
REMARK    7  A    between atoms: C8_18  and  C9_19
REMARK    8  A    between atoms: C11_21  and  N3_22
REMARK    9  A    between atoms: N3_22  and  N4_24
ROOT
HETATM    1  S1  UNL     1     -23.414  38.269  -2.637  1.00  0.00     0.434 S
HETATM    2  O4  UNL     1     -24.087  39.063  -1.565  1.00  0.00    -0.163 OA
HETATM    3  O5  UNL     1     -24.322  36.890  -2.634  1.00  0.00    -0.163 OA
ENDROOT
BRANCH   1   4
HETATM    4  N2  UNL     1     -21.887  37.714  -2.326  1.00  0.00    -0.254 NA
HETATM    5  C7  UNL     1     -20.621  37.246  -2.080  1.00  0.00     0.362 C
HETATM    6  O3  UNL     1     -19.653  36.763  -2.121  1.00  0.00    -0.248 OA
BRANCH   5   7
HETATM    7  C6  UNL     1     -20.436  38.030  -0.576  1.00  0.00     0.159 A
HETATM    8  C5  UNL     1     -19.790  39.226  -0.650  1.00  0.00     0.047 A
HETATM    9  C4  UNL     1     -19.817  39.630   0.692  1.00  0.00     0.046 A
HETATM   10  C3  UNL     1     -20.437  38.660   1.387  1.00  0.00     0.146 A
HETATM   11  O8  UNL     1     -20.807  37.674   0.542  1.00  0.00    -0.298 OA
BRANCH  10  12
HETATM   12  C2  UNL     1     -20.597  38.805   2.856  1.00  0.00     0.298 C
HETATM   13  N1  UNL     1     -19.382  38.853   3.531  1.00  0.00    -0.230 N
ATOM     14  H1  UNL     1     -18.558  38.713   2.944  1.00  0.00     0.198 HD
HETATM   15  O2  UNL     1     -21.758  38.887   3.362  1.00  0.00    -0.263 OA
BRANCH  13  16
HETATM   16  O1  UNL     1     -19.121  39.052   4.827  1.00  0.00    -0.282 OA
HETATM   17  C1  UNL     1     -18.798  40.461   4.872  1.00  0.00     0.237 C
ENDBRANCH  13  16
ENDBRANCH  10  12
ENDBRANCH   5   7
ENDBRANCH   1   4
BRANCH   1  18
HETATM   18  O6  UNL     1     -23.579  38.894  -4.077  1.00  0.00    -0.242 OA
BRANCH  18  19
HETATM   19  C8  UNL     1     -23.115  38.529  -5.299  1.00  0.00     0.258 C
BRANCH  19  20
HETATM   20  C9  UNL     1     -24.016  39.520  -6.072  1.00  0.00     0.085 A
HETATM   21  C10 UNL     1     -24.253  40.685  -5.439  1.00  0.00     0.085 A
HETATM   22  C11 UNL     1     -24.986  41.691  -6.093  1.00  0.00     0.124 A
HETATM   23  N5  UNL     1     -25.423  41.387  -7.336  1.00  0.00    -0.307 N
HETATM   24  C12 UNL     1     -25.134  40.158  -7.892  1.00  0.00     0.223 A
ATOM     25  H5  UNL     1     -25.968  42.069  -7.864  1.00  0.00     0.171 HD
HETATM   26  N6  UNL     1     -25.595  39.997  -9.108  1.00  0.00    -0.365 N
HETATM   27  O7  UNL     1     -24.431  39.244  -7.255  1.00  0.00    -0.282 OA
ATOM     28  H62 UNL     1     -26.140  40.704  -9.601  1.00  0.00     0.159 HD
ATOM     29  H61 UNL     1     -25.382  39.087  -9.518  1.00  0.00     0.159 HD
BRANCH  22  30
HETATM   30  N3  UNL     1     -25.040  42.785  -5.486  1.00  0.00    -0.292 N
ATOM     31  H3  UNL     1     -24.889  42.716  -4.479  1.00  0.00     0.188 HD
BRANCH  30  32
HETATM   32  N4  UNL     1     -25.264  44.036  -5.932  1.00  0.00    -0.344 N
ATOM     33  H42 UNL     1     -26.155  44.135  -6.418  1.00  0.00     0.176 HD
ATOM     34  H41 UNL     1     -24.700  44.883  -5.866  1.00  0.00     0.176 HD
ENDBRANCH  30  32
ENDBRANCH  22  30
ENDBRANCH  19  20
ENDBRANCH  18  19
ENDBRANCH   1  18
TORSDOF 9
ENDMDL