MODEL 4
REMARK VINA RESULT: -7.716466677      3.762      7.748
REMARK  11 active torsions:
REMARK  status: ('A' for Active; 'I' for Inactive)
REMARK    1  A    between atoms: C2_2  and  C3_3
REMARK    2  A    between atoms: C3_3  and  C4_4
REMARK    3  A    between atoms: C4_4  and  C5_5
REMARK    4  A    between atoms: C5_5  and  C6_6
REMARK    5  A    between atoms: C6_6  and  N1_7
REMARK    6  A    between atoms: N1_7  and  C7_9
REMARK    7  A    between atoms: C7_9  and  O1_15
REMARK    8  A    between atoms: N2_10  and  N3_12
REMARK    9  A    between atoms: O1_15  and  N4_16
REMARK   10  A    between atoms: S1_21  and  N7_23
REMARK   11  A    between atoms: N7_23  and  N8_25
ROOT
HETATM    1  N4  UNL     1     -21.016  38.591  -0.729  1.00  0.00    -0.060 N
HETATM    2  C8  UNL     1     -21.704  38.315   0.392  1.00  0.00     0.407 A
HETATM    3  O2  UNL     1     -21.359  38.416   1.623  1.00  0.00    -0.240 OA
HETATM    4  N5  UNL     1     -22.795  37.929  -0.308  1.00  0.00     0.006 N
HETATM    5  N6  UNL     1     -22.122  38.197  -1.390  1.00  0.00    -0.057 N
HETATM    6  S1  UNL     1     -23.155  37.844  -2.723  1.00  0.00     0.268 S
HETATM    7  O3  UNL     1     -22.612  36.785  -3.608  1.00  0.00    -0.200 OA
HETATM    8  N10 UNL     1     -24.517  37.331  -1.806  1.00  0.00    -0.111 N
ATOM      9  H10 UNL     1     -25.421  37.011  -2.153  1.00  0.00     0.197 HD
HETATM   10  C11 UNL     1     -24.097  37.455  -0.461  1.00  0.00     0.713 A
HETATM   11  N11 UNL     1     -24.912  37.135   0.523  1.00  0.00    -0.232 N
ATOM     12 1H11 UNL     1     -25.864  36.788   0.412  1.00  0.00     0.174 HD
ATOM     13 2H11 UNL     1     -24.609  37.224   1.493  1.00  0.00     0.174 HD
ENDROOT
BRANCH   1  14
HETATM   14  O1  UNL     1     -19.772  39.060  -1.102  1.00  0.00    -0.170 OA
BRANCH  14  15
HETATM   15  C7  UNL     1     -18.893  39.703  -0.244  1.00  0.00     0.260 C
HETATM   16  N2  UNL     1     -17.877  39.019   0.145  1.00  0.00    -0.270 N
ATOM     17  H2  UNL     1     -17.216  39.474   0.776  1.00  0.00     0.190 HD
BRANCH  15  18
HETATM   18  N1  UNL     1     -19.029  41.028   0.222  1.00  0.00    -0.354 N
ATOM     19  H1  UNL     1     -19.667  41.655  -0.268  1.00  0.00     0.163 HD
BRANCH  18  20
HETATM   20  C6  UNL     1     -18.311  41.529   1.352  1.00  0.00     0.123 C
BRANCH  20  21
HETATM   21  C5  UNL     1     -19.136  42.384   2.227  1.00  0.00     0.020 C
BRANCH  21  22
HETATM   22  C4  UNL     1     -19.164  42.091   3.683  1.00  0.00     0.002 C
BRANCH  22  23
HETATM   23  C3  UNL     1     -19.173  40.544   3.785  1.00  0.00    -0.000 C
BRANCH  23  24
HETATM   24  C2  UNL     1     -18.506  40.116   5.052  1.00  0.00    -0.005 C
HETATM   25  C1  UNL     1     -17.072  40.612   5.078  1.00  0.00     0.005 C
ENDBRANCH  23  24
ENDBRANCH  22  23
ENDBRANCH  21  22
ENDBRANCH  20  21
ENDBRANCH  18  20
ENDBRANCH  15  18
BRANCH  16  26
HETATM   26  N3  UNL     1     -17.611  37.709  -0.228  1.00  0.00    -0.342 N
ATOM     27  H32 UNL     1     -16.796  37.563  -0.825  1.00  0.00     0.176 HD
ATOM     28  H31 UNL     1     -18.166  36.899   0.050  1.00  0.00     0.176 HD
ENDBRANCH  16  26
ENDBRANCH  14  15
ENDBRANCH   1  14
BRANCH   6  29
HETATM   29  N7  UNL     1     -23.424  39.184  -3.493  1.00  0.00    -0.223 N
ATOM     30  H7  UNL     1     -23.393  40.095  -3.036  1.00  0.00     0.200 HD
BRANCH  29  31
HETATM   31  N8  UNL     1     -23.712  39.033  -4.862  1.00  0.00    -0.282 N
HETATM   32  C9  UNL     1     -24.191  40.050  -5.485  1.00  0.00     0.104 C
HETATM   33  C10 UNL     1     -24.487  39.865  -6.931  1.00  0.00     0.086 C
HETATM   34  N9  UNL     1     -24.446  41.298  -4.883  1.00  0.00    -0.087 NA
ATOM     35  H8  UNL     1     -23.547  38.149  -5.342  1.00  0.00     0.188 HD
ENDBRANCH  29  31
ENDBRANCH   6  29
TORSDOF 11
ENDMDL