MODEL 3
REMARK VINA RESULT: -8.404147463      2.886      4.444
REMARK  8 active torsions:
REMARK  status: ('A' for Active; 'I' for Inactive)
REMARK    1  A    between atoms: C3_5  and  C4_6
REMARK    2  A    between atoms: N2_7  and  N3_9
REMARK       I    between atoms: N3_9  and  C5_11
REMARK    3  A    between atoms: C5_11  and  C6_13
REMARK    4  A    between atoms: C6_13  and  C7_14
REMARK    5  A    between atoms: C7_14  and  C8_15
REMARK    6  A    between atoms: C8_15  and  C9_17
REMARK    7  A    between atoms: C10_18  and  O4_19
REMARK    8  A    between atoms: N6_30  and  C14_31
ROOT
HETATM    1  N3  UNL     1     -22.569  36.482  -0.032  1.00  0.00    -0.270 N
ATOM      2  H3  UNL     1     -21.815  35.797  -0.079  1.00  0.00     0.190 HD
HETATM    3  C5  UNL     1     -23.256  36.789  -1.251  1.00  0.00     0.236 C
HETATM    4  O2  UNL     1     -24.180  37.631  -1.180  1.00  0.00    -0.272 OA
ENDROOT
BRANCH   3   5
HETATM    5  C6  UNL     1     -22.946  36.186  -2.555  1.00  0.00     0.112 C
BRANCH   5   6
HETATM    6  C7  UNL     1     -21.510  36.363  -2.959  1.00  0.00     0.093 C
BRANCH   6   7
HETATM    7  C8  UNL     1     -21.381  37.640  -3.697  1.00  0.00     0.169 C
HETATM    8  O3  UNL     1     -20.419  38.414  -3.330  1.00  0.00    -0.292 OA
BRANCH   7   9
HETATM    9  C9  UNL     1     -22.230  38.075  -4.771  1.00  0.00     0.129 A
HETATM   10  C10 UNL     1     -23.230  38.990  -4.580  1.00  0.00     0.163 A
HETATM   11  N4  UNL     1     -24.031  39.399  -5.600  1.00  0.00    -0.288 N
HETATM   12  C11 UNL     1     -23.853  38.906  -6.824  1.00  0.00     0.329 A
ATOM     13  H4  UNL     1     -24.768  40.083  -5.427  1.00  0.00     0.172 HD
HETATM   14  O5  UNL     1     -24.588  39.271  -7.799  1.00  0.00    -0.247 OA
HETATM   15  N5  UNL     1     -22.880  38.004  -7.050  1.00  0.00    -0.275 N
HETATM   16  C12 UNL     1     -22.073  37.583  -6.050  1.00  0.00     0.267 A
ATOM     17  H5  UNL     1     -22.749  37.631  -7.990  1.00  0.00     0.173 HD
HETATM   18  O6  UNL     1     -21.167  36.732  -6.300  1.00  0.00    -0.267 OA
BRANCH  10  19
HETATM   19  O4  UNL     1     -23.484  39.547  -3.361  1.00  0.00    -0.345 OA
ATOM     20  H4  UNL     1     -23.402  40.480  -3.202  1.00  0.00     0.219 HD
ENDBRANCH  10  19
ENDBRANCH   7   9
ENDBRANCH   6   7
ENDBRANCH   5   6
ENDBRANCH   3   5
BRANCH   1  21
HETATM   21  N2  UNL     1     -22.838  37.024   1.167  1.00  0.00    -0.308 N
HETATM   22  C4  UNL     1     -22.349  37.813   1.980  1.00  0.00     0.125 C
ATOM     23  H2  UNL     1     -23.730  36.672   1.517  1.00  0.00     0.186 HD
BRANCH  22  24
HETATM   24  C3  UNL     1     -21.119  38.574   1.964  1.00  0.00     0.067 A
HETATM   25  C2  UNL     1     -20.370  39.087   0.929  1.00  0.00     0.274 A
HETATM   26  N1  UNL     1     -19.289  39.734   1.395  1.00  0.00    -0.259 N
HETATM   27  O1  UNL     1     -20.647  38.971  -0.290  1.00  0.00    -0.266 OA
HETATM   28  C1  UNL     1     -18.271  40.400   0.612  1.00  0.00     0.181 C
HETATM   29  N6  UNL     1     -19.317  39.656   2.695  1.00  0.00    -0.293 N
HETATM   30  C13 UNL     1     -20.396  38.969   3.102  1.00  0.00     0.129 A
BRANCH  29  31
HETATM   31  C14 UNL     1     -18.354  40.208   3.627  1.00  0.00     0.108 A
HETATM   32  C15 UNL     1     -18.767  41.548   4.221  1.00  0.00     0.029 A
HETATM   33  C16 UNL     1     -18.683  40.345   5.064  1.00  0.00     0.029 A
ENDBRANCH  29  31
ENDBRANCH  22  24
ENDBRANCH   1  21
TORSDOF 8
ENDMDL