MODEL 5
REMARK VINA RESULT: -8.351223758      4.420      8.571
REMARK  8 active torsions:
REMARK  status: ('A' for Active; 'I' for Inactive)
REMARK    1  A    between atoms: C2_3  and  C3_5
REMARK    2  A    between atoms: C5_11  and  N4_12
REMARK    3  A    between atoms: N4_12  and  N5_14
REMARK       I    between atoms: N5_14  and  C6_16
REMARK    4  A    between atoms: C6_16  and  O3_18
REMARK    5  A    between atoms: O3_18  and  C7_19
REMARK    6  A    between atoms: C7_19  and  C8_20
REMARK    7  A    between atoms: C8_20  and  C9_21
REMARK    8  A    between atoms: C9_21  and  N6_22
ROOT
HETATM    1  C1  UNL     1     -26.444  35.360  -2.005  1.00  0.00     0.233 C
HETATM    2  N1  UNL     1     -26.073  36.453  -1.430  1.00  0.00    -0.390 NA
HETATM    3  C2  UNL     1     -25.659  37.672  -0.789  1.00  0.00     0.345 C
HETATM    4  O1  UNL     1     -26.260  38.738  -0.760  1.00  0.00    -0.249 OA
ENDROOT
BRANCH   3   5
HETATM    5  C3  UNL     1     -24.339  37.540  -0.103  1.00  0.00     0.160 A
HETATM    6  N2  UNL     1     -24.117  37.104   1.151  1.00  0.00    -0.293 N
HETATM    7  N3  UNL     1     -22.822  37.122   1.406  1.00  0.00    -0.309 N
ATOM      8  H2  UNL     1     -24.840  36.805   1.805  1.00  0.00     0.187 HD
HETATM    9  C4  UNL     1     -22.151  37.568   0.333  1.00  0.00     0.140 A
ATOM     10  H3  UNL     1     -22.395  36.839   2.288  1.00  0.00     0.186 HD
HETATM   11  C5  UNL     1     -23.124  37.839  -0.642  1.00  0.00     0.100 A
BRANCH  11  12
HETATM   12  N4  UNL     1     -22.847  38.333  -1.937  1.00  0.00    -0.293 N
ATOM     13  H4  UNL     1     -22.564  39.304  -2.070  1.00  0.00     0.187 HD
BRANCH  12  14
HETATM   14  N5  UNL     1     -22.965  37.486  -3.018  1.00  0.00    -0.245 N
HETATM   15  C6  UNL     1     -21.802  37.140  -3.795  1.00  0.00     0.379 C
HETATM   16  O2  UNL     1     -20.677  37.619  -3.491  1.00  0.00    -0.237 OA
ATOM     17  H5  UNL     1     -23.877  37.103  -3.267  1.00  0.00     0.192 HD
BRANCH  15  18
HETATM   18  O3  UNL     1     -21.885  36.295  -4.863  1.00  0.00    -0.303 OA
BRANCH  18  19
HETATM   19  C7  UNL     1     -21.860  36.705  -6.192  1.00  0.00     0.182 C
BRANCH  19  20
HETATM   20  C8  UNL     1     -22.329  38.087  -6.491  1.00  0.00     0.047 C
BRANCH  20  21
HETATM   21  C9  UNL     1     -23.802  38.269  -6.493  1.00  0.00     0.141 C
BRANCH  21  22
HETATM   22  N6  UNL     1     -24.283  39.614  -6.417  1.00  0.00    -0.251 N
HETATM   23  C10 UNL     1     -24.844  40.120  -7.559  1.00  0.00     0.334 A
HETATM   24  O4  UNL     1     -24.940  39.418  -8.597  1.00  0.00    -0.246 OA
HETATM   25  N7  UNL     1     -25.275  41.385  -7.508  1.00  0.00    -0.260 N
HETATM   26  C11 UNL     1     -25.166  42.135  -6.388  1.00  0.00     0.334 A
ATOM     27  H7  UNL     1     -25.698  41.796  -8.339  1.00  0.00     0.175 HD
HETATM   28  O5  UNL     1     -25.586  43.330  -6.371  1.00  0.00    -0.246 OA
HETATM   29  N8  UNL     1     -24.620  41.625  -5.297  1.00  0.00    -0.255 N
HETATM   30  C12 UNL     1     -24.504  42.418  -4.094  1.00  0.00     0.166 C
HETATM   31  C13 UNL     1     -24.168  40.341  -5.310  1.00  0.00     0.336 A
HETATM   32  O6  UNL     1     -23.661  39.950  -4.229  1.00  0.00    -0.246 OA
ENDBRANCH  21  22
ENDBRANCH  20  21
ENDBRANCH  19  20
ENDBRANCH  18  19
ENDBRANCH  15  18
ENDBRANCH  12  14
ENDBRANCH  11  12
ENDBRANCH   3   5
TORSDOF 7
ENDMDL