MODEL 3
REMARK VINA RESULT: -7.652256044      2.290      3.764
REMARK  9 active torsions:
REMARK  status: ('A' for Active; 'I' for Inactive)
REMARK    1  A    between atoms: O1_2  and  N1_3
REMARK    2  A    between atoms: N1_3  and  C2_4
REMARK    3  A    between atoms: C2_4  and  C3_5
REMARK    4  A    between atoms: C2_4  and  C11_24
REMARK    5  A    between atoms: C3_5  and  N2_6
REMARK       I    between atoms: N2_6  and  C4_8
REMARK    6  A    between atoms: C4_8  and  C5_10
REMARK    7  A    between atoms: C5_10  and  N3_12
REMARK       I    between atoms: N3_12  and  C7_14
REMARK    8  A    between atoms: C7_14  and  C8_16
REMARK    9  A    between atoms: C13_27  and  N5_28
ROOT
HETATM    1  N2  UNL     1     -22.434  38.275  -2.982  1.00  0.00    -0.352 N
ATOM      2  H2  UNL     1     -21.667  37.877  -3.525  1.00  0.00     0.162 HD
HETATM    3  C4  UNL     1     -22.517  38.020  -1.601  1.00  0.00     0.240 C
HETATM    4  O2  UNL     1     -23.464  38.515  -0.948  1.00  0.00    -0.271 OA
ENDROOT
BRANCH   1   5
HETATM    5  C3  UNL     1     -23.411  39.084  -3.627  1.00  0.00     0.200 C
BRANCH   5   6
HETATM    6  C2  UNL     1     -23.399  38.929  -5.117  1.00  0.00     0.162 C
BRANCH   6   7
HETATM    7  N1  UNL     1     -22.795  38.007  -5.598  1.00  0.00    -0.282 NA
BRANCH   7   8
HETATM    8  O1  UNL     1     -22.094  37.079  -6.057  1.00  0.00    -0.214 OA
HETATM    9  C1  UNL     1     -20.662  37.050  -5.996  1.00  0.00     0.255 C
ENDBRANCH   7   8
ENDBRANCH   6   7
BRANCH   6  10
HETATM   10  C11 UNL     1     -24.163  39.951  -5.931  1.00  0.00     0.082 A
HETATM   11  C12 UNL     1     -24.533  41.158  -5.410  1.00  0.00     0.086 A
HETATM   12  S1  UNL     1     -25.345  41.884  -6.723  1.00  0.00    -0.064 SA
HETATM   13  C13 UNL     1     -25.169  40.621  -7.851  1.00  0.00     0.142 A
HETATM   14  N6  UNL     1     -24.498  39.696  -7.176  1.00  0.00    -0.334 N
ATOM     15  H6  UNL     1     -24.248  38.809  -7.614  1.00  0.00     0.168 HD
BRANCH  13  16
HETATM   16  N5  UNL     1     -25.605  40.593  -9.088  1.00  0.00    -0.380 N
ATOM     17  H52 UNL     1     -25.247  41.082  -9.909  1.00  0.00     0.158 HD
ATOM     18  H51 UNL     1     -26.396  40.064  -9.452  1.00  0.00     0.158 HD
ENDBRANCH  13  16
ENDBRANCH   6  10
ENDBRANCH   5   6
ENDBRANCH   1   5
BRANCH   3  19
HETATM   19  C5  UNL     1     -21.518  37.182  -0.895  1.00  0.00     0.172 C
HETATM   20  C6  UNL     1     -20.894  36.222  -1.890  1.00  0.00     0.042 C
BRANCH  19  21
HETATM   21  N3  UNL     1     -20.488  38.030  -0.328  1.00  0.00    -0.346 N
HETATM   22  C7  UNL     1     -20.474  38.415   1.031  1.00  0.00     0.257 C
HETATM   23  O3  UNL     1     -21.383  38.015   1.791  1.00  0.00    -0.270 OA
ATOM     24  H3  UNL     1     -19.741  38.363  -0.937  1.00  0.00     0.163 HD
BRANCH  22  25
HETATM   25  C8  UNL     1     -19.412  39.281   1.585  1.00  0.00     0.317 C
HETATM   26  O4  UNL     1     -19.944  40.334   2.340  1.00  0.00    -0.279 OA
HETATM   27  C9  UNL     1     -19.240  40.456   3.552  1.00  0.00     0.368 C
HETATM   28  O5  UNL     1     -19.266  41.393   4.385  1.00  0.00    -0.238 OA
HETATM   29  N4  UNL     1     -18.433  39.293   3.731  1.00  0.00    -0.270 N
HETATM   30  C10 UNL     1     -18.668  38.461   2.588  1.00  0.00     0.265 C
ATOM     31  H4  UNL     1     -17.812  39.094   4.516  1.00  0.00     0.174 HD
HETATM   32  O6  UNL     1     -18.328  37.279   2.431  1.00  0.00    -0.270 OA
ENDBRANCH  22  25
ENDBRANCH  19  21
ENDBRANCH   3  19
TORSDOF 9
ENDMDL