MODEL 5
REMARK VINA RESULT: -8.055147117      1.446      1.904
REMARK  11 active torsions:
REMARK  status: ('A' for Active; 'I' for Inactive)
REMARK    1  A    between atoms: C2_2  and  O1_5
REMARK    2  A    between atoms: O1_5  and  C5_6
REMARK    3  A    between atoms: C5_6  and  C6_10
REMARK    4  A    between atoms: C7_14  and  O2_15
REMARK    5  A    between atoms: O2_15  and  C8_16
REMARK    6  A    between atoms: C8_16  and  C9_17
REMARK    7  A    between atoms: C11_22  and  C12_23
REMARK    8  A    between atoms: C12_23  and  O3_24
REMARK    9  A    between atoms: O3_24  and  C13_25
REMARK   10  A    between atoms: C15_30  and  C16_31
REMARK   11  A    between atoms: C16_31  and  O4_32
ROOT
HETATM    1  C9  UNL     1     -22.800  37.518  -0.089  1.00  0.00     0.345 C
HETATM    2  N3  UNL     1     -22.724  36.184  -0.632  1.00  0.00    -0.044 N
ATOM      3  H31 UNL     1     -23.541  35.596  -0.466  1.00  0.00     0.280 HD
ATOM      4  H32 UNL     1     -22.068  35.558  -0.166  1.00  0.00     0.280 HD
HETATM    5  C10 UNL     1     -22.429  36.470  -2.042  1.00  0.00     0.269 C
HETATM    6  C11 UNL     1     -23.315  37.666  -2.275  1.00  0.00     0.174 C
HETATM    7  O6  UNL     1     -23.299  38.350  -1.087  1.00  0.00    -0.348 OA
ENDROOT
BRANCH   1   8
HETATM    8  C8  UNL     1     -21.417  37.923   0.349  1.00  0.00     0.234 C
BRANCH   8   9
HETATM    9  O2  UNL     1     -21.499  38.533   1.582  1.00  0.00    -0.335 OA
BRANCH   9  10
HETATM   10  C7  UNL     1     -20.326  38.614   2.288  1.00  0.00     0.475 C
HETATM   11  N2  UNL     1     -19.277  39.260   1.495  1.00  0.00     0.009 N
HETATM   12  C6  UNL     1     -19.801  40.477   2.115  1.00  0.00     0.405 C
ATOM     13  H22 UNL     1     -19.191  39.143   0.485  1.00  0.00     0.286 HD
ATOM     14  H21 UNL     1     -18.295  38.988   1.545  1.00  0.00     0.286 HD
HETATM   15  O7  UNL     1     -20.236  39.690   3.177  1.00  0.00    -0.298 OA
BRANCH  12  16
HETATM   16  C5  UNL     1     -18.681  41.405   2.460  1.00  0.00     0.170 C
HETATM   17  N1  UNL     1     -18.572  41.934   3.633  1.00  0.00    -0.380 N
ATOM     18  H12 UNL     1     -17.807  42.567   3.869  1.00  0.00     0.158 HD
ATOM     19  H11 UNL     1     -19.290  41.686   4.313  1.00  0.00     0.158 HD
BRANCH  16  20
HETATM   20  O1  UNL     1     -17.703  41.744   1.534  1.00  0.00    -0.326 OA
BRANCH  20  21
HETATM   21  C2  UNL     1     -17.961  42.560   0.428  1.00  0.00     0.058 C
HETATM   22  C1  UNL     1     -18.059  41.806  -0.864  1.00  0.00     0.045 C
HETATM   23  C3  UNL     1     -19.170  43.430   0.580  1.00  0.00     0.045 C
HETATM   24  C4  UNL     1     -16.758  43.504   0.294  1.00  0.00     0.045 C
ENDBRANCH  20  21
ENDBRANCH  16  20
ENDBRANCH  12  16
ENDBRANCH   9  10
ENDBRANCH   8   9
ENDBRANCH   1   8
BRANCH   6  25
HETATM   25  C12 UNL     1     -22.836  38.501  -3.441  1.00  0.00     0.206 C
BRANCH  25  26
HETATM   26  O3  UNL     1     -23.616  38.399  -4.568  1.00  0.00    -0.337 OA
BRANCH  26  27
HETATM   27  C13 UNL     1     -23.576  39.456  -5.435  1.00  0.00     0.469 C
HETATM   28  N4  UNL     1     -24.139  39.059  -6.720  1.00  0.00    -0.022 N
HETATM   29  C14 UNL     1     -25.179  40.026  -7.016  1.00  0.00     0.272 C
ATOM     30  H42 UNL     1     -23.442  38.971  -7.459  1.00  0.00     0.283 HD
ATOM     31  H41 UNL     1     -24.464  38.093  -6.741  1.00  0.00     0.283 HD
HETATM   32  C15 UNL     1     -24.760  41.198  -6.159  1.00  0.00     0.175 C
HETATM   33  O5  UNL     1     -24.320  40.551  -5.002  1.00  0.00    -0.330 OA
BRANCH  32  34
HETATM   34  C16 UNL     1     -25.924  42.110  -5.844  1.00  0.00     0.197 C
BRANCH  34  35
HETATM   35  O4  UNL     1     -25.564  43.406  -6.202  1.00  0.00    -0.398 OA
ATOM     36  H4  UNL     1     -26.168  44.006  -5.782  1.00  0.00     0.209 HD
ENDBRANCH  34  35
ENDBRANCH  32  34
ENDBRANCH  26  27
ENDBRANCH  25  26
ENDBRANCH   6  25
TORSDOF 11
ENDMDL