MODEL 2
REMARK VINA RESULT: -8.581318934      0.896      1.365
REMARK  9 active torsions:
REMARK  status: ('A' for Active; 'I' for Inactive)
REMARK    1  A    between atoms: N1_1  and  N2_4
REMARK       I    between atoms: N2_4  and  C1_6
REMARK    2  A    between atoms: C1_6  and  C2_8
REMARK    3  A    between atoms: C2_8  and  N3_9
REMARK    4  A    between atoms: N3_9  and  C3_12
REMARK    5  A    between atoms: C3_12  and  N4_13
REMARK    6  A    between atoms: C5_15  and  N5_16
REMARK    7  A    between atoms: N6_18  and  C6_20
REMARK    8  A    between atoms: C9_23  and  S1_24
REMARK    9  A    between atoms: S1_24  and  N7_25
ROOT
HETATM    1  N4  UNL     1     -22.622  38.021  -5.203  1.00  0.00    -0.282 N
HETATM    2  C4  UNL     1     -21.931  38.538  -4.182  1.00  0.00     0.134 A
HETATM    3  C5  UNL     1     -21.414  37.715  -3.192  1.00  0.00     0.132 A
HETATM    4  C12 UNL     1     -21.603  36.352  -3.242  1.00  0.00     0.279 A
HETATM    5  O4  UNL     1     -21.159  35.568  -2.378  1.00  0.00    -0.265 OA
HETATM    6  N8  UNL     1     -22.311  35.866  -4.295  1.00  0.00    -0.273 N
ATOM      7  H8  UNL     1     -22.475  34.862  -4.370  1.00  0.00     0.173 HD
HETATM    8  C13 UNL     1     -22.805  36.695  -5.250  1.00  0.00     0.330 A
HETATM    9  O5  UNL     1     -23.459  36.239  -6.221  1.00  0.00    -0.246 OA
ENDROOT
BRANCH   3  10
HETATM   10  N5  UNL     1     -20.670  38.232  -2.082  1.00  0.00    -0.294 N
HETATM   11  N6  UNL     1     -21.228  38.331  -0.965  1.00  0.00    -0.300 N
ATOM     12  H6  UNL     1     -22.202  38.029  -0.914  1.00  0.00     0.187 HD
ATOM     13  H5  UNL     1     -19.697  38.516  -2.199  1.00  0.00     0.187 HD
BRANCH  11  14
HETATM   14  C6  UNL     1     -20.655  38.816   0.231  1.00  0.00     0.048 A
HETATM   15  C7  UNL     1     -21.126  38.521   1.487  1.00  0.00     0.032 A
HETATM   16  C8  UNL     1     -20.492  39.042   2.621  1.00  0.00     0.027 A
HETATM   17  C9  UNL     1     -19.390  39.858   2.502  1.00  0.00     0.079 A
HETATM   18  C10 UNL     1     -18.914  40.157   1.256  1.00  0.00     0.027 A
HETATM   19  C11 UNL     1     -19.549  39.634   0.136  1.00  0.00     0.032 A
BRANCH  17  20
HETATM   20  S1  UNL     1     -18.633  40.478   3.964  1.00  0.00     0.256 S
HETATM   21  O2  UNL     1     -18.977  39.615   5.153  1.00  0.00    -0.201 OA
HETATM   22  O3  UNL     1     -17.162  40.555   3.793  1.00  0.00    -0.201 OA
BRANCH  20  23
HETATM   23  N7  UNL     1     -19.272  42.079   4.198  1.00  0.00    -0.324 N
ATOM     24  H72 UNL     1     -20.246  42.317   4.388  1.00  0.00     0.169 HD
ATOM     25  H71 UNL     1     -18.480  42.717   4.107  1.00  0.00     0.169 HD
ENDBRANCH  20  23
ENDBRANCH  17  20
ENDBRANCH  11  14
ENDBRANCH   3  10
BRANCH   1  26
HETATM   26  C3  UNL     1     -23.146  38.883  -6.218  1.00  0.00     0.366 C
BRANCH  26  27
HETATM   27  N3  UNL     1     -24.560  38.997  -6.220  1.00  0.00    -0.051 N
ATOM     28  H32 UNL     1     -24.896  39.498  -5.397  1.00  0.00     0.279 HD
ATOM     29  H31 UNL     1     -25.006  38.095  -6.051  1.00  0.00     0.279 HD
BRANCH  27  30
HETATM   30  C2  UNL     1     -25.039  39.598  -7.428  1.00  0.00     0.338 C
BRANCH  30  31
HETATM   31  C1  UNL     1     -25.352  41.034  -7.280  1.00  0.00     0.261 C
HETATM   32  N2  UNL     1     -25.616  41.583  -5.987  1.00  0.00    -0.275 N
ATOM     33  H2  UNL     1     -25.588  40.978  -5.166  1.00  0.00     0.189 HD
HETATM   34  O1  UNL     1     -25.401  41.827  -8.248  1.00  0.00    -0.270 OA
BRANCH  32  35
HETATM   35  N1  UNL     1     -25.908  42.931  -5.836  1.00  0.00    -0.343 N
ATOM     36  H12 UNL     1     -25.928  43.524  -6.666  1.00  0.00     0.176 HD
ATOM     37  H11 UNL     1     -26.099  43.323  -4.914  1.00  0.00     0.176 HD
ENDBRANCH  32  35
ENDBRANCH  30  31
ENDBRANCH  27  30
ENDBRANCH  26  27
ENDBRANCH   1  26
TORSDOF 9
ENDMDL