MODEL 3
REMARK VINA RESULT: -6.609919512      7.499     12.041
REMARK  15 active torsions:
REMARK  status: ('A' for Active; 'I' for Inactive)
REMARK    1  A    between atoms: C2_2  and  C3_3
REMARK    2  A    between atoms: N1_10  and  C7_11
REMARK    3  A    between atoms: C8_13  and  C9_14
REMARK    4  A    between atoms: C9_14  and  O4_15
REMARK    5  A    between atoms: C11_17  and  O5_18
REMARK    6  A    between atoms: C12_20  and  C13_21
REMARK    7  A    between atoms: C13_21  and  C14_22
REMARK    8  A    between atoms: C15_23  and  C16_24
REMARK    9  A    between atoms: C16_24  and  C17_25
REMARK   10  A    between atoms: C21_29  and  O6_30
REMARK   11  A    between atoms: O6_30  and  C22_31
REMARK   12  A    between atoms: C22_31  and  C23_33
REMARK   13  A    between atoms: C23_33  and  N2_34
REMARK       I    between atoms: N2_34  and  C24_36
REMARK   14  A    between atoms: C24_36  and  O9_38
REMARK   15  A    between atoms: O9_38  and  C25_39
ROOT
HETATM    1  C7  UNL     1      14.232  21.460  16.280  1.00  0.00     0.210 A
HETATM    2  O3  UNL     1      13.432  22.404  16.934  1.00  0.00    -0.333 OA
HETATM    3  C8  UNL     1      14.751  22.724  16.590  1.00  0.00     0.165 A
HETATM    4  C11 UNL     1      15.616  22.960  17.785  1.00  0.00     0.165 C
HETATM    5  C12 UNL     1      15.690  21.840  18.736  1.00  0.00     0.027 C
HETATM    6  C19 UNL     1      15.881  20.565  17.995  1.00  0.00     0.023 C
HETATM    7  C20 UNL     1      17.172  20.564  17.235  1.00  0.00     0.013 C
HETATM    8  C21 UNL     1      14.734  20.291  17.045  1.00  0.00     0.196 C
ENDROOT
BRANCH   8   9
HETATM    9  O6  UNL     1      13.716  19.632  17.782  1.00  0.00    -0.309 OA
BRANCH   9  10
HETATM   10  C22 UNL     1      13.850  18.319  18.129  1.00  0.00     0.277 C
HETATM   11  O7  UNL     1      14.996  17.857  18.290  1.00  0.00    -0.263 OA
BRANCH  10  12
HETATM   12  C23 UNL     1      12.670  17.442  18.315  1.00  0.00     0.235 C
BRANCH  12  13
HETATM   13  N2  UNL     1      11.932  17.345  17.064  1.00  0.00    -0.328 N
HETATM   14  C24 UNL     1      10.576  16.880  17.080  1.00  0.00     0.361 C
HETATM   15  O8  UNL     1      10.000  16.552  18.139  1.00  0.00    -0.238 OA
ATOM     16  H2  UNL     1      12.375  17.607  16.183  1.00  0.00     0.165 HD
BRANCH  14  17
HETATM   17  O9  UNL     1       9.887  16.792  15.893  1.00  0.00    -0.294 OA
BRANCH  17  18
HETATM   18  C25 UNL     1       9.993  15.675  15.038  1.00  0.00     0.061 C
HETATM   19  C26 UNL     1      11.029  15.895  13.949  1.00  0.00     0.046 C
HETATM   20  C27 UNL     1       8.631  15.411  14.446  1.00  0.00     0.046 C
HETATM   21  C28 UNL     1      10.410  14.428  15.792  1.00  0.00     0.046 C
ENDBRANCH  17  18
ENDBRANCH  14  17
ENDBRANCH  12  13
ENDBRANCH  10  12
ENDBRANCH   9  10
ENDBRANCH   8   9
BRANCH   1  22
HETATM   22  N1  UNL     1      13.617  21.086  15.014  1.00  0.00    -0.263 N
HETATM   23  C3  UNL     1      14.428  20.353  14.132  1.00  0.00     0.121 C
HETATM   24  C4  UNL     1      13.799  19.224  13.368  1.00  0.00     0.031 C
HETATM   25  C5  UNL     1      12.498  19.548  12.714  1.00  0.00     0.019 C
HETATM   26  C6  UNL     1      11.416  19.717  13.758  1.00  0.00     0.163 C
HETATM   27  S1  UNL     1      11.977  20.730  15.105  1.00  0.00     0.231 S
HETATM   28  O1  UNL     1      11.539  20.131  16.436  1.00  0.00    -0.206 OA
HETATM   29  O2  UNL     1      11.162  22.011  15.007  1.00  0.00    -0.206 OA
BRANCH  23  30
HETATM   30  C2  UNL     1      15.114  21.172  13.078  1.00  0.00    -0.011 C
HETATM   31  C1  UNL     1      14.507  22.070  12.353  1.00  0.00     0.009 C
ENDBRANCH  23  30
ENDBRANCH   1  22
BRANCH   3  32
HETATM   32  C9  UNL     1      14.923  23.883  15.606  1.00  0.00     0.213 C
BRANCH  32  33
HETATM   33  O4  UNL     1      16.237  24.365  15.787  1.00  0.00    -0.393 OA
HETATM   34  C10 UNL     1      17.075  23.597  14.979  1.00  0.00     0.201 C
ENDBRANCH  32  33
ENDBRANCH   3  32
BRANCH   5  35
HETATM   35  C13 UNL     1      16.572  22.050  19.917  1.00  0.00     0.034 C
BRANCH  35  36
HETATM   36  C14 UNL     1      17.789  22.826  19.715  1.00  0.00    -0.030 C
HETATM   37  C15 UNL     1      18.272  23.634  20.686  1.00  0.00    -0.031 C
BRANCH  37  38
HETATM   38  C16 UNL     1      19.494  24.439  20.539  1.00  0.00     0.026 C
BRANCH  38  39
HETATM   39  C17 UNL     1      20.453  23.690  19.632  1.00  0.00    -0.001 C
HETATM   40  C18 UNL     1      21.875  24.104  19.915  1.00  0.00     0.005 C
ENDBRANCH  38  39
ENDBRANCH  37  38
ENDBRANCH  35  36
ENDBRANCH   5  35
BRANCH   4  41
HETATM   41  O5  UNL     1      15.061  24.106  18.436  1.00  0.00    -0.392 OA
ATOM     42  H5  UNL     1      15.721  24.388  19.058  1.00  0.00     0.210 HD
ENDBRANCH   4  41
TORSDOF 15
ENDMDL