MODEL 4
REMARK VINA RESULT: -9.461909127      2.827      8.715
REMARK  14 active torsions:
REMARK  status: ('A' for Active; 'I' for Inactive)
REMARK       I    between atoms: C2_2  and  N1_4
REMARK    1  A    between atoms: N1_4  and  C3_6
REMARK    2  A    between atoms: C4_11  and  C5_12
REMARK    3  A    between atoms: C5_12  and  C6_13
REMARK    4  A    between atoms: C6_13  and  C7_14
REMARK    5  A    between atoms: C7_14  and  C8_15
REMARK    6  A    between atoms: C8_15  and  C9_16
REMARK    7  A    between atoms: C11_20  and  N5_21
REMARK       I    between atoms: N5_21  and  C12_23
REMARK    8  A    between atoms: C12_23  and  C13_25
REMARK    9  A    between atoms: C13_25  and  C14_26
REMARK   10  A    between atoms: C14_26  and  C15_27
REMARK   11  A    between atoms: C15_27  and  O3_29
REMARK   12  A    between atoms: O3_29  and  C17_30
REMARK   13  A    between atoms: C17_30  and  C18_32
REMARK   14  A    between atoms: N6_37  and  C23_38
ROOT
HETATM    1  C9  UNL     1      18.289  25.626  15.906  1.00  0.00     0.095 A
HETATM    2  N4  UNL     1      17.053  25.897  16.431  1.00  0.00    -0.351 N
ATOM      3  H4  UNL     1      16.387  26.509  15.960  1.00  0.00     0.166 HD
HETATM    4  C10 UNL     1      16.772  25.308  17.605  1.00  0.00     0.139 A
HETATM    5  C11 UNL     1      17.650  24.474  18.271  1.00  0.00     0.138 A
HETATM    6  N7  UNL     1      18.867  24.238  17.704  1.00  0.00    -0.283 N
ATOM      7  H7  UNL     1      19.549  23.630  18.158  1.00  0.00     0.188 HD
HETATM    8  N8  UNL     1      19.136  24.816  16.556  1.00  0.00    -0.287 N
ATOM      9  H8  UNL     1      20.046  24.637  16.133  1.00  0.00     0.188 HD
ENDROOT
BRANCH   5  10
HETATM   10  N5  UNL     1      17.379  23.908  19.400  1.00  0.00    -0.311 N
HETATM   11  C12 UNL     1      18.226  22.853  19.868  1.00  0.00     0.223 C
HETATM   12  O2  UNL     1      19.331  23.223  20.336  1.00  0.00    -0.273 OA
ATOM     13  H5  UNL     1      16.574  24.208  19.949  1.00  0.00     0.170 HD
BRANCH  11  14
HETATM   14  C13 UNL     1      17.823  21.435  19.806  1.00  0.00     0.105 C
BRANCH  14  15
HETATM   15  C14 UNL     1      16.476  21.286  19.215  1.00  0.00     0.041 C
BRANCH  15  16
HETATM   16  C15 UNL     1      16.392  21.019  17.758  1.00  0.00     0.128 C
HETATM   17  C16 UNL     1      17.747  20.853  17.102  1.00  0.00     0.040 C
BRANCH  16  18
HETATM   18  O3  UNL     1      15.754  22.093  17.075  1.00  0.00    -0.315 OA
BRANCH  18  19
HETATM   19  C17 UNL     1      15.590  22.125  15.708  1.00  0.00     0.281 C
HETATM   20  O4  UNL     1      16.156  23.017  15.062  1.00  0.00    -0.263 OA
BRANCH  19  21
HETATM   21  C18 UNL     1      14.725  21.067  15.073  1.00  0.00     0.179 C
HETATM   22  C19 UNL     1      14.848  21.112  13.601  1.00  0.00     0.035 C
HETATM   23  C20 UNL     1      13.714  21.707  12.845  1.00  0.00     0.004 C
HETATM   24  C21 UNL     1      13.030  22.711  13.748  1.00  0.00     0.020 C
HETATM   25  C22 UNL     1      12.472  21.931  14.909  1.00  0.00     0.118 C
HETATM   26  N6  UNL     1      13.437  21.193  15.637  1.00  0.00    -0.395 N
BRANCH  26  27
HETATM   27  C23 UNL     1      12.948  20.031  16.317  1.00  0.00     0.080 C
HETATM   28  C24 UNL     1      12.971  20.189  17.821  1.00  0.00     0.025 C
HETATM   29  C25 UNL     1      11.801  19.332  18.254  1.00  0.00     0.002 C
HETATM   30  C26 UNL     1      10.746  19.712  17.220  1.00  0.00     0.002 C
HETATM   31  C27 UNL     1      11.542  19.665  15.931  1.00  0.00     0.025 C
ENDBRANCH  26  27
ENDBRANCH  19  21
ENDBRANCH  18  19
ENDBRANCH  16  18
ENDBRANCH  15  16
ENDBRANCH  14  15
ENDBRANCH  11  14
ENDBRANCH   5  10
BRANCH   1  32
HETATM   32  C8  UNL     1      18.682  26.233  14.631  1.00  0.00     0.078 C
BRANCH  32  33
HETATM   33  C7  UNL     1      20.134  26.583  14.598  1.00  0.00     0.008 C
BRANCH  33  34
HETATM   34  C6  UNL     1      20.497  27.907  15.162  1.00  0.00     0.007 C
BRANCH  34  35
HETATM   35  C5  UNL     1      21.853  27.951  15.804  1.00  0.00     0.066 C
BRANCH  35  36
HETATM   36  C4  UNL     1      21.770  27.150  17.083  1.00  0.00     0.069 A
HETATM   37  N3  UNL     1      22.395  26.019  17.370  1.00  0.00    -0.296 N
HETATM   38  N2  UNL     1      22.217  25.453  18.493  1.00  0.00    -0.279 N
ATOM     39  H3  UNL     1      23.025  25.599  16.686  1.00  0.00     0.187 HD
HETATM   40  C3  UNL     1      21.384  26.027  19.372  1.00  0.00     0.167 A
ATOM     41  H2  UNL     1      22.696  24.582  18.720  1.00  0.00     0.189 HD
HETATM   42  S1  UNL     1      20.872  27.411  18.514  1.00  0.00    -0.038 SA
BRANCH  40  43
HETATM   43  N1  UNL     1      21.069  25.601  20.573  1.00  0.00    -0.306 N
HETATM   44  C2  UNL     1      22.160  25.385  21.448  1.00  0.00     0.219 C
HETATM   45  C1  UNL     1      22.799  26.499  22.175  1.00  0.00     0.117 C
HETATM   46  O1  UNL     1      22.584  24.219  21.603  1.00  0.00    -0.274 OA
ATOM     47  H1  UNL     1      20.103  25.437  20.856  1.00  0.00     0.171 HD
ENDBRANCH  40  43
ENDBRANCH  35  36
ENDBRANCH  34  35
ENDBRANCH  33  34
ENDBRANCH  32  33
ENDBRANCH   1  32
TORSDOF 14
ENDMDL