MODEL 2
REMARK VINA RESULT: -8.561472801      0.876      2.106
REMARK  14 active torsions:
REMARK  status: ('A' for Active; 'I' for Inactive)
REMARK    1  A    between atoms: O1_2  and  C2_3
REMARK    2  A    between atoms: C4_5  and  C5_6
REMARK    3  A    between atoms: C5_6  and  O2_7
REMARK    4  A    between atoms: C5_6  and  N1_9
REMARK    5  A    between atoms: N1_9  and  C7_11
REMARK    6  A    between atoms: C7_11  and  C8_12
REMARK    7  A    between atoms: N2_17  and  C12_18
REMARK    8  A    between atoms: C12_18  and  C13_19
REMARK    9  A    between atoms: C17_23  and  O4_24
REMARK   10  A    between atoms: N4_34  and  C24_35
REMARK   11  A    between atoms: C24_35  and  C25_36
REMARK   12  A    between atoms: C25_36  and  O6_37
REMARK   13  A    between atoms: C27_40  and  O7_41
REMARK   14  A    between atoms: C29_43  and  O8_44
ROOT
HETATM    1  C8  UNL     1      19.583  24.179  16.943  1.00  0.00     0.031 A
HETATM    2  C9  UNL     1      19.635  23.956  18.298  1.00  0.00     0.046 A
HETATM    3  C10 UNL     1      20.200  25.052  18.915  1.00  0.00     0.068 A
HETATM    4  C11 UNL     1      20.487  25.354  20.243  1.00  0.00     0.275 A
HETATM    5  O3  UNL     1      20.215  24.528  21.150  1.00  0.00    -0.266 OA
HETATM    6  N2  UNL     1      21.054  26.540  20.518  1.00  0.00    -0.250 N
HETATM    7  N3  UNL     1      21.312  27.360  19.514  1.00  0.00    -0.259 N
ATOM      8  H3  UNL     1      21.742  28.255  19.745  1.00  0.00     0.190 HD
HETATM    9  C22 UNL     1      21.062  27.125  18.231  1.00  0.00     0.288 A
HETATM   10  O5  UNL     1      21.326  27.939  17.306  1.00  0.00    -0.264 OA
HETATM   11  C23 UNL     1      20.476  25.921  17.876  1.00  0.00     0.121 A
HETATM   12  N4  UNL     1      20.109  25.404  16.691  1.00  0.00    -0.342 N
ENDROOT
BRANCH   1  13
HETATM   13  C7  UNL     1      19.060  23.295  15.873  1.00  0.00     0.181 C
BRANCH  13  14
HETATM   14  N1  UNL     1      17.576  23.118  16.080  1.00  0.00    -0.360 N
HETATM   15  C6  UNL     1      16.780  24.285  15.872  1.00  0.00     0.152 C
BRANCH  14  16
HETATM   16  C5  UNL     1      17.152  21.861  16.443  1.00  0.00     0.148 C
BRANCH  16  17
HETATM   17  C4  UNL     1      15.841  21.350  16.725  1.00  0.00     0.020 A
HETATM   18  C3  UNL     1      15.346  20.957  17.939  1.00  0.00     0.055 A
HETATM   19  C2  UNL     1      14.040  20.470  18.096  1.00  0.00     0.105 A
HETATM   20  C29 UNL     1      13.185  20.360  17.033  1.00  0.00     0.135 A
HETATM   21  C27 UNL     1      13.677  20.753  15.815  1.00  0.00     0.105 A
HETATM   22  C26 UNL     1      14.940  21.229  15.636  1.00  0.00     0.055 A
BRANCH  19  23
HETATM   23  O1  UNL     1      13.587  20.085  19.339  1.00  0.00    -0.353 OA
HETATM   24  C1  UNL     1      13.859  18.846  19.930  1.00  0.00     0.210 C
ENDBRANCH  19  23
BRANCH  20  25
HETATM   25  O8  UNL     1      11.913  19.879  17.218  1.00  0.00    -0.351 OA
HETATM   26  C30 UNL     1      11.499  18.559  17.035  1.00  0.00     0.210 C
ENDBRANCH  20  25
BRANCH  21  27
HETATM   27  O7  UNL     1      12.795  20.639  14.726  1.00  0.00    -0.353 OA
HETATM   28  C28 UNL     1      12.221  21.780  14.166  1.00  0.00     0.210 C
ENDBRANCH  21  27
ENDBRANCH  16  17
BRANCH  16  29
HETATM   29  O2  UNL     1      18.108  20.958  16.557  1.00  0.00    -0.346 OA
ATOM     30  H2  UNL     1      17.979  20.194  16.007  1.00  0.00     0.219 HD
ENDBRANCH  16  29
ENDBRANCH  14  16
ENDBRANCH  13  14
ENDBRANCH   1  13
BRANCH  12  31
HETATM   31  C24 UNL     1      20.237  26.018  15.360  1.00  0.00     0.155 C
BRANCH  31  32
HETATM   32  C25 UNL     1      21.461  25.448  14.662  1.00  0.00     0.184 C
BRANCH  32  33
HETATM   33  O6  UNL     1      22.623  25.751  15.329  1.00  0.00    -0.399 OA
ATOM     34  H6  UNL     1      22.919  26.635  15.148  1.00  0.00     0.209 HD
ENDBRANCH  32  33
ENDBRANCH  31  32
ENDBRANCH  12  31
BRANCH   6  35
HETATM   35  C12 UNL     1      21.388  26.946  21.875  1.00  0.00     0.191 C
BRANCH  35  36
HETATM   36  C13 UNL     1      22.734  26.518  22.297  1.00  0.00    -0.037 A
HETATM   37  C14 UNL     1      23.737  26.162  21.427  1.00  0.00     0.018 A
HETATM   38  C15 UNL     1      24.984  25.765  21.859  1.00  0.00    -0.028 A
HETATM   39  C16 UNL     1      26.018  25.395  20.843  1.00  0.00     0.051 C
HETATM   40  C17 UNL     1      25.237  25.724  23.210  1.00  0.00     0.080 A
HETATM   41  C19 UNL     1      24.262  26.072  24.118  1.00  0.00    -0.028 A
HETATM   42  C20 UNL     1      24.547  26.023  25.576  1.00  0.00     0.051 C
HETATM   43  C21 UNL     1      23.010  26.468  23.646  1.00  0.00     0.018 A
BRANCH  40  44
HETATM   44  O4  UNL     1      26.497  25.323  23.636  1.00  0.00    -0.355 OA
HETATM   45  C18 UNL     1      26.822  23.976  23.897  1.00  0.00     0.210 C
ENDBRANCH  40  44
ENDBRANCH  35  36
ENDBRANCH   6  35
TORSDOF 14
ENDMDL