MODEL 3
REMARK VINA RESULT: -8.273293345      2.595      9.616
REMARK  17 active torsions:
REMARK  status: ('A' for Active; 'I' for Inactive)
REMARK    1  A    between atoms: C2_2  and  C3_3
REMARK    2  A    between atoms: C3_3  and  C4_4
REMARK    3  A    between atoms: C4_4  and  O1_5
REMARK    4  A    between atoms: O1_5  and  C5_6
REMARK       I    between atoms: C5_6  and  N1_8
REMARK    5  A    between atoms: N2_11  and  C8_12
REMARK    6  A    between atoms: C8_12  and  O3_13
REMARK    7  A    between atoms: C8_12  and  C9_15
REMARK    8  A    between atoms: C9_15  and  N3_16
REMARK    9  A    between atoms: N3_16  and  C10_17
REMARK   10  A    between atoms: N3_16  and  N5_33
REMARK   11  A    between atoms: C10_17  and  C11_18
REMARK   12  A    between atoms: C11_18  and  C12_20
REMARK   13  A    between atoms: C12_20  and  C14_22
REMARK   14  A    between atoms: C12_20  and  N4_24
REMARK       I    between atoms: N4_24  and  C16_26
REMARK   15  A    between atoms: C16_26  and  O6_28
REMARK   16  A    between atoms: O6_28  and  C17_29
REMARK       I    between atoms: N5_33  and  C21_35
REMARK   17  A    between atoms: C21_35  and  C22_37
ROOT
HETATM    1  N3  UNL     1      16.688  23.084  15.846  1.00  0.00    -0.268 N
ENDROOT
BRANCH   1   2
HETATM    2  C9  UNL     1      16.463  24.445  15.671  1.00  0.00     0.171 C
BRANCH   2   3
HETATM    3  C8  UNL     1      17.425  25.420  16.199  1.00  0.00     0.156 C
BRANCH   3   4
HETATM    4  N2  UNL     1      18.647  25.878  15.708  1.00  0.00    -0.358 N
HETATM    5  C7  UNL     1      19.839  25.619  16.548  1.00  0.00     0.145 C
HETATM    6  C6  UNL     1      20.400  26.980  16.900  1.00  0.00     0.148 C
HETATM    7  N1  UNL     1      20.895  27.554  15.674  1.00  0.00    -0.325 N
HETATM    8  C5  UNL     1      22.232  28.098  15.615  1.00  0.00     0.362 C
HETATM    9  C27 UNL     1      20.048  27.564  14.528  1.00  0.00     0.148 C
HETATM   10  O2  UNL     1      22.637  28.602  14.532  1.00  0.00    -0.238 OA
HETATM   11  C26 UNL     1      18.912  26.615  14.510  1.00  0.00     0.145 C
BRANCH   8  12
HETATM   12  O1  UNL     1      23.102  28.106  16.667  1.00  0.00    -0.304 OA
BRANCH  12  13
HETATM   13  C4  UNL     1      24.498  28.040  16.620  1.00  0.00     0.180 C
BRANCH  13  14
HETATM   14  C3  UNL     1      24.927  26.637  16.303  1.00  0.00     0.026 C
BRANCH  14  15
HETATM   15  C2  UNL     1      26.391  26.622  15.843  1.00  0.00    -0.002 C
HETATM   16  C1  UNL     1      26.676  27.962  15.207  1.00  0.00     0.005 C
ENDBRANCH  14  15
ENDBRANCH  13  14
ENDBRANCH  12  13
ENDBRANCH   8  12
ENDBRANCH   3   4
BRANCH   3  17
HETATM   17  O3  UNL     1      17.038  25.944  17.325  1.00  0.00    -0.345 OA
ATOM     18  H3  UNL     1      16.643  26.806  17.263  1.00  0.00     0.219 HD
ENDBRANCH   3  17
ENDBRANCH   2   3
ENDBRANCH   1   2
BRANCH   1  19
HETATM   19  C10 UNL     1      17.776  22.596  16.589  1.00  0.00     0.168 C
BRANCH  19  20
HETATM   20  C11 UNL     1      17.599  21.456  17.475  1.00  0.00     0.194 C
HETATM   21  O4  UNL     1      17.605  20.325  17.114  1.00  0.00    -0.289 OA
BRANCH  20  22
HETATM   22  C12 UNL     1      17.391  21.693  18.964  1.00  0.00     0.097 C
HETATM   23  C13 UNL     1      18.684  21.358  19.641  1.00  0.00     0.047 C
BRANCH  22  24
HETATM   24  C14 UNL     1      17.103  23.176  19.168  1.00  0.00     0.034 C
HETATM   25  C15 UNL     1      18.038  23.772  20.186  1.00  0.00     0.008 C
ENDBRANCH  22  24
BRANCH  22  26
HETATM   26  N4  UNL     1      16.272  20.933  19.405  1.00  0.00    -0.321 N
HETATM   27  C16 UNL     1      14.938  21.243  19.080  1.00  0.00     0.362 C
HETATM   28  O5  UNL     1      14.617  22.239  18.347  1.00  0.00    -0.238 OA
ATOM     29  H4  UNL     1      16.446  20.116  19.991  1.00  0.00     0.166 HD
BRANCH  27  30
HETATM   30  O6  UNL     1      13.870  20.492  19.529  1.00  0.00    -0.294 OA
BRANCH  30  31
HETATM   31  C17 UNL     1      13.596  19.172  19.262  1.00  0.00     0.061 C
HETATM   32  C18 UNL     1      12.189  18.990  18.748  1.00  0.00     0.046 C
HETATM   33  C19 UNL     1      14.562  18.524  18.296  1.00  0.00     0.046 C
HETATM   34  C20 UNL     1      13.667  18.314  20.535  1.00  0.00     0.046 C
ENDBRANCH  30  31
ENDBRANCH  27  30
ENDBRANCH  22  26
ENDBRANCH  20  22
ENDBRANCH  19  20
ENDBRANCH   1  19
BRANCH   1  35
HETATM   35  N5  UNL     1      15.577  22.291  15.692  1.00  0.00    -0.258 N
HETATM   36  C21 UNL     1      15.188  21.656  14.495  1.00  0.00     0.288 C
HETATM   37  O7  UNL     1      15.909  21.821  13.457  1.00  0.00    -0.264 OA
ATOM     38  H5  UNL     1      14.986  22.149  16.511  1.00  0.00     0.191 HD
BRANCH  36  39
HETATM   39  C22 UNL     1      14.001  20.804  14.351  1.00  0.00     0.117 A
HETATM   40  C23 UNL     1      13.198  20.420  15.392  1.00  0.00     0.122 A
HETATM   41  N6  UNL     1      12.095  19.631  15.237  1.00  0.00    -0.372 N
HETATM   42  C24 UNL     1      11.780  19.206  13.992  1.00  0.00     0.104 A
ATOM     43  H6  UNL     1      11.523  19.367  16.040  1.00  0.00     0.164 HD
HETATM   44  C25 UNL     1      12.569  19.578  12.931  1.00  0.00     0.105 A
HETATM   45  N7  UNL     1      13.637  20.351  13.130  1.00  0.00    -0.359 N
ATOM     46  H7  UNL     1      14.205  20.612  12.325  1.00  0.00     0.165 HD
ENDBRANCH  36  39
ENDBRANCH   1  35
TORSDOF 17
ENDMDL