MODEL 5
REMARK VINA RESULT: -8.307652221      1.957      4.954
REMARK  19 active torsions:
REMARK  status: ('A' for Active; 'I' for Inactive)
REMARK    1  A    between atoms: C2_2  and  C3_3
REMARK    2  A    between atoms: C3_3  and  C4_4
REMARK    3  A    between atoms: C4_4  and  C5_5
REMARK    4  A    between atoms: C5_5  and  O1_6
REMARK    5  A    between atoms: O1_6  and  C6_7
REMARK    6  A    between atoms: C6_7  and  O2_8
REMARK    7  A    between atoms: C6_7  and  N1_10
REMARK    8  A    between atoms: N2_13  and  C9_14
REMARK    9  A    between atoms: C9_14  and  O3_15
REMARK   10  A    between atoms: C10_17  and  C11_18
REMARK   11  A    between atoms: C10_17  and  N6_31
REMARK   12  A    between atoms: C11_18  and  C12_19
REMARK   13  A    between atoms: N6_31  and  C18_33
REMARK   14  A    between atoms: C18_33  and  O4_34
REMARK   15  A    between atoms: C18_33  and  C19_36
REMARK   16  A    between atoms: C19_36  and  C22_44
REMARK   17  A    between atoms: N7_37  and  O5_39
REMARK   18  A    between atoms: O5_39  and  C20_40
REMARK   19  A    between atoms: C20_40  and  C21_41
ROOT
HETATM    1  C9  UNL     1      17.270  22.259  17.884  1.00  0.00     0.161 C
HETATM    2  C10 UNL     1      17.569  23.017  16.738  1.00  0.00     0.066 C
ENDROOT
BRANCH   2   3
HETATM    3  C11 UNL     1      16.940  23.012  15.430  1.00  0.00     0.104 C
BRANCH   3   4
HETATM    4  C12 UNL     1      15.480  22.955  15.313  1.00  0.00    -0.006 A
HETATM    5  C13 UNL     1      14.577  23.896  15.849  1.00  0.00     0.099 A
HETATM    6  N3  UNL     1      13.323  23.609  15.483  1.00  0.00    -0.350 N
HETATM    7  C14 UNL     1      13.316  22.521  14.722  1.00  0.00     0.132 A
ATOM      8  H3  UNL     1      12.497  24.146  15.748  1.00  0.00     0.166 HD
HETATM    9  N4  UNL     1      12.331  21.847  14.128  1.00  0.00    -0.349 N
HETATM   10  C17 UNL     1      14.638  22.106  14.608  1.00  0.00     0.084 A
HETATM   11  C15 UNL     1      12.590  20.734  13.392  1.00  0.00     0.106 A
ATOM     12  H4  UNL     1      11.369  22.172  14.226  1.00  0.00     0.167 HD
HETATM   13  C16 UNL     1      13.900  20.315  13.273  1.00  0.00     0.105 A
HETATM   14  N5  UNL     1      14.873  21.019  13.886  1.00  0.00    -0.361 N
ATOM     15  H5  UNL     1      15.837  20.699  13.790  1.00  0.00     0.165 HD
ENDBRANCH   3   4
ENDBRANCH   2   3
BRANCH   2  16
HETATM   16  N6  UNL     1      18.583  23.870  16.867  1.00  0.00    -0.335 N
ATOM     17  H6  UNL     1      19.521  23.470  16.860  1.00  0.00     0.168 HD
BRANCH  16  18
HETATM   18  C18 UNL     1      18.495  25.235  17.010  1.00  0.00     0.166 C
BRANCH  18  19
HETATM   19  O4  UNL     1      17.408  25.768  17.509  1.00  0.00    -0.345 OA
ATOM     20  H4  UNL     1      17.117  26.618  17.202  1.00  0.00     0.219 HD
ENDBRANCH  18  19
BRANCH  18  21
HETATM   21  C19 UNL     1      19.491  26.211  16.663  1.00  0.00     0.090 C
HETATM   22  N7  UNL     1      20.100  26.749  17.689  1.00  0.00    -0.265 N
ATOM     23  H7  UNL     1      19.787  26.409  18.598  1.00  0.00     0.194 HD
BRANCH  22  24
HETATM   24  O5  UNL     1      21.056  27.665  17.736  1.00  0.00    -0.270 OA
BRANCH  24  25
HETATM   25  C20 UNL     1      22.245  27.304  18.466  1.00  0.00     0.314 C
BRANCH  25  26
HETATM   26  C21 UNL     1      21.933  27.001  19.853  1.00  0.00     0.200 C
HETATM   27  O6  UNL     1      22.272  27.773  20.769  1.00  0.00    -0.646 OA
HETATM   28  O7  UNL     1      21.234  25.816  20.159  1.00  0.00    -0.646 OA
ENDBRANCH  25  26
ENDBRANCH  24  25
ENDBRANCH  22  24
BRANCH  21  29
HETATM   29  C22 UNL     1      19.840  26.564  15.291  1.00  0.00    -0.003 C
HETATM   30  C23 UNL     1      20.956  25.687  14.778  1.00  0.00     0.021 C
HETATM   31  C24 UNL     1      18.681  26.336  14.304  1.00  0.00     0.021 C
HETATM   32  C25 UNL     1      20.192  28.049  15.156  1.00  0.00     0.021 C
ENDBRANCH  21  29
ENDBRANCH  18  21
ENDBRANCH  16  18
ENDBRANCH   2  16
BRANCH   1  33
HETATM   33  N2  UNL     1      16.423  21.326  18.410  1.00  0.00    -0.357 N
HETATM   34  C8  UNL     1      15.435  21.701  19.475  1.00  0.00     0.145 C
HETATM   35  C7  UNL     1      14.083  21.638  18.881  1.00  0.00     0.147 C
HETATM   36  N1  UNL     1      13.835  20.361  18.218  1.00  0.00    -0.339 N
HETATM   37  C27 UNL     1      14.878  19.446  17.884  1.00  0.00     0.147 C
HETATM   38  C26 UNL     1      16.278  19.942  18.000  1.00  0.00     0.145 C
BRANCH  36  39
HETATM   39  C6  UNL     1      12.484  20.033  17.936  1.00  0.00     0.260 C
BRANCH  39  40
HETATM   40  O1  UNL     1      11.641  19.283  18.714  1.00  0.00    -0.317 OA
BRANCH  40  41
HETATM   41  C5  UNL     1      10.994  18.096  18.370  1.00  0.00     0.179 C
BRANCH  41  42
HETATM   42  C4  UNL     1      11.876  16.938  18.043  1.00  0.00     0.027 C
BRANCH  42  43
HETATM   43  C3  UNL     1      11.029  15.939  17.249  1.00  0.00     0.002 C
BRANCH  43  44
HETATM   44  C2  UNL     1      10.676  16.533  15.926  1.00  0.00    -0.004 C
HETATM   45  C1  UNL     1      10.700  15.482  14.849  1.00  0.00     0.005 C
ENDBRANCH  43  44
ENDBRANCH  42  43
ENDBRANCH  41  42
ENDBRANCH  40  41
ENDBRANCH  39  40
BRANCH  39  46
HETATM   46  O2  UNL     1      11.939  20.469  16.839  1.00  0.00    -0.327 OA
ATOM     47  H2  UNL     1      11.204  21.053  16.981  1.00  0.00     0.221 HD
ENDBRANCH  39  46
ENDBRANCH  36  39
ENDBRANCH   1  33
BRANCH   1  48
HETATM   48  O3  UNL     1      18.200  22.568  18.868  1.00  0.00    -0.345 OA
ATOM     49  H3  UNL     1      18.992  22.848  18.425  1.00  0.00     0.219 HD
ENDBRANCH   1  48
TORSDOF 19
ENDMDL