MODEL 3
REMARK VINA RESULT: -9.143210459      2.447      5.341
REMARK  14 active torsions:
REMARK  status: ('A' for Active; 'I' for Inactive)
REMARK    1  A    between atoms: C3_3  and  C4_4
REMARK    2  A    between atoms: C5_5  and  C6_6
REMARK    3  A    between atoms: N1_13  and  N2_14
REMARK    4  A    between atoms: N2_14  and  C12_16
REMARK    5  A    between atoms: C13_19  and  O2_20
REMARK    6  A    between atoms: O2_20  and  C14_21
REMARK    7  A    between atoms: C14_21  and  C15_22
REMARK    8  A    between atoms: C15_22  and  C16_23
REMARK    9  A    between atoms: C16_23  and  N4_24
REMARK   10  A    between atoms: C22_32  and  N6_33
REMARK   11  A    between atoms: N6_33  and  N7_35
REMARK   12  A    between atoms: C23_37  and  C24_38
REMARK   13  A    between atoms: C27_41  and  O3_42
REMARK   14  A    between atoms: C29_44  and  O4_45
ROOT
HETATM    1  C1  UNL     1      15.553  22.080  12.275  1.00  0.00     0.112 C
HETATM    2  C2  UNL     1      14.328  21.441  12.758  1.00  0.00    -0.106 C
HETATM    3  C3  UNL     1      13.313  20.886  13.159  1.00  0.00    -0.079 C
ENDROOT
BRANCH   3   4
HETATM    4  C4  UNL     1      12.134  20.226  13.653  1.00  0.00     0.064 C
HETATM    5  C5  UNL     1      11.726  20.333  14.902  1.00  0.00     0.011 C
BRANCH   5   6
HETATM    6  C6  UNL     1      12.436  21.131  15.899  1.00  0.00     0.032 C
HETATM    7  C7  UNL     1      13.167  20.533  16.820  1.00  0.00     0.061 A
HETATM    8  C8  UNL     1      13.423  19.136  17.055  1.00  0.00     0.044 A
HETATM    9  N1  UNL     1      13.901  21.228  17.845  1.00  0.00    -0.206 N
HETATM   10  C9  UNL     1      14.210  18.935  18.087  1.00  0.00     0.010 A
HETATM   11  C10 UNL     1      14.705  17.631  18.647  1.00  0.00     0.054 C
HETATM   12  C11 UNL     1      14.556  20.253  18.642  1.00  0.00     0.273 A
HETATM   13  O1  UNL     1      15.306  20.458  19.656  1.00  0.00    -0.266 OA
BRANCH   9  14
HETATM   14  N2  UNL     1      13.977  22.597  18.035  1.00  0.00    -0.121 N
ATOM     15  H2  UNL     1      13.112  23.083  18.272  1.00  0.00     0.206 HD
BRANCH  14  16
HETATM   16  C12 UNL     1      15.042  23.311  17.940  1.00  0.00     0.715 A
HETATM   17  N3  UNL     1      15.416  23.923  16.805  1.00  0.00    -0.152 N
HETATM   18  C13 UNL     1      16.542  24.666  16.734  1.00  0.00     0.252 A
ATOM     19  H3  UNL     1      14.835  23.824  15.973  1.00  0.00     0.188 HD
HETATM   20  N5  UNL     1      17.289  24.781  17.846  1.00  0.00    -0.152 N
HETATM   21  C22 UNL     1      16.962  24.190  19.010  1.00  0.00     0.714 A
ATOM     22  H5  UNL     1      18.141  25.342  17.805  1.00  0.00     0.188 HD
HETATM   23  N8  UNL     1      15.820  23.456  19.016  1.00  0.00    -0.019 N
ATOM     24  H8  UNL     1      15.544  22.994  19.883  1.00  0.00     0.203 HD
BRANCH  18  25
HETATM   25  O2  UNL     1      16.905  25.292  15.540  1.00  0.00    -0.321 OA
BRANCH  25  26
HETATM   26  C14 UNL     1      18.267  25.312  15.121  1.00  0.00     0.180 C
BRANCH  26  27
HETATM   27  C15 UNL     1      18.570  26.585  14.367  1.00  0.00     0.057 C
BRANCH  27  28
HETATM   28  C16 UNL     1      19.735  27.334  14.941  1.00  0.00     0.275 C
BRANCH  28  29
HETATM   29  N4  UNL     1      20.656  26.517  15.676  1.00  0.00     0.092 N
HETATM   30  C17 UNL     1      21.945  26.380  15.024  1.00  0.00     0.299 C
HETATM   31  C18 UNL     1      22.495  27.776  14.930  1.00  0.00    -0.001 C
HETATM   32  C19 UNL     1      22.520  28.468  16.056  1.00  0.00    -0.027 C
HETATM   33  C20 UNL     1      22.013  27.823  17.290  1.00  0.00     0.057 C
HETATM   34  C21 UNL     1      20.825  26.974  17.019  1.00  0.00     0.276 C
ENDBRANCH  28  29
ENDBRANCH  27  28
ENDBRANCH  26  27
ENDBRANCH  25  26
ENDBRANCH  18  25
BRANCH  21  35
HETATM   35  N6  UNL     1      17.667  24.285  20.062  1.00  0.00    -0.132 N
ATOM     36  H6  UNL     1      17.262  23.887  20.910  1.00  0.00     0.205 HD
BRANCH  35  37
HETATM   37  N7  UNL     1      18.913  24.860  20.198  1.00  0.00    -0.297 N
HETATM   38  C23 UNL     1      19.986  24.183  20.436  1.00  0.00     0.119 C
ATOM     39  H7  UNL     1      18.991  25.872  20.106  1.00  0.00     0.186 HD
BRANCH  38  40
HETATM   40  C24 UNL     1      21.255  24.866  20.564  1.00  0.00    -0.017 A
HETATM   41  C25 UNL     1      22.220  24.723  19.580  1.00  0.00     0.016 A
HETATM   42  C26 UNL     1      23.444  25.369  19.680  1.00  0.00     0.040 A
HETATM   43  C27 UNL     1      23.749  26.178  20.762  1.00  0.00     0.101 A
HETATM   44  C29 UNL     1      22.787  26.319  21.740  1.00  0.00     0.102 A
HETATM   45  C31 UNL     1      21.570  25.674  21.637  1.00  0.00     0.052 A
BRANCH  43  46
HETATM   46  O3  UNL     1      24.982  26.825  20.856  1.00  0.00    -0.353 OA
HETATM   47  C28 UNL     1      26.114  26.058  21.160  1.00  0.00     0.210 C
ENDBRANCH  43  46
BRANCH  44  48
HETATM   48  O4  UNL     1      23.048  27.115  22.834  1.00  0.00    -0.353 OA
HETATM   49  C30 UNL     1      22.343  27.040  24.041  1.00  0.00     0.210 C
ENDBRANCH  44  48
ENDBRANCH  38  40
ENDBRANCH  35  37
ENDBRANCH  21  35
ENDBRANCH  14  16
ENDBRANCH   9  14
ENDBRANCH   5   6
ENDBRANCH   3   4
TORSDOF 14
ENDMDL