MODEL 4
REMARK VINA RESULT: -8.140682352      2.619      8.678
REMARK  14 active torsions:
REMARK  status: ('A' for Active; 'I' for Inactive)
REMARK    1  A    between atoms: O1_2  and  C2_3
REMARK    2  A    between atoms: C5_6  and  O2_7
REMARK    3  A    between atoms: O2_7  and  C6_8
REMARK    4  A    between atoms: C6_8  and  C7_9
REMARK    5  A    between atoms: C7_9  and  C8_10
REMARK    6  A    between atoms: C8_10  and  N1_11
REMARK    7  A    between atoms: N2_14  and  C11_15
REMARK    8  A    between atoms: C11_15  and  O3_17
REMARK    9  A    between atoms: O3_17  and  C12_18
REMARK   10  A    between atoms: C12_18  and  C13_19
REMARK   11  A    between atoms: C13_19  and  C14_20
REMARK   12  A    between atoms: C14_20  and  C15_21
REMARK   13  A    between atoms: C15_21  and  N3_22
REMARK       I    between atoms: N3_22  and  C16_24
REMARK       I    between atoms: C16_24  and  N4_26
REMARK   14  A    between atoms: N4_26  and  C17_28
ROOT
HETATM    1  O3  UNL     1      17.213  24.815  15.508  1.00  0.00    -0.327 OA
ENDROOT
BRANCH   1   2
HETATM    2  C11 UNL     1      16.428  24.063  16.311  1.00  0.00     0.212 C
HETATM    3  S1  UNL     1      16.472  24.238  17.958  1.00  0.00    -0.033 SA
BRANCH   2   4
HETATM    4  N2  UNL     1      15.533  23.088  15.760  1.00  0.00    -0.349 N
HETATM    5  C10 UNL     1      16.071  22.005  14.989  1.00  0.00     0.156 C
HETATM    6  C9  UNL     1      15.184  21.824  13.755  1.00  0.00     0.292 C
HETATM    7  N1  UNL     1      13.810  21.667  14.137  1.00  0.00     0.091 N
HETATM    8  C25 UNL     1      13.339  22.861  14.752  1.00  0.00     0.292 C
HETATM    9  C24 UNL     1      14.132  23.207  16.004  1.00  0.00     0.156 C
BRANCH   7  10
HETATM   10  C8  UNL     1      12.990  21.091  13.132  1.00  0.00     0.274 C
BRANCH  10  11
HETATM   11  C7  UNL     1      13.058  19.559  13.118  1.00  0.00     0.057 C
BRANCH  11  12
HETATM   12  C6  UNL     1      11.705  19.018  13.456  1.00  0.00     0.179 C
BRANCH  12  13
HETATM   13  O2  UNL     1      11.150  19.505  14.640  1.00  0.00    -0.336 OA
BRANCH  13  14
HETATM   14  C5  UNL     1      11.394  19.040  15.913  1.00  0.00     0.141 A
HETATM   15  C4  UNL     1      11.942  19.900  16.878  1.00  0.00     0.059 A
HETATM   16  C3  UNL     1      12.201  19.470  18.161  1.00  0.00     0.042 A
HETATM   17  C2  UNL     1      11.933  18.179  18.552  1.00  0.00     0.083 A
HETATM   18  C26 UNL     1      11.392  17.352  17.580  1.00  0.00     0.126 A
HETATM   19  N7  UNL     1      11.148  17.792  16.336  1.00  0.00    -0.344 N
ATOM     20  H7  UNL     1      10.749  17.134  15.667  1.00  0.00     0.167 HD
BRANCH  17  21
HETATM   21  O1  UNL     1      12.167  17.676  19.822  1.00  0.00    -0.355 OA
HETATM   22  C1  UNL     1      12.631  18.440  20.900  1.00  0.00     0.210 C
ENDBRANCH  17  21
ENDBRANCH  13  14
ENDBRANCH  12  13
ENDBRANCH  11  12
ENDBRANCH  10  11
ENDBRANCH   7  10
ENDBRANCH   2   4
ENDBRANCH   1   2
BRANCH   1  23
HETATM   23  C12 UNL     1      18.154  25.782  15.771  1.00  0.00     0.178 C
BRANCH  23  24
HETATM   24  C13 UNL     1      19.236  26.017  14.812  1.00  0.00     0.028 C
BRANCH  24  25
HETATM   25  C14 UNL     1      19.307  27.240  14.018  1.00  0.00     0.022 C
BRANCH  25  26
HETATM   26  C15 UNL     1      20.365  28.234  14.332  1.00  0.00     0.124 C
BRANCH  26  27
HETATM   27  N3  UNL     1      20.945  28.161  15.638  1.00  0.00    -0.343 N
HETATM   28  C16 UNL     1      22.312  28.056  15.867  1.00  0.00     0.322 C
HETATM   29  O4  UNL     1      23.194  28.013  14.976  1.00  0.00    -0.247 OA
HETATM   30  N4  UNL     1      22.800  27.991  17.223  1.00  0.00    -0.289 N
ATOM     31  H4  UNL     1      23.555  28.605  17.529  1.00  0.00     0.172 HD
ATOM     32  H3  UNL     1      20.321  28.186  16.445  1.00  0.00     0.164 HD
BRANCH  30  33
HETATM   33  C17 UNL     1      22.262  27.132  18.060  1.00  0.00     0.153 A
HETATM   34  N5  UNL     1      21.564  26.044  17.750  1.00  0.00    -0.339 N
HETATM   35  C18 UNL     1      21.100  25.300  18.732  1.00  0.00     0.027 A
ATOM     36  H5  UNL     1      21.393  25.793  16.776  1.00  0.00     0.168 HD
HETATM   37  C19 UNL     1      21.365  25.694  20.012  1.00  0.00     0.026 A
HETATM   38  C23 UNL     1      20.285  24.017  18.567  1.00  0.00     0.077 C
HETATM   39  S2  UNL     1      22.271  27.118  19.762  1.00  0.00    -0.055 SA
HETATM   40  C20 UNL     1      20.919  24.968  21.242  1.00  0.00     0.164 C
HETATM   41  N6  UNL     1      20.131  23.842  20.923  1.00  0.00    -0.412 N
HETATM   42  C21 UNL     1      18.717  23.984  21.028  1.00  0.00     0.143 C
HETATM   43  C22 UNL     1      20.613  23.161  19.769  1.00  0.00     0.122 C
ENDBRANCH  30  33
ENDBRANCH  26  27
ENDBRANCH  25  26
ENDBRANCH  24  25
ENDBRANCH  23  24
ENDBRANCH   1  23
TORSDOF 14
ENDMDL