MODEL 1
REMARK VINA RESULT: -8.849391536      0.000      0.000
REMARK  13 active torsions:
REMARK  status: ('A' for Active; 'I' for Inactive)
REMARK    1  A    between atoms: S1_2  and  C2_3
REMARK    2  A    between atoms: C2_3  and  C3_4
REMARK    3  A    between atoms: C3_4  and  C4_5
REMARK    4  A    between atoms: C4_5  and  N1_6
REMARK    5  A    between atoms: C4_5  and  C10_15
REMARK       I    between atoms: N1_6  and  C5_8
REMARK    6  A    between atoms: C5_8  and  O2_10
REMARK    7  A    between atoms: O2_10  and  C6_11
REMARK       I    between atoms: C10_15  and  N2_17
REMARK    8  A    between atoms: N2_17  and  C11_19
REMARK    9  A    between atoms: C11_19  and  C12_20
REMARK   10  A    between atoms: C12_20  and  N3_21
REMARK   11  A    between atoms: N5_26  and  C16_27
REMARK   12  A    between atoms: C16_27  and  C17_28
REMARK   13  A    between atoms: C17_28  and  C18_29
ROOT
HETATM    1  N3  UNL     1      17.553  23.044  18.810  1.00  0.00     0.092 N
HETATM    2  C13 UNL     1      18.354  22.521  17.761  1.00  0.00     0.288 C
HETATM    3  C14 UNL     1      17.685  22.154  16.493  1.00  0.00     0.138 C
HETATM    4  N4  UNL     1      16.711  23.051  15.969  1.00  0.00    -0.252 NA
HETATM    5  C15 UNL     1      17.104  24.438  16.071  1.00  0.00     0.130 C
HETATM    6  N5  UNL     1      15.417  22.794  16.465  1.00  0.00    -0.248 NA
HETATM    7  C26 UNL     1      15.371  23.432  17.812  1.00  0.00     0.138 C
HETATM    8  C27 UNL     1      16.218  22.585  18.767  1.00  0.00     0.288 C
ENDROOT
BRANCH   1   9
HETATM    9  C12 UNL     1      18.245  22.863  20.043  1.00  0.00     0.292 C
BRANCH   9  10
HETATM   10  C11 UNL     1      18.289  24.016  20.981  1.00  0.00     0.152 C
BRANCH  10  11
HETATM   11  N2  UNL     1      19.108  25.103  20.462  1.00  0.00    -0.358 N
HETATM   12  C10 UNL     1      20.504  25.041  20.270  1.00  0.00     0.240 C
HETATM   13  O3  UNL     1      21.152  24.002  20.535  1.00  0.00    -0.271 OA
ATOM     14  H2  UNL     1      18.637  25.975  20.220  1.00  0.00     0.162 HD
BRANCH  12  15
HETATM   15  C4  UNL     1      21.281  26.217  19.740  1.00  0.00     0.179 C
BRANCH  15  16
HETATM   16  C3  UNL     1      21.350  27.245  20.831  1.00  0.00     0.045 C
BRANCH  16  17
HETATM   17  C2  UNL     1      22.006  26.775  22.092  1.00  0.00     0.076 C
BRANCH  17  18
HETATM   18  S1  UNL     1      23.675  26.173  21.907  1.00  0.00    -0.173 SA
HETATM   19  C1  UNL     1      23.938  24.529  22.622  1.00  0.00     0.089 C
ENDBRANCH  17  18
ENDBRANCH  16  17
ENDBRANCH  15  16
BRANCH  15  20
HETATM   20  N1  UNL     1      20.694  26.711  18.538  1.00  0.00    -0.324 N
HETATM   21  C5  UNL     1      21.369  27.420  17.513  1.00  0.00     0.362 C
HETATM   22  O1  UNL     1      22.578  27.680  17.581  1.00  0.00    -0.238 OA
ATOM     23  H1  UNL     1      19.698  26.538  18.402  1.00  0.00     0.165 HD
BRANCH  21  24
HETATM   24  O2  UNL     1      20.667  27.838  16.405  1.00  0.00    -0.294 OA
BRANCH  24  25
HETATM   25  C6  UNL     1      20.668  27.198  15.163  1.00  0.00     0.061 C
HETATM   26  C7  UNL     1      21.313  25.844  15.160  1.00  0.00     0.046 C
HETATM   27  C8  UNL     1      21.531  28.072  14.237  1.00  0.00     0.046 C
HETATM   28  C9  UNL     1      19.287  27.190  14.539  1.00  0.00     0.046 C
ENDBRANCH  24  25
ENDBRANCH  21  24
ENDBRANCH  15  20
ENDBRANCH  12  15
ENDBRANCH  10  11
ENDBRANCH   9  10
ENDBRANCH   1   9
BRANCH   6  29
HETATM   29  C16 UNL     1      14.348  23.290  15.673  1.00  0.00     0.114 C
BRANCH  29  30
HETATM   30  C17 UNL     1      13.510  22.309  15.022  1.00  0.00     0.080 C
BRANCH  30  31
HETATM   31  C18 UNL     1      12.951  21.171  15.771  1.00  0.00     0.052 A
HETATM   32  N6  UNL     1      13.279  20.955  17.091  1.00  0.00    -0.356 N
HETATM   33  C19 UNL     1      12.755  19.975  17.704  1.00  0.00     0.023 A
ATOM     34  H6  UNL     1      13.934  21.574  17.569  1.00  0.00     0.166 HD
HETATM   35  C20 UNL     1      11.877  19.157  17.034  1.00  0.00     0.007 A
HETATM   36  C25 UNL     1      13.095  19.716  19.174  1.00  0.00     0.058 C
HETATM   37  S2  UNL     1      11.871  19.897  15.504  1.00  0.00    -0.079 SA
HETATM   38  C21 UNL     1      11.121  17.942  17.484  1.00  0.00     0.048 C
HETATM   39  C22 UNL     1      11.957  17.205  18.539  1.00  0.00     0.005 C
HETATM   40  C23 UNL     1      13.427  17.403  18.341  1.00  0.00     0.001 C
HETATM   41  C24 UNL     1      13.964  18.483  19.248  1.00  0.00     0.006 C
ENDBRANCH  30  31
ENDBRANCH  29  30
ENDBRANCH   6  29
TORSDOF 13
ENDMDL