MODEL 4
REMARK VINA RESULT: -8.967434781      1.957      2.716
REMARK  13 active torsions:
REMARK  status: ('A' for Active; 'I' for Inactive)
REMARK    1  A    between atoms: C2_2  and  C3_3
REMARK    2  A    between atoms: C3_3  and  C4_4
REMARK    3  A    between atoms: C4_4  and  C5_5
REMARK    4  A    between atoms: N1_7  and  C7_8
REMARK    5  A    between atoms: C10_13  and  N3_14
REMARK    6  A    between atoms: N3_14  and  C11_16
REMARK    7  A    between atoms: C12_19  and  C13_20
REMARK    8  A    between atoms: C13_20  and  C14_21
REMARK    9  A    between atoms: N6_25  and  O1_26
REMARK   10  A    between atoms: C18_30  and  O2_31
REMARK   11  A    between atoms: N8_40  and  C25_41
REMARK   12  A    between atoms: C25_41  and  C26_42
REMARK   13  A    between atoms: C26_42  and  N9_43
ROOT
HETATM    1  C7  UNL     1      15.424  23.067  16.225  1.00  0.00     0.681 A
HETATM    2  N2  UNL     1      15.952  24.219  15.780  1.00  0.00    -0.189 N
ATOM      3  H2  UNL     1      15.590  24.771  15.003  1.00  0.00     0.184 HD
HETATM    4  C8  UNL     1      17.024  24.527  16.513  1.00  0.00     0.078 A
HETATM    5  C9  UNL     1      17.953  25.537  16.576  1.00  0.00     0.064 A
HETATM    6  C10 UNL     1      18.982  25.589  17.506  1.00  0.00     0.069 A
HETATM    7  C18 UNL     1      19.040  24.535  18.404  1.00  0.00     0.097 A
HETATM    8  C20 UNL     1      18.139  23.515  18.376  1.00  0.00     0.071 A
HETATM    9  C21 UNL     1      17.139  23.511  17.440  1.00  0.00     0.079 A
HETATM   10  N7  UNL     1      16.153  22.614  17.260  1.00  0.00    -0.189 N
ATOM     11  H7  UNL     1      15.991  21.763  17.798  1.00  0.00     0.184 HD
ENDROOT
BRANCH   1  12
HETATM   12  N1  UNL     1      14.260  22.379  15.761  1.00  0.00    -0.212 N
HETATM   13  C6  UNL     1      14.261  20.987  16.052  1.00  0.00     0.193 C
HETATM   14  C5  UNL     1      13.071  20.192  15.580  1.00  0.00     0.003 C
HETATM   15  N8  UNL     1      12.590  20.465  14.295  1.00  0.00    -0.384 N
HETATM   16  C24 UNL     1      11.996  21.676  13.948  1.00  0.00     0.124 C
HETATM   17  C23 UNL     1      13.018  22.801  13.704  1.00  0.00     0.040 C
HETATM   18  C22 UNL     1      13.359  23.278  15.098  1.00  0.00     0.143 C
BRANCH  14  19
HETATM   19  C4  UNL     1      12.096  19.878  16.665  1.00  0.00     0.054 C
BRANCH  19  20
HETATM   20  C3  UNL     1      12.580  19.897  18.064  1.00  0.00     0.005 C
BRANCH  20  21
HETATM   21  C2  UNL     1      11.870  18.751  18.798  1.00  0.00    -0.004 C
HETATM   22  C1  UNL     1      12.267  18.697  20.258  1.00  0.00     0.005 C
ENDBRANCH  20  21
ENDBRANCH  19  20
ENDBRANCH  14  19
BRANCH  15  23
HETATM   23  C25 UNL     1      12.571  19.431  13.331  1.00  0.00     0.152 C
BRANCH  23  24
HETATM   24  C26 UNL     1      11.216  18.964  12.949  1.00  0.00     0.292 C
BRANCH  24  25
HETATM   25  N9  UNL     1      11.201  17.828  12.077  1.00  0.00     0.094 N
HETATM   26  C27 UNL     1      11.664  16.682  12.842  1.00  0.00     0.298 C
HETATM   27  C28 UNL     1      10.644  16.284  13.900  1.00  0.00     0.198 C
HETATM   28  O3  UNL     1       9.367  16.710  13.636  1.00  0.00    -0.388 OA
HETATM   29  C29 UNL     1       9.015  16.748  12.316  1.00  0.00     0.198 C
HETATM   30  C30 UNL     1       9.981  17.499  11.448  1.00  0.00     0.298 C
ENDBRANCH  24  25
ENDBRANCH  23  24
ENDBRANCH  15  23
ENDBRANCH   1  12
BRANCH   6  31
HETATM   31  N3  UNL     1      19.924  26.571  17.614  1.00  0.00    -0.338 N
ATOM     32  H3  UNL     1      19.620  27.270  18.292  1.00  0.00     0.167 HD
BRANCH  31  33
HETATM   33  C11 UNL     1      21.026  26.883  17.153  1.00  0.00     0.134 A
HETATM   34  N4  UNL     1      22.121  26.488  17.879  1.00  0.00    -0.329 N
HETATM   35  C12 UNL     1      23.374  26.723  17.558  1.00  0.00     0.099 A
ATOM     36  H4  UNL     1      21.949  25.968  18.740  1.00  0.00     0.168 HD
HETATM   37  N5  UNL     1      23.612  27.417  16.405  1.00  0.00    -0.263 N
HETATM   38  N6  UNL     1      22.596  27.817  15.675  1.00  0.00    -0.163 N
ATOM     39  H5  UNL     1      24.568  27.621  16.115  1.00  0.00     0.191 HD
HETATM   40  C16 UNL     1      21.289  27.580  15.998  1.00  0.00     0.099 A
HETATM   41  C17 UNL     1      20.206  28.080  15.106  1.00  0.00     0.077 C
BRANCH  35  42
HETATM   42  C13 UNL     1      24.579  26.301  18.341  1.00  0.00     0.077 C
BRANCH  42  43
HETATM   43  C14 UNL     1      25.602  25.778  17.362  1.00  0.00     0.003 C
HETATM   44  C15 UNL     1      26.364  24.587  17.826  1.00  0.00     0.005 C
ENDBRANCH  42  43
ENDBRANCH  35  42
BRANCH  38  45
HETATM   45  O1  UNL     1      22.827  28.525  14.496  1.00  0.00    -0.268 OA
ATOM     46  H1  UNL     1      23.446  29.246  14.492  1.00  0.00     0.247 HD
ENDBRANCH  38  45
ENDBRANCH  31  33
ENDBRANCH   6  31
BRANCH   7  47
HETATM   47  O2  UNL     1      20.046  24.508  19.372  1.00  0.00    -0.354 OA
HETATM   48  C19 UNL     1      19.716  24.658  20.739  1.00  0.00     0.210 C
ENDBRANCH   7  47
TORSDOF 13
ENDMDL