MODEL 4
REMARK VINA RESULT: -8.530016550      1.965      9.941
REMARK  14 active torsions:
REMARK  status: ('A' for Active; 'I' for Inactive)
REMARK    1  A    between atoms: C2_2  and  C3_3
REMARK    2  A    between atoms: C3_3  and  C4_4
REMARK    3  A    between atoms: C4_4  and  C5_5
REMARK    4  A    between atoms: C5_5  and  N1_6
REMARK    5  A    between atoms: C5_5  and  C11_15
REMARK       I    between atoms: N1_6  and  C6_8
REMARK    6  A    between atoms: C6_8  and  O2_10
REMARK    7  A    between atoms: O2_10  and  C7_11
REMARK    8  A    between atoms: C11_15  and  C12_17
REMARK    9  A    between atoms: C12_17  and  N2_18
REMARK       I    between atoms: N2_18  and  C13_19
REMARK   10  A    between atoms: N2_18  and  C25_40
REMARK   11  A    between atoms: C13_19  and  C14_21
REMARK   12  A    between atoms: C14_21  and  N3_23
REMARK   13  A    between atoms: C19_29  and  N4_30
REMARK   14  A    between atoms: N5_33  and  C20_34
ROOT
HETATM    1  N2  UNL     1      18.410  23.303  18.942  1.00  0.00    -0.335 N
HETATM    2  C13 UNL     1      17.039  22.847  18.878  1.00  0.00     0.243 C
HETATM    3  O4  UNL     1      16.526  22.511  19.972  1.00  0.00    -0.271 OA
ENDROOT
BRANCH   1   4
HETATM    4  C12 UNL     1      19.200  23.651  17.805  1.00  0.00     0.207 C
BRANCH   4   5
HETATM    5  C11 UNL     1      19.093  25.072  17.399  1.00  0.00     0.167 C
HETATM    6  O3  UNL     1      18.044  25.720  17.535  1.00  0.00    -0.294 OA
BRANCH   5   7
HETATM    7  C5  UNL     1      20.209  25.826  16.796  1.00  0.00     0.158 C
BRANCH   7   8
HETATM    8  C4  UNL     1      20.161  25.532  15.296  1.00  0.00     0.033 C
BRANCH   8   9
HETATM    9  C3  UNL     1      19.431  26.645  14.570  1.00  0.00     0.002 C
BRANCH   9  10
HETATM   10  C2  UNL     1      20.060  27.990  14.841  1.00  0.00    -0.004 C
HETATM   11  C1  UNL     1      21.409  28.026  14.153  1.00  0.00     0.005 C
ENDBRANCH   9  10
ENDBRANCH   8   9
ENDBRANCH   7   8
BRANCH   7  12
HETATM   12  N1  UNL     1      21.503  25.481  17.332  1.00  0.00    -0.325 N
HETATM   13  C6  UNL     1      22.375  26.522  17.742  1.00  0.00     0.361 C
HETATM   14  O1  UNL     1      21.979  27.714  17.612  1.00  0.00    -0.238 OA
ATOM     15  H1  UNL     1      21.787  24.505  17.414  1.00  0.00     0.165 HD
BRANCH  13  16
HETATM   16  O2  UNL     1      23.634  26.333  18.279  1.00  0.00    -0.294 OA
BRANCH  16  17
HETATM   17  C7  UNL     1      23.894  25.976  19.624  1.00  0.00     0.061 C
HETATM   18  C8  UNL     1      25.258  26.519  19.982  1.00  0.00     0.046 C
HETATM   19  C9  UNL     1      22.883  26.606  20.563  1.00  0.00     0.046 C
HETATM   20  C10 UNL     1      23.891  24.494  19.867  1.00  0.00     0.046 C
ENDBRANCH  16  17
ENDBRANCH  13  16
ENDBRANCH   7  12
ENDBRANCH   5   7
ENDBRANCH   4   5
ENDBRANCH   1   4
BRANCH   1  21
HETATM   21  C25 UNL     1      18.978  23.391  20.300  1.00  0.00     0.025 C
HETATM   22  C26 UNL     1      18.878  22.063  20.999  1.00  0.00     0.037 C
HETATM   23  C27 UNL     1      18.239  24.498  21.074  1.00  0.00     0.037 C
HETATM   24  C28 UNL     1      20.425  23.810  20.248  1.00  0.00     0.037 C
ENDBRANCH   1  21
BRANCH   2  25
HETATM   25  C14 UNL     1      16.281  22.782  17.612  1.00  0.00     0.170 C
HETATM   26  C15 UNL     1      14.896  23.339  17.937  1.00  0.00     0.042 C
BRANCH  25  27
HETATM   27  N3  UNL     1      16.347  21.630  16.920  1.00  0.00    -0.369 N
HETATM   28  C16 UNL     1      15.468  20.677  16.505  1.00  0.00     0.148 C
HETATM   29  C17 UNL     1      14.366  21.074  15.582  1.00  0.00     0.207 C
HETATM   30  C24 UNL     1      15.053  19.561  17.380  1.00  0.00     0.280 C
HETATM   31  O5  UNL     1      14.649  21.665  14.529  1.00  0.00    -0.286 OA
HETATM   32  C18 UNL     1      13.031  20.750  15.957  1.00  0.00     0.112 C
HETATM   33  C19 UNL     1      12.711  19.814  16.908  1.00  0.00     0.183 C
HETATM   34  N5  UNL     1      13.708  19.169  17.660  1.00  0.00    -0.284 N
HETATM   35  O8  UNL     1      15.981  18.912  17.918  1.00  0.00    -0.265 OA
ATOM     36  H3  UNL     1      17.302  21.415  16.632  1.00  0.00     0.160 HD
BRANCH  33  37
HETATM   37  N4  UNL     1      11.311  19.706  17.056  1.00  0.00    -0.098 N
HETATM   38  O6  UNL     1      10.730  20.213  18.008  1.00  0.00    -0.531 OA
HETATM   39  O7  UNL     1      10.603  18.980  16.138  1.00  0.00    -0.531 OA
ENDBRANCH  33  37
BRANCH  34  40
HETATM   40  C20 UNL     1      13.498  18.165  18.600  1.00  0.00     0.031 C
HETATM   41  C21 UNL     1      13.423  18.596  20.058  1.00  0.00     0.038 C
HETATM   42  C22 UNL     1      14.772  17.259  18.543  1.00  0.00     0.038 C
HETATM   43  C23 UNL     1      12.324  17.223  18.442  1.00  0.00     0.038 C
ENDBRANCH  34  40
ENDBRANCH  25  27
ENDBRANCH   2  25
TORSDOF 14
ENDMDL