MODEL 3
REMARK VINA RESULT: -8.723391642      1.271      2.681
REMARK  12 active torsions:
REMARK  status: ('A' for Active; 'I' for Inactive)
REMARK    1  A    between atoms: C2_2  and  C3_3
REMARK    2  A    between atoms: C5_5  and  C6_6
REMARK       I    between atoms: C6_6  and  N1_8
REMARK    3  A    between atoms: N1_8  and  C7_10
REMARK    4  A    between atoms: C7_10  and  C8_11
REMARK    5  A    between atoms: C7_10  and  C16_19
REMARK    6  A    between atoms: C8_11  and  C9_12
REMARK    7  A    between atoms: C10_13  and  C12_15
REMARK    8  A    between atoms: C16_19  and  C17_21
REMARK    9  A    between atoms: C17_21  and  C18_22
REMARK   10  A    between atoms: C18_22  and  C19_23
REMARK   11  A    between atoms: C18_22  and  C24_30
REMARK       I    between atoms: C19_23  and  N2_25
REMARK   12  A    between atoms: C24_30  and  C27_33
ROOT
HETATM    1  C7  UNL     1      17.858  23.629  18.620  1.00  0.00     0.158 C
ENDROOT
BRANCH   1   2
HETATM    2  N1  UNL     1      19.259  24.049  18.895  1.00  0.00    -0.348 N
HETATM    3  C6  UNL     1      19.628  24.654  20.110  1.00  0.00     0.243 C
HETATM    4  O1  UNL     1      18.718  24.836  20.969  1.00  0.00    -0.271 OA
ATOM      5  H1  UNL     1      19.971  23.894  18.182  1.00  0.00     0.163 HD
BRANCH   3   6
HETATM    6  C5  UNL     1      20.979  25.087  20.456  1.00  0.00     0.207 C
HETATM    7  C4  UNL     1      21.986  23.944  20.531  1.00  0.00     0.064 C
HETATM    8  C3  UNL     1      23.280  24.743  20.386  1.00  0.00     0.115 C
HETATM    9  N5  UNL     1      22.904  25.672  19.352  1.00  0.00    -0.230 N
HETATM   10  N3  UNL     1      21.590  25.881  19.378  1.00  0.00    -0.222 N
HETATM   11  C30 UNL     1      23.439  26.410  18.359  1.00  0.00     0.347 A
HETATM   12  C28 UNL     1      21.337  26.754  18.390  1.00  0.00     0.348 A
HETATM   13  O5  UNL     1      20.216  27.244  18.042  1.00  0.00    -0.245 OA
HETATM   14  N4  UNL     1      22.461  27.096  17.746  1.00  0.00    -0.253 N
HETATM   15  C29 UNL     1      22.627  28.003  16.627  1.00  0.00     0.166 C
HETATM   16  O6  UNL     1      24.654  26.470  18.032  1.00  0.00    -0.245 OA
BRANCH   8  17
HETATM   17  C2  UNL     1      24.425  23.869  19.958  1.00  0.00     0.023 C
HETATM   18  C1  UNL     1      25.572  23.920  20.951  1.00  0.00     0.007 C
ENDBRANCH   8  17
ENDBRANCH   3   6
ENDBRANCH   1   2
BRANCH   1  19
HETATM   19  C8  UNL     1      17.437  24.517  17.475  1.00  0.00     0.060 C
BRANCH  19  20
HETATM   20  C9  UNL     1      18.513  24.820  16.512  1.00  0.00    -0.021 C
HETATM   21  C10 UNL     1      18.293  25.538  15.410  1.00  0.00    -0.080 C
HETATM   22  C11 UNL     1      16.918  26.034  15.169  1.00  0.00     0.044 C
BRANCH  21  23
HETATM   23  C12 UNL     1      19.417  25.804  14.488  1.00  0.00    -0.029 C
HETATM   24  C13 UNL     1      18.979  25.477  13.066  1.00  0.00     0.019 C
HETATM   25  C14 UNL     1      20.686  25.096  14.866  1.00  0.00     0.019 C
HETATM   26  C15 UNL     1      19.753  27.302  14.483  1.00  0.00     0.019 C
ENDBRANCH  21  23
ENDBRANCH  19  20
ENDBRANCH   1  19
BRANCH   1  27
HETATM   27  C16 UNL     1      17.826  22.184  18.338  1.00  0.00     0.153 C
HETATM   28  O2  UNL     1      18.566  21.486  19.008  1.00  0.00    -0.295 OA
BRANCH  27  29
HETATM   29  C17 UNL     1      16.976  21.582  17.338  1.00  0.00     0.121 C
BRANCH  29  30
HETATM   30  C18 UNL     1      15.598  22.131  17.183  1.00  0.00     0.009 C
BRANCH  30  31
HETATM   31  C19 UNL     1      14.680  21.709  18.259  1.00  0.00     0.247 C
HETATM   32  O3  UNL     1      14.177  22.597  18.991  1.00  0.00    -0.268 OA
HETATM   33  N2  UNL     1      14.317  20.358  18.527  1.00  0.00    -0.348 N
HETATM   34  C20 UNL     1      14.742  19.126  17.872  1.00  0.00     0.126 C
HETATM   35  C23 UNL     1      13.401  19.914  19.556  1.00  0.00     0.126 C
HETATM   36  C21 UNL     1      14.905  18.112  19.015  1.00  0.00     0.021 C
HETATM   37  C22 UNL     1      14.072  18.664  20.134  1.00  0.00     0.021 C
ENDBRANCH  30  31
BRANCH  30  38
HETATM   38  C24 UNL     1      14.992  22.218  15.849  1.00  0.00     0.035 C
HETATM   39  C25 UNL     1      16.072  22.419  14.789  1.00  0.00     0.027 C
HETATM   40  C26 UNL     1      14.036  21.157  15.423  1.00  0.00     0.027 C
BRANCH  38  41
HETATM   41  C27 UNL     1      14.220  23.523  15.805  1.00  0.00     0.244 C
HETATM   42  O4  UNL     1      13.194  23.671  15.203  1.00  0.00    -0.306 OA
ENDBRANCH  38  41
ENDBRANCH  30  38
ENDBRANCH  29  30
ENDBRANCH  27  29
ENDBRANCH   1  27
TORSDOF 12
ENDMDL