MODEL 4
REMARK VINA RESULT: -7.508249702      2.184      9.511
REMARK  15 active torsions:
REMARK  status: ('A' for Active; 'I' for Inactive)
REMARK    1  A    between atoms: C2_2  and  C4_4
REMARK    2  A    between atoms: C4_4  and  C5_5
REMARK    3  A    between atoms: C4_4  and  N2_24
REMARK       I    between atoms: C5_5  and  N1_7
REMARK    4  A    between atoms: N1_7  and  C6_9
REMARK    5  A    between atoms: C6_9  and  C7_10
REMARK    6  A    between atoms: C6_9  and  C13_18
REMARK    7  A    between atoms: C7_10  and  C8_11
REMARK    8  A    between atoms: C8_11  and  O3_13
REMARK    9  A    between atoms: O3_13  and  C9_14
REMARK   10  A    between atoms: C13_18  and  C14_20
REMARK       I    between atoms: N4_29  and  C21_30
REMARK   11  A    between atoms: C21_30  and  O6_32
REMARK   12  A    between atoms: O6_32  and  C22_33
REMARK   13  A    between atoms: C22_33  and  C23_34
REMARK   14  A    between atoms: C23_34  and  C24_35
REMARK   15  A    between atoms: C24_35  and  N5_36
ROOT
HETATM    1  N2  UNL     1      15.846  22.861  16.440  1.00  0.00    -0.334 N
HETATM    2  C18 UNL     1      16.077  22.563  15.050  1.00  0.00     0.167 C
HETATM    3  C19 UNL     1      14.965  21.726  14.476  1.00  0.00     0.215 C
HETATM    4  C20 UNL     1      14.774  22.047  13.052  1.00  0.00     0.086 C
HETATM    5  N3  UNL     1      14.635  22.302  11.927  1.00  0.00    -0.195 NA
HETATM    6  N4  UNL     1      13.725  21.800  15.175  1.00  0.00    -0.296 N
HETATM    7  C21 UNL     1      12.815  20.683  15.224  1.00  0.00     0.364 C
HETATM    8  O5  UNL     1      13.108  19.612  14.647  1.00  0.00    -0.238 OA
HETATM    9  C27 UNL     1      13.373  23.031  15.860  1.00  0.00     0.179 C
HETATM   10  C28 UNL     1      13.146  24.167  14.905  1.00  0.00     0.043 C
HETATM   11  C29 UNL     1      14.514  23.305  16.788  1.00  0.00     0.243 C
HETATM   12  O7  UNL     1      14.269  23.918  17.842  1.00  0.00    -0.271 OA
ENDROOT
BRANCH   1  13
HETATM   13  C4  UNL     1      16.805  22.765  17.474  1.00  0.00     0.182 C
BRANCH  13  14
HETATM   14  C2  UNL     1      17.013  21.411  18.087  1.00  0.00     0.009 C
HETATM   15  C1  UNL     1      15.832  20.496  18.032  1.00  0.00     0.012 C
HETATM   16  C3  UNL     1      17.554  21.535  19.516  1.00  0.00     0.012 C
ENDBRANCH  13  14
BRANCH  13  17
HETATM   17  C5  UNL     1      18.127  23.340  17.136  1.00  0.00     0.241 C
HETATM   18  O1  UNL     1      18.858  22.695  16.341  1.00  0.00    -0.271 OA
HETATM   19  N1  UNL     1      18.545  24.563  17.686  1.00  0.00    -0.347 N
ATOM     20  H1  UNL     1      17.920  25.050  18.329  1.00  0.00     0.163 HD
BRANCH  19  21
HETATM   21  C6  UNL     1      19.828  25.159  17.377  1.00  0.00     0.164 C
BRANCH  21  22
HETATM   22  C7  UNL     1      20.575  25.597  18.598  1.00  0.00     0.144 C
BRANCH  22  23
HETATM   23  C8  UNL     1      21.000  24.552  19.510  1.00  0.00     0.261 C
HETATM   24  O2  UNL     1      20.232  23.771  20.119  1.00  0.00    -0.265 OA
BRANCH  23  25
HETATM   25  O3  UNL     1      22.360  24.389  19.738  1.00  0.00    -0.311 OA
BRANCH  25  26
HETATM   26  C9  UNL     1      23.126  25.264  20.511  1.00  0.00     0.060 C
HETATM   27  C10 UNL     1      24.173  24.406  21.231  1.00  0.00     0.045 C
HETATM   28  C11 UNL     1      23.877  26.280  19.692  1.00  0.00     0.045 C
HETATM   29  C12 UNL     1      22.341  25.980  21.571  1.00  0.00     0.045 C
ENDBRANCH  25  26
ENDBRANCH  23  25
ENDBRANCH  22  23
ENDBRANCH  21  22
BRANCH  21  30
HETATM   30  C13 UNL     1      19.758  26.146  16.288  1.00  0.00     0.157 C
HETATM   31  O4  UNL     1      19.741  27.325  16.672  1.00  0.00    -0.295 OA
BRANCH  30  32
HETATM   32  C14 UNL     1      19.704  25.976  14.868  1.00  0.00     0.012 C
HETATM   33  C15 UNL     1      18.460  25.653  14.162  1.00  0.00     0.022 C
HETATM   34  C16 UNL     1      20.779  24.999  14.431  1.00  0.00     0.022 C
HETATM   35  C17 UNL     1      20.187  27.321  14.267  1.00  0.00     0.022 C
ENDBRANCH  30  32
ENDBRANCH  21  30
ENDBRANCH  19  21
ENDBRANCH  13  17
ENDBRANCH   1  13
BRANCH   7  36
HETATM   36  O6  UNL     1      11.630  20.782  15.897  1.00  0.00    -0.304 OA
BRANCH  36  37
HETATM   37  C22 UNL     1      11.138  19.625  16.579  1.00  0.00     0.185 C
BRANCH  37  38
HETATM   38  C23 UNL     1      11.524  19.621  18.020  1.00  0.00     0.071 C
BRANCH  38  39
HETATM   39  C24 UNL     1      11.268  18.383  18.789  1.00  0.00     0.059 C
BRANCH  39  40
HETATM   40  N5  UNL     1      12.338  17.741  19.437  1.00  0.00    -0.402 N
HETATM   41  C25 UNL     1      13.584  17.610  18.785  1.00  0.00     0.148 C
HETATM   42  C26 UNL     1      12.408  17.920  20.850  1.00  0.00     0.148 C
ENDBRANCH  39  40
ENDBRANCH  38  39
ENDBRANCH  37  38
ENDBRANCH  36  37
ENDBRANCH   7  36
TORSDOF 15
ENDMDL