MODEL 5
REMARK VINA RESULT: -8.076669742      3.849      6.747
REMARK  13 active torsions:
REMARK  status: ('A' for Active; 'I' for Inactive)
REMARK       I    between atoms: C2_2  and  N1_4
REMARK    1  A    between atoms: N1_4  and  C3_6
REMARK    2  A    between atoms: C3_6  and  C4_7
REMARK    3  A    between atoms: C4_7  and  C6_9
REMARK    4  A    between atoms: C6_9  and  C7_10
REMARK    5  A    between atoms: C7_10  and  C8_12
REMARK    6  A    between atoms: C8_12  and  O3_13
REMARK    7  A    between atoms: C9_15  and  C10_16
REMARK    8  A    between atoms: C9_15  and  N2_19
REMARK    9  A    between atoms: C16_24  and  C17_25
REMARK       I    between atoms: C17_25  and  N3_27
REMARK   10  A    between atoms: C20_31  and  C21_32
REMARK   11  A    between atoms: C21_32  and  N5_41
REMARK   12  A    between atoms: N4_33  and  C22_35
REMARK   13  A    between atoms: C22_35  and  C24_37
ROOT
HETATM    1  N5  UNL     1      16.118  20.352  17.633  1.00  0.00    -0.281 N
ATOM      2  H5  UNL     1      17.090  20.141  17.411  1.00  0.00     0.179 HD
HETATM    3  C28 UNL     1      15.343  19.343  18.178  1.00  0.00     0.183 C
HETATM    4  N6  UNL     1      14.704  18.458  18.627  1.00  0.00    -0.172 NA
ENDROOT
BRANCH   1   5
HETATM    5  C21 UNL     1      15.651  21.644  17.366  1.00  0.00     0.110 C
HETATM    6  N4  UNL     1      14.816  21.863  16.451  1.00  0.00    -0.372 N
ATOM      7  H4  UNL     1      14.590  22.857  16.426  1.00  0.00     0.161 HD
BRANCH   5   8
HETATM    8  C20 UNL     1      16.087  22.792  18.144  1.00  0.00     0.165 C
HETATM    9  N3  UNL     1      16.669  23.927  17.532  1.00  0.00    -0.329 N
HETATM   10  C17 UNL     1      17.200  24.255  16.270  1.00  0.00     0.244 C
HETATM   11  C18 UNL     1      16.631  24.957  18.624  1.00  0.00     0.200 C
HETATM   12  O5  UNL     1      17.234  23.383  15.383  1.00  0.00    -0.271 OA
HETATM   13  S1  UNL     1      17.492  23.965  19.913  1.00  0.00    -0.147 SA
HETATM   14  C19 UNL     1      17.120  22.307  19.189  1.00  0.00     0.108 C
BRANCH  10  15
HETATM   15  C16 UNL     1      17.708  25.607  15.999  1.00  0.00     0.185 C
HETATM   16  N2  UNL     1      19.156  25.749  16.037  1.00  0.00    -0.301 N
HETATM   17  C13 UNL     1      19.630  24.924  14.975  1.00  0.00     0.225 C
HETATM   18  O4  UNL     1      20.727  24.335  14.848  1.00  0.00    -0.273 OA
HETATM   19  C14 UNL     1      18.549  24.836  13.923  1.00  0.00     0.106 C
HETATM   20  C15 UNL     1      17.500  25.782  14.471  1.00  0.00     0.044 C
BRANCH  16  21
HETATM   21  C9  UNL     1      19.978  26.576  16.868  1.00  0.00     0.076 C
HETATM   22  C8  UNL     1      20.660  25.859  17.897  1.00  0.00     0.139 C
BRANCH  22  23
HETATM   23  C7  UNL     1      21.707  26.219  18.820  1.00  0.00     0.184 C
HETATM   24  O2  UNL     1      22.760  25.564  18.834  1.00  0.00    -0.290 OA
BRANCH  23  25
HETATM   25  C6  UNL     1      21.617  27.344  19.776  1.00  0.00     0.092 C
BRANCH  25  26
HETATM   26  C4  UNL     1      21.430  26.868  21.170  1.00  0.00     0.007 C
HETATM   27  C5  UNL     1      20.745  25.532  21.259  1.00  0.00     0.012 C
BRANCH  26  28
HETATM   28  C3  UNL     1      22.672  26.846  22.019  1.00  0.00     0.127 C
BRANCH  28  29
HETATM   29  N1  UNL     1      23.553  25.755  21.647  1.00  0.00    -0.361 N
HETATM   30  C2  UNL     1      24.955  25.909  21.722  1.00  0.00     0.213 C
HETATM   31  C1  UNL     1      25.816  24.747  21.326  1.00  0.00     0.117 C
HETATM   32  O1  UNL     1      25.538  26.948  22.094  1.00  0.00    -0.274 OA
ATOM     33  H1  UNL     1      23.158  24.871  21.329  1.00  0.00     0.162 HD
ENDBRANCH  28  29
ENDBRANCH  26  28
ENDBRANCH  25  26
ENDBRANCH  23  25
ENDBRANCH  22  23
BRANCH  22  34
HETATM   34  O3  UNL     1      20.284  24.624  18.065  1.00  0.00    -0.355 OA
ATOM     35  H3  UNL     1      19.472  24.574  18.556  1.00  0.00     0.218 HD
ENDBRANCH  22  34
BRANCH  21  36
HETATM   36  C10 UNL     1      20.700  27.617  16.066  1.00  0.00    -0.058 C
HETATM   37  C11 UNL     1      19.954  28.240  14.953  1.00  0.00     0.045 C
HETATM   38  C12 UNL     1      22.140  27.363  15.766  1.00  0.00     0.045 C
ENDBRANCH  21  36
ENDBRANCH  16  21
ENDBRANCH  10  15
ENDBRANCH   5   8
BRANCH   6  39
HETATM   39  C22 UNL     1      14.105  21.205  15.472  1.00  0.00     0.086 C
HETATM   40  C23 UNL     1      12.751  20.755  16.047  1.00  0.00     0.033 C
BRANCH  39  41
HETATM   41  C24 UNL     1      13.735  22.264  14.390  1.00  0.00    -0.031 C
HETATM   42  C25 UNL     1      14.732  22.201  13.258  1.00  0.00     0.016 C
HETATM   43  C26 UNL     1      13.716  23.640  14.992  1.00  0.00     0.016 C
HETATM   44  C27 UNL     1      12.350  21.950  13.862  1.00  0.00     0.016 C
ENDBRANCH  39  41
ENDBRANCH   6  39
ENDBRANCH   1   5
TORSDOF 13
ENDMDL