MODEL 2
REMARK VINA RESULT: -8.973166133      2.959      9.726
REMARK  12 active torsions:
REMARK  status: ('A' for Active; 'I' for Inactive)
REMARK    1  A    between atoms: O1_2  and  C2_3
REMARK    2  A    between atoms: C5_6  and  N1_7
REMARK    3  A    between atoms: C6_9  and  C7_10
REMARK    4  A    between atoms: C7_10  and  N2_11
REMARK    5  A    between atoms: N2_11  and  C8_12
REMARK    6  A    between atoms: N5_21  and  C13_22
REMARK    7  A    between atoms: C13_22  and  C14_23
REMARK    8  A    between atoms: C24_37  and  O2_38
REMARK    9  A    between atoms: O2_38  and  C25_39
REMARK   10  A    between atoms: C25_39  and  C26_40
REMARK   11  A    between atoms: C26_40  and  C27_41
REMARK   12  A    between atoms: C27_41  and  N8_42
ROOT
HETATM    1  C2  UNL     1      15.313  22.170  14.815  1.00  0.00     0.102 A
HETATM    2  C3  UNL     1      16.200  23.182  15.053  1.00  0.00     0.057 A
HETATM    3  C4  UNL     1      16.162  23.925  16.215  1.00  0.00     0.037 A
HETATM    4  C5  UNL     1      17.074  24.948  16.458  1.00  0.00     0.118 A
HETATM    5  N6  UNL     1      16.905  25.582  17.674  1.00  0.00    -0.338 N
ATOM      6  H6  UNL     1      17.544  26.340  17.914  1.00  0.00     0.168 HD
HETATM    7  C21 UNL     1      15.966  25.263  18.541  1.00  0.00     0.182 A
HETATM    8  N7  UNL     1      15.087  24.284  18.313  1.00  0.00    -0.351 N
ATOM      9  H7  UNL     1      14.366  24.048  18.995  1.00  0.00     0.166 HD
HETATM   10  C22 UNL     1      15.195  23.624  17.150  1.00  0.00     0.050 A
HETATM   11  C23 UNL     1      14.278  22.592  16.924  1.00  0.00     0.070 A
HETATM   12  C24 UNL     1      14.317  21.846  15.761  1.00  0.00     0.104 A
ENDROOT
BRANCH   4  13
HETATM   13  N1  UNL     1      17.938  25.302  15.681  1.00  0.00    -0.349 N
HETATM   14  C6  UNL     1      18.659  25.261  14.546  1.00  0.00     0.121 C
ATOM     15  H1  UNL     1      18.362  26.087  16.176  1.00  0.00     0.167 HD
BRANCH  14  16
HETATM   16  C7  UNL     1      19.645  26.437  14.340  1.00  0.00     0.202 C
BRANCH  16  17
HETATM   17  N2  UNL     1      20.745  26.482  15.069  1.00  0.00    -0.398 NA
BRANCH  17  18
HETATM   18  C8  UNL     1      21.744  26.520  15.728  1.00  0.00     0.189 A
HETATM   19  N3  UNL     1      23.015  26.303  15.219  1.00  0.00    -0.327 N
HETATM   20  C9  UNL     1      24.046  26.355  16.053  1.00  0.00     0.183 A
ATOM     21  H3  UNL     1      23.154  26.106  14.228  1.00  0.00     0.169 HD
HETATM   22  N4  UNL     1      23.910  26.612  17.383  1.00  0.00    -0.355 N
HETATM   23  C10 UNL     1      22.706  26.828  17.923  1.00  0.00     0.024 A
ATOM     24  H4  UNL     1      24.739  26.639  17.977  1.00  0.00     0.166 HD
HETATM   25  C11 UNL     1      21.604  26.787  17.111  1.00  0.00     0.051 A
HETATM   26  C20 UNL     1      22.520  27.085  19.383  1.00  0.00     0.088 C
HETATM   27  C12 UNL     1      20.254  27.012  17.648  1.00  0.00     0.318 C
HETATM   28  N5  UNL     1      20.160  26.422  18.963  1.00  0.00     0.093 N
HETATM   29  C19 UNL     1      21.090  27.170  19.802  1.00  0.00     0.279 C
BRANCH  28  30
HETATM   30  C13 UNL     1      20.483  25.036  19.031  1.00  0.00     0.277 C
BRANCH  30  31
HETATM   31  C14 UNL     1      20.391  24.508  20.477  1.00  0.00     0.014 C
HETATM   32  C15 UNL     1      18.932  24.427  20.882  1.00  0.00     0.006 C
HETATM   33  C16 UNL     1      18.445  23.307  19.956  1.00  0.00     0.000 C
HETATM   34  C17 UNL     1      19.638  22.404  19.714  1.00  0.00     0.000 C
HETATM   35  C18 UNL     1      20.801  23.055  20.430  1.00  0.00     0.006 C
ENDBRANCH  30  31
ENDBRANCH  28  30
ENDBRANCH  17  18
ENDBRANCH  16  17
ENDBRANCH  14  16
ENDBRANCH   4  13
BRANCH   1  36
HETATM   36  O1  UNL     1      15.403  21.453  13.613  1.00  0.00    -0.353 OA
HETATM   37  C1  UNL     1      14.715  21.921  12.472  1.00  0.00     0.210 C
ENDBRANCH   1  36
BRANCH  12  38
HETATM   38  O2  UNL     1      13.509  20.833  15.413  1.00  0.00    -0.348 OA
BRANCH  38  39
HETATM   39  C25 UNL     1      12.148  20.699  15.323  1.00  0.00     0.177 C
BRANCH  39  40
HETATM   40  C26 UNL     1      11.588  19.669  16.230  1.00  0.00     0.057 C
BRANCH  40  41
HETATM   41  C27 UNL     1      11.930  19.766  17.679  1.00  0.00     0.274 C
BRANCH  41  42
HETATM   42  N8  UNL     1      12.745  18.768  18.252  1.00  0.00     0.092 N
HETATM   43  C28 UNL     1      14.004  19.148  18.768  1.00  0.00     0.298 C
HETATM   44  C29 UNL     1      14.220  18.617  20.198  1.00  0.00     0.198 C
HETATM   45  O3  UNL     1      13.163  18.961  21.008  1.00  0.00    -0.388 OA
HETATM   46  C30 UNL     1      11.938  18.572  20.508  1.00  0.00     0.198 C
HETATM   47  C31 UNL     1      12.044  17.898  19.168  1.00  0.00     0.298 C
ENDBRANCH  41  42
ENDBRANCH  40  41
ENDBRANCH  39  40
ENDBRANCH  38  39
ENDBRANCH  12  38
TORSDOF 12
ENDMDL