MODEL 5
REMARK VINA RESULT: -7.622841140      4.962     10.580
REMARK  16 active torsions:
REMARK  status: ('A' for Active; 'I' for Inactive)
REMARK    1  A    between atoms: C2_2  and  C3_3
REMARK    2  A    between atoms: C3_3  and  C4_4
REMARK    3  A    between atoms: C9_9  and  O1_10
REMARK    4  A    between atoms: O1_10  and  C10_11
REMARK    5  A    between atoms: C10_11  and  C11_13
REMARK    6  A    between atoms: C11_13  and  S1_14
REMARK    7  A    between atoms: S1_14  and  C12_16
REMARK    8  A    between atoms: C12_16  and  C13_17
REMARK    9  A    between atoms: C13_17  and  N1_18
REMARK       I    between atoms: N1_18  and  C15_20
REMARK   10  A    between atoms: C19_26  and  O6_27
REMARK   11  A    between atoms: C19_26  and  C25_34
REMARK   12  A    between atoms: O6_27  and  C20_28
REMARK   13  A    between atoms: C20_28  and  C21_30
REMARK   14  A    between atoms: C25_34  and  O8_35
REMARK   15  A    between atoms: N2_37  and  O9_39
REMARK   16  A    between atoms: C26_41  and  C27_42
ROOT
HETATM    1  C4  UNL     1      13.773  19.446  19.099  1.00  0.00    -0.003 C
HETATM    2  C5  UNL     1      15.156  19.461  18.492  1.00  0.00     0.013 C
HETATM    3  C6  UNL     1      14.881  20.899  18.042  1.00  0.00     0.026 C
HETATM    4  C7  UNL     1      13.502  20.776  18.485  1.00  0.00     0.021 C
HETATM    5  C8  UNL     1      12.449  20.788  17.484  1.00  0.00     0.014 C
HETATM    6  C9  UNL     1      12.393  20.685  16.177  1.00  0.00     0.083 C
HETATM    7  C17 UNL     1      13.482  20.502  15.221  1.00  0.00     0.190 C
HETATM    8  O5  UNL     1      14.589  19.951  15.865  1.00  0.00    -0.369 OA
HETATM    9  C18 UNL     1      15.155  21.004  16.590  1.00  0.00     0.171 C
HETATM   10  C19 UNL     1      14.902  22.299  15.903  1.00  0.00     0.172 C
HETATM   11  C26 UNL     1      14.003  21.844  14.757  1.00  0.00     0.089 C
ENDROOT
BRANCH  10  12
HETATM   12  O6  UNL     1      16.132  22.818  15.372  1.00  0.00    -0.297 OA
BRANCH  12  13
HETATM   13  C20 UNL     1      17.359  22.760  15.947  1.00  0.00     0.267 C
HETATM   14  O7  UNL     1      17.879  21.646  16.194  1.00  0.00    -0.264 OA
BRANCH  13  15
HETATM   15  C21 UNL     1      18.146  23.979  16.311  1.00  0.00     0.037 C
HETATM   16  C22 UNL     1      18.228  24.080  17.814  1.00  0.00     0.025 C
HETATM   17  C23 UNL     1      17.431  25.237  15.826  1.00  0.00     0.025 C
HETATM   18  C24 UNL     1      19.536  23.948  15.744  1.00  0.00     0.025 C
ENDBRANCH  13  15
ENDBRANCH  12  13
ENDBRANCH  10  12
BRANCH  10  19
HETATM   19  C25 UNL     1      14.280  23.376  16.686  1.00  0.00     0.175 C
HETATM   20  N2  UNL     1      14.749  23.783  17.806  1.00  0.00    -0.248 N
ATOM     21  H2  UNL     1      15.593  23.334  18.164  1.00  0.00     0.196 HD
BRANCH  19  22
HETATM   22  O8  UNL     1      13.110  23.976  16.155  1.00  0.00    -0.346 OA
ATOM     23  H8  UNL     1      12.338  23.428  16.070  1.00  0.00     0.219 HD
ENDBRANCH  19  22
BRANCH  20  24
HETATM   24  O9  UNL     1      14.194  24.771  18.541  1.00  0.00    -0.288 OA
ATOM     25  H9  UNL     1      13.450  24.648  19.119  1.00  0.00     0.244 HD
ENDBRANCH  20  24
ENDBRANCH  10  19
BRANCH  11  26
HETATM   26  C27 UNL     1      14.670  21.675  13.474  1.00  0.00    -0.026 C
HETATM   27  C28 UNL     1      14.204  22.110  12.322  1.00  0.00     0.007 C
ENDBRANCH  11  26
BRANCH   6  28
HETATM   28  O1  UNL     1      11.140  20.752  15.584  1.00  0.00    -0.280 OA
BRANCH  28  29
HETATM   29  C10 UNL     1      10.166  19.783  15.699  1.00  0.00     0.275 C
HETATM   30  O2  UNL     1       8.963  20.151  15.634  1.00  0.00    -0.264 OA
BRANCH  29  31
HETATM   31  C11 UNL     1      10.484  18.341  15.895  1.00  0.00     0.220 C
BRANCH  31  32
HETATM   32  S1  UNL     1      10.182  17.422  14.386  1.00  0.00     0.025 S
HETATM   33  O3  UNL     1       8.629  16.786  14.432  1.00  0.00    -0.258 OA
BRANCH  32  34
HETATM   34  C12 UNL     1      10.338  18.598  13.042  1.00  0.00     0.129 C
BRANCH  34  35
HETATM   35  C13 UNL     1      11.632  18.266  12.327  1.00  0.00     0.137 C
BRANCH  35  36
HETATM   36  N1  UNL     1      11.430  17.384  11.200  1.00  0.00    -0.356 N
HETATM   37  C14 UNL     1      10.431  17.627  10.193  1.00  0.00     0.152 C
HETATM   38  C15 UNL     1      12.252  16.233  11.086  1.00  0.00     0.215 C
HETATM   39  C16 UNL     1      12.110  15.271   9.954  1.00  0.00     0.117 C
HETATM   40  O4  UNL     1      13.131  15.990  11.943  1.00  0.00    -0.274 OA
ENDBRANCH  35  36
ENDBRANCH  34  35
ENDBRANCH  32  34
ENDBRANCH  31  32
ENDBRANCH  29  31
ENDBRANCH  28  29
ENDBRANCH   6  28
BRANCH   1  41
HETATM   41  C3  UNL     1      13.000  18.260  18.581  1.00  0.00     0.031 C
BRANCH  41  42
HETATM   42  C2  UNL     1      12.356  17.628  19.792  1.00  0.00    -0.037 C
HETATM   43  C1  UNL     1      12.359  18.243  20.967  1.00  0.00     0.007 C
ENDBRANCH  41  42
ENDBRANCH   1  41
TORSDOF 16
ENDMDL