MODEL 5
REMARK VINA RESULT: -8.067803477      1.516      2.068
REMARK  12 active torsions:
REMARK  status: ('A' for Active; 'I' for Inactive)
REMARK    1  A    between atoms: C2_2  and  C3_3
REMARK    2  A    between atoms: C3_3  and  C4_4
REMARK    3  A    between atoms: C4_4  and  O1_5
REMARK    4  A    between atoms: O1_5  and  C5_6
REMARK    5  A    between atoms: C8_11  and  N2_12
REMARK       I    between atoms: N3_15  and  C11_16
REMARK    6  A    between atoms: C11_16  and  C12_18
REMARK    7  A    between atoms: C12_18  and  N4_19
REMARK    8  A    between atoms: C18_30  and  N7_31
REMARK    9  A    between atoms: N7_31  and  C19_33
REMARK   10  A    between atoms: C21_35  and  O3_36
REMARK   11  A    between atoms: C24_39  and  O4_40
REMARK   12  A    between atoms: C29_45  and  O5_46
ROOT
HETATM    1  C5  UNL     1      24.417  24.797  21.358  1.00  0.00     0.104 A
HETATM    2  C6  UNL     1      23.253  24.081  21.053  1.00  0.00     0.070 A
HETATM    3  C7  UNL     1      22.271  24.643  20.272  1.00  0.00     0.066 A
HETATM    4  N1  UNL     1      21.161  23.951  19.988  1.00  0.00    -0.191 N
ATOM      5  H1  UNL     1      21.060  23.006  20.358  1.00  0.00     0.184 HD
HETATM    6  C8  UNL     1      20.164  24.468  19.222  1.00  0.00     0.682 A
HETATM    7  N6  UNL     1      20.336  25.712  18.757  1.00  0.00    -0.176 N
ATOM      8  H6  UNL     1      19.602  26.121  18.180  1.00  0.00     0.186 HD
HETATM    9  C18 UNL     1      21.450  26.460  19.020  1.00  0.00     0.134 A
HETATM   10  C27 UNL     1      22.457  25.917  19.802  1.00  0.00     0.039 A
HETATM   11  C28 UNL     1      23.607  26.649  20.092  1.00  0.00     0.057 A
HETATM   12  C29 UNL     1      24.599  26.077  20.883  1.00  0.00     0.102 A
ENDROOT
BRANCH   6  13
HETATM   13  N2  UNL     1      18.994  23.724  18.930  1.00  0.00    -0.214 N
HETATM   14  C9  UNL     1      18.923  22.368  19.514  1.00  0.00     0.161 C
HETATM   15  C10 UNL     1      17.582  22.129  20.140  1.00  0.00     0.146 C
HETATM   16  N3  UNL     1      16.561  22.419  19.143  1.00  0.00    -0.348 N
HETATM   17  C11 UNL     1      15.624  21.430  18.729  1.00  0.00     0.248 C
HETATM   18  C16 UNL     1      16.551  23.762  18.604  1.00  0.00     0.146 C
HETATM   19  O2  UNL     1      15.711  20.298  19.254  1.00  0.00    -0.271 OA
HETATM   20  C17 UNL     1      17.913  24.229  18.124  1.00  0.00     0.161 C
BRANCH  17  21
HETATM   21  C12 UNL     1      14.627  21.810  17.719  1.00  0.00     0.377 C
BRANCH  21  22
HETATM   22  N4  UNL     1      14.794  21.185  16.451  1.00  0.00     0.124 N
HETATM   23  C13 UNL     1      15.673  21.851  15.553  1.00  0.00     0.302 A
HETATM   24  C14 UNL     1      14.897  21.980  14.277  1.00  0.00     0.264 A
HETATM   25  N5  UNL     1      13.653  21.299  14.456  1.00  0.00    -0.047 N
HETATM   26  C15 UNL     1      13.616  20.774  15.789  1.00  0.00     0.503 A
ATOM     27  H52 UNL     1      12.847  21.889  14.244  1.00  0.00     0.279 HD
ATOM     28  H51 UNL     1      13.490  20.584  13.747  1.00  0.00     0.279 HD
ENDBRANCH  21  22
ENDBRANCH  17  21
ENDBRANCH   6  13
BRANCH   9  29
HETATM   29  N7  UNL     1      21.580  27.654  18.558  1.00  0.00    -0.341 N
ATOM     30  H7  UNL     1      21.583  28.459  19.185  1.00  0.00     0.167 HD
BRANCH  29  31
HETATM   31  C19 UNL     1      21.720  27.826  17.158  1.00  0.00     0.038 A
HETATM   32  C20 UNL     1      20.666  27.783  16.291  1.00  0.00     0.066 A
HETATM   33  C21 UNL     1      20.894  27.964  14.926  1.00  0.00     0.073 A
HETATM   34  C23 UNL     1      22.162  28.184  14.418  1.00  0.00     0.073 A
HETATM   35  C24 UNL     1      23.217  28.226  15.303  1.00  0.00     0.073 A
HETATM   36  C26 UNL     1      22.996  28.046  16.665  1.00  0.00     0.066 A
BRANCH  33  37
HETATM   37  O3  UNL     1      19.806  27.913  14.092  1.00  0.00    -0.356 OA
HETATM   38  C22 UNL     1      18.773  26.966  14.158  1.00  0.00     0.210 C
ENDBRANCH  33  37
BRANCH  35  39
HETATM   39  O4  UNL     1      24.522  28.440  14.909  1.00  0.00    -0.356 OA
HETATM   40  C25 UNL     1      25.512  29.078  15.667  1.00  0.00     0.210 C
ENDBRANCH  35  39
ENDBRANCH  29  31
ENDBRANCH   9  29
BRANCH   1  41
HETATM   41  O1  UNL     1      25.414  24.234  22.147  1.00  0.00    -0.348 OA
BRANCH  41  42
HETATM   42  C4  UNL     1      26.148  23.093  21.726  1.00  0.00     0.176 C
BRANCH  42  43
HETATM   43  C3  UNL     1      27.082  23.409  20.599  1.00  0.00     0.026 C
BRANCH  43  44
HETATM   44  C2  UNL     1      26.609  22.653  19.372  1.00  0.00    -0.002 C
HETATM   45  C1  UNL     1      26.121  23.671  18.370  1.00  0.00     0.005 C
ENDBRANCH  43  44
ENDBRANCH  42  43
ENDBRANCH  41  42
ENDBRANCH   1  41
BRANCH  12  46
HETATM   46  O5  UNL     1      25.774  26.769  21.204  1.00  0.00    -0.353 OA
HETATM   47  C30 UNL     1      26.656  27.069  20.135  1.00  0.00     0.210 C
ENDBRANCH  12  46
TORSDOF 12
ENDMDL