MODEL 4
REMARK VINA RESULT: -9.028491464      2.440     10.904
REMARK  12 active torsions:
REMARK  status: ('A' for Active; 'I' for Inactive)
REMARK    1  A    between atoms: N1_2  and  C2_3
REMARK    2  A    between atoms: N1_2  and  C6_7
REMARK    3  A    between atoms: C2_3  and  C3_4
REMARK    4  A    between atoms: C7_10  and  N3_11
REMARK    5  A    between atoms: C10_14  and  O1_15
REMARK    6  A    between atoms: O1_15  and  C11_16
REMARK    7  A    between atoms: C11_16  and  C12_17
REMARK    8  A    between atoms: C12_17  and  N4_18
REMARK    9  A    between atoms: C18_26  and  N6_27
REMARK   10  A    between atoms: C22_31  and  C23_32
REMARK       I    between atoms: C23_32  and  N7_34
REMARK   11  A    between atoms: N7_34  and  C24_35
REMARK   12  A    between atoms: C27_38  and  N8_39
ROOT
HETATM    1  C6  UNL     1      15.710  21.728  16.405  1.00  0.00     0.709 A
HETATM    2  N2  UNL     1      14.864  20.827  16.911  1.00  0.00    -0.021 N
ATOM      3  H2  UNL     1      14.147  20.427  16.307  1.00  0.00     0.203 HD
HETATM    4  C7  UNL     1      14.930  20.429  18.204  1.00  0.00     0.709 A
HETATM    5  N5  UNL     1      15.909  20.997  18.960  1.00  0.00    -0.021 N
ATOM      6  H5  UNL     1      15.975  20.710  19.937  1.00  0.00     0.203 HD
HETATM    7  C18 UNL     1      16.787  21.899  18.524  1.00  0.00     0.710 A
HETATM    8  N9  UNL     1      16.653  22.249  17.208  1.00  0.00    -0.021 N
ATOM      9  H9  UNL     1      17.299  22.935  16.818  1.00  0.00     0.203 HD
ENDROOT
BRANCH   7  10
HETATM   10  N6  UNL     1      17.803  22.461  19.320  1.00  0.00    -0.206 N
HETATM   11  C19 UNL     1      17.822  22.565  20.756  1.00  0.00     0.102 C
HETATM   12  C20 UNL     1      17.799  24.024  21.194  1.00  0.00     0.027 C
HETATM   13  C31 UNL     1      19.220  22.008  21.038  1.00  0.00     0.028 C
HETATM   14  C21 UNL     1      19.045  24.676  20.667  1.00  0.00     0.019 C
HETATM   15  C22 UNL     1      19.109  24.516  19.182  1.00  0.00     0.116 C
HETATM   16  C29 UNL     1      19.037  23.033  18.877  1.00  0.00     0.116 C
HETATM   17  C30 UNL     1      20.017  22.280  19.798  1.00  0.00     0.029 C
BRANCH  15  18
HETATM   18  C23 UNL     1      20.446  25.051  18.670  1.00  0.00     0.293 C
HETATM   19  O2  UNL     1      21.396  24.953  19.482  1.00  0.00    -0.257 OA
HETATM   20  N7  UNL     1      20.414  25.568  17.384  1.00  0.00    -0.409 NA
BRANCH  20  21
HETATM   21  C24 UNL     1      20.384  26.057  16.169  1.00  0.00     0.168 C
HETATM   22  C25 UNL     1      19.139  25.777  15.267  1.00  0.00     0.041 C
HETATM   23  C26 UNL     1      19.655  26.450  13.987  1.00  0.00     0.036 C
HETATM   24  C27 UNL     1      20.239  27.739  14.496  1.00  0.00     0.186 C
HETATM   25  C28 UNL     1      20.387  27.582  15.998  1.00  0.00     0.072 C
BRANCH  24  26
HETATM   26  N8  UNL     1      21.494  28.053  13.884  1.00  0.00    -0.075 N
ATOM     27  H83 UNL     1      21.429  28.908  13.332  1.00  0.00     0.274 HD
ATOM     28  H82 UNL     1      22.175  28.358  14.579  1.00  0.00     0.274 HD
ATOM     29  H81 UNL     1      21.860  27.282  13.325  1.00  0.00     0.274 HD
ENDBRANCH  24  26
ENDBRANCH  20  21
ENDBRANCH  15  18
ENDBRANCH   7  10
BRANCH   4  30
HETATM   30  N3  UNL     1      14.057  19.462  18.745  1.00  0.00    -0.214 N
HETATM   31  C8  UNL     1      14.305  18.384  19.670  1.00  0.00     0.144 C
HETATM   32  C9  UNL     1      13.091  18.472  20.606  1.00  0.00     0.054 C
HETATM   33  C10 UNL     1      12.002  19.146  19.829  1.00  0.00     0.142 C
HETATM   34  C17 UNL     1      12.622  19.353  18.448  1.00  0.00     0.173 C
BRANCH  33  35
HETATM   35  O1  UNL     1      10.886  18.344  19.776  1.00  0.00    -0.379 OA
BRANCH  35  36
HETATM   36  C11 UNL     1      10.613  17.915  18.476  1.00  0.00     0.212 C
BRANCH  36  37
HETATM   37  C12 UNL     1      10.861  16.422  18.412  1.00  0.00     0.089 C
BRANCH  37  38
HETATM   38  N4  UNL     1      10.650  15.817  17.184  1.00  0.00    -0.372 N
HETATM   39  C13 UNL     1      10.559  16.590  16.003  1.00  0.00     0.127 C
HETATM   40  C14 UNL     1      10.402  15.562  14.871  1.00  0.00     0.025 C
HETATM   41  C15 UNL     1      10.372  14.233  15.560  1.00  0.00     0.046 C
HETATM   42  C16 UNL     1      10.144  14.528  17.034  1.00  0.00     0.063 C
ENDBRANCH  37  38
ENDBRANCH  36  37
ENDBRANCH  35  36
ENDBRANCH  33  35
ENDBRANCH   4  30
BRANCH   1  43
HETATM   43  N1  UNL     1      15.637  22.158  15.055  1.00  0.00    -0.221 N
HETATM   44  C1  UNL     1      16.420  23.325  14.602  1.00  0.00     0.168 C
BRANCH  43  45
HETATM   45  C2  UNL     1      14.824  21.530  14.052  1.00  0.00     0.145 C
BRANCH  45  46
HETATM   46  C3  UNL     1      13.623  22.368  13.655  1.00  0.00     0.004 A
HETATM   47  C4  UNL     1      12.311  21.607  13.815  1.00  0.00     0.007 A
HETATM   48  C5  UNL     1      12.642  22.809  14.651  1.00  0.00     0.007 A
ENDBRANCH  45  46
ENDBRANCH  43  45
ENDBRANCH   1  43
TORSDOF 12
ENDMDL