MODEL 1
REMARK VINA RESULT: -9.593906196      0.000      0.000
REMARK  15 active torsions:
REMARK  status: ('A' for Active; 'I' for Inactive)
REMARK    1  A    between atoms: C2_2  and  C3_3
REMARK    2  A    between atoms: C4_4  and  C5_5
REMARK    3  A    between atoms: C8_8  and  O1_9
REMARK    4  A    between atoms: O1_9  and  C9_10
REMARK    5  A    between atoms: C9_10  and  C10_11
REMARK    6  A    between atoms: C10_11  and  O2_12
REMARK    7  A    between atoms: O2_12  and  C11_13
REMARK    8  A    between atoms: C11_13  and  C12_14
REMARK    9  A    between atoms: C12_14  and  N1_15
REMARK   10  A    between atoms: N1_15  and  C13_17
REMARK   11  A    between atoms: C14_20  and  N3_21
REMARK   12  A    between atoms: C20_30  and  N6_31
REMARK   13  A    between atoms: N6_31  and  C21_33
REMARK   14  A    between atoms: C24_36  and  O3_37
REMARK   15  A    between atoms: O3_37  and  C25_38
ROOT
HETATM    1  C21 UNL     1      20.317  24.796  20.428  1.00  0.00     0.050 A
HETATM    2  C22 UNL     1      20.828  23.676  19.800  1.00  0.00     0.033 A
HETATM    3  C23 UNL     1      22.179  23.409  19.848  1.00  0.00     0.040 A
HETATM    4  C24 UNL     1      23.053  24.228  20.507  1.00  0.00     0.089 A
HETATM    5  C27 UNL     1      22.561  25.360  21.146  1.00  0.00     0.080 A
HETATM    6  C28 UNL     1      23.467  26.234  21.848  1.00  0.00     0.102 C
HETATM    7  N7  UNL     1      24.210  26.923  22.420  1.00  0.00    -0.191 NA
HETATM    8  C29 UNL     1      21.213  25.614  21.090  1.00  0.00     0.055 A
ENDROOT
BRANCH   4   9
HETATM    9  O3  UNL     1      24.417  24.009  20.589  1.00  0.00    -0.350 OA
BRANCH   9  10
HETATM   10  C25 UNL     1      25.311  23.968  19.522  1.00  0.00     0.171 C
HETATM   11  C26 UNL     1      25.648  22.567  19.072  1.00  0.00     0.034 C
ENDBRANCH   9  10
ENDBRANCH   4   9
BRANCH   1  12
HETATM   12  N6  UNL     1      18.942  25.088  20.404  1.00  0.00    -0.191 N
ATOM     13  H6  UNL     1      18.481  25.346  21.276  1.00  0.00     0.184 HD
BRANCH  12  14
HETATM   14  C20 UNL     1      18.244  25.043  19.331  1.00  0.00     0.711 A
HETATM   15  N5  UNL     1      18.840  25.187  18.106  1.00  0.00    -0.021 N
HETATM   16  C14 UNL     1      18.115  25.148  16.979  1.00  0.00     0.709 A
ATOM     17  H5  UNL     1      19.848  25.326  18.051  1.00  0.00     0.203 HD
HETATM   18  N2  UNL     1      16.795  24.965  17.076  1.00  0.00    -0.021 N
HETATM   19  C13 UNL     1      16.162  24.819  18.237  1.00  0.00     0.707 A
ATOM     20  H2  UNL     1      16.246  24.935  16.217  1.00  0.00     0.203 HD
HETATM   21  N8  UNL     1      16.918  24.862  19.375  1.00  0.00    -0.021 N
ATOM     22  H8  UNL     1      16.461  24.752  20.280  1.00  0.00     0.203 HD
BRANCH  16  23
HETATM   23  N3  UNL     1      18.719  25.297  15.721  1.00  0.00    -0.213 N
HETATM   24  C15 UNL     1      18.163  26.259  14.778  1.00  0.00     0.171 C
HETATM   25  C16 UNL     1      19.165  27.388  14.600  1.00  0.00     0.292 C
HETATM   26  N4  UNL     1      20.517  26.923  14.821  1.00  0.00     0.087 N
HETATM   27  C17 UNL     1      21.514  27.792  14.291  1.00  0.00     0.310 C
HETATM   28  C18 UNL     1      20.712  25.538  14.462  1.00  0.00     0.292 C
HETATM   29  C19 UNL     1      19.884  24.573  15.250  1.00  0.00     0.171 C
ENDBRANCH  16  23
BRANCH  19  30
HETATM   30  N1  UNL     1      14.900  24.649  18.364  1.00  0.00    -0.223 N
ATOM     31  H1  UNL     1      14.349  25.314  18.907  1.00  0.00     0.177 HD
BRANCH  30  32
HETATM   32  C12 UNL     1      14.256  23.519  17.739  1.00  0.00     0.164 C
BRANCH  32  33
HETATM   33  C11 UNL     1      14.834  22.252  18.377  1.00  0.00     0.188 C
BRANCH  33  34
HETATM   34  O2  UNL     1      13.859  21.651  19.132  1.00  0.00    -0.387 OA
BRANCH  34  35
HETATM   35  C10 UNL     1      14.011  20.279  19.242  1.00  0.00     0.194 C
BRANCH  35  36
HETATM   36  C9  UNL     1      12.922  19.484  18.588  1.00  0.00     0.201 C
BRANCH  36  37
HETATM   37  O1  UNL     1      12.773  19.600  17.240  1.00  0.00    -0.349 OA
BRANCH  37  38
HETATM   38  C8  UNL     1      11.818  20.154  16.437  1.00  0.00     0.074 A
HETATM   39  C7  UNL     1      10.475  20.034  16.702  1.00  0.00     0.039 A
HETATM   40  C6  UNL     1       9.556  20.633  15.832  1.00  0.00     0.023 A
HETATM   41  C5  UNL     1       9.933  21.343  14.714  1.00  0.00     0.018 A
HETATM   42  C32 UNL     1      11.286  21.443  14.481  1.00  0.00     0.030 A
HETATM   43  C30 UNL     1      12.223  20.872  15.307  1.00  0.00    -0.027 A
HETATM   44  C31 UNL     1      13.681  20.988  15.049  1.00  0.00     0.051 C
BRANCH  41  45
HETATM   45  C4  UNL     1       8.951  21.941  13.843  1.00  0.00    -0.067 C
HETATM   46  C3  UNL     1       8.116  22.436  13.130  1.00  0.00    -0.101 C
BRANCH  46  47
HETATM   47  C2  UNL     1       7.092  23.016  12.261  1.00  0.00     0.090 C
HETATM   48  C1  UNL     1       6.782  22.142  11.075  1.00  0.00     0.018 C
ENDBRANCH  46  47
ENDBRANCH  41  45
ENDBRANCH  37  38
ENDBRANCH  36  37
ENDBRANCH  35  36
ENDBRANCH  34  35
ENDBRANCH  33  34
ENDBRANCH  32  33
ENDBRANCH  30  32
ENDBRANCH  19  30
ENDBRANCH  12  14
ENDBRANCH   1  12
TORSDOF 15
ENDMDL