MODEL 4
REMARK VINA RESULT: -6.592988517      3.217     11.147
REMARK  12 active torsions:
REMARK  status: ('A' for Active; 'I' for Inactive)
REMARK    1  A    between atoms: O1_2  and  C2_3
REMARK    2  A    between atoms: C2_3  and  C3_4
REMARK    3  A    between atoms: C3_4  and  C4_5
REMARK    4  A    between atoms: C4_5  and  N1_6
REMARK    5  A    between atoms: C9_11  and  C10_12
REMARK    6  A    between atoms: C13_15  and  O2_16
REMARK    7  A    between atoms: O2_16  and  C14_17
REMARK    8  A    between atoms: C14_17  and  C15_18
REMARK    9  A    between atoms: C15_18  and  N2_19
REMARK   10  A    between atoms: N4_30  and  C22_31
REMARK   11  A    between atoms: C22_31  and  C23_32
REMARK   12  A    between atoms: C30_39  and  O5_40
ROOT
HETATM    1  N1  UNL     1      18.780  32.414  15.860  1.00  0.00    -0.291 N
HETATM    2  C5  UNL     1      19.786  33.259  15.880  1.00  0.00     0.062 A
HETATM    3  C6  UNL     1      21.058  33.070  15.295  1.00  0.00    -0.014 A
HETATM    4  C7  UNL     1      21.252  31.927  14.638  1.00  0.00    -0.036 A
HETATM    5  C8  UNL     1      22.586  31.686  13.993  1.00  0.00     0.050 C
HETATM    6  C9  UNL     1      20.251  30.971  14.542  1.00  0.00     0.051 A
HETATM    7  C19 UNL     1      19.060  31.251  15.157  1.00  0.00     0.263 A
HETATM    8  O3  UNL     1      18.105  30.434  15.119  1.00  0.00    -0.267 OA
HETATM    9  C20 UNL     1      22.253  33.955  15.558  1.00  0.00     0.145 C
HETATM   10  C21 UNL     1      22.376  34.283  17.003  1.00  0.00     0.232 C
HETATM   11  O4  UNL     1      23.519  34.098  17.456  1.00  0.00    -0.272 OA
HETATM   12  N4  UNL     1      21.464  34.776  18.030  1.00  0.00    -0.290 N
HETATM   13  C26 UNL     1      20.097  35.054  17.680  1.00  0.00     0.123 A
HETATM   14  C27 UNL     1      19.414  34.477  16.572  1.00  0.00     0.035 A
HETATM   15  C28 UNL     1      18.208  34.896  16.130  1.00  0.00     0.004 A
HETATM   16  C29 UNL     1      17.871  34.524  14.730  1.00  0.00     0.054 C
HETATM   17  C30 UNL     1      17.656  35.926  16.868  1.00  0.00     0.149 A
HETATM   18  N5  UNL     1      18.276  36.482  17.932  1.00  0.00    -0.302 N
ATOM     19  H5  UNL     1      17.822  37.240  18.442  1.00  0.00     0.171 HD
HETATM   20  C31 UNL     1      19.480  36.049  18.324  1.00  0.00     0.275 A
HETATM   21  O6  UNL     1      20.119  36.517  19.297  1.00  0.00    -0.266 OA
ENDROOT
BRANCH   6  22
HETATM   22  C10 UNL     1      20.480  29.731  13.809  1.00  0.00    -0.004 A
HETATM   23  C11 UNL     1      20.053  29.592  12.496  1.00  0.00     0.018 A
HETATM   24  C12 UNL     1      20.298  28.403  11.854  1.00  0.00     0.057 A
HETATM   25  C13 UNL     1      20.956  27.407  12.547  1.00  0.00     0.141 A
HETATM   26  N3  UNL     1      21.360  27.560  13.812  1.00  0.00    -0.346 N
HETATM   27  C18 UNL     1      21.133  28.707  14.458  1.00  0.00     0.102 A
ATOM     28  H3  UNL     1      21.844  26.798  14.287  1.00  0.00     0.167 HD
BRANCH  25  29
HETATM   29  O2  UNL     1      21.219  26.179  11.909  1.00  0.00    -0.334 OA
BRANCH  29  30
HETATM   30  C14 UNL     1      20.297  25.677  10.987  1.00  0.00     0.207 C
BRANCH  30  31
HETATM   31  C15 UNL     1      19.745  24.379  11.524  1.00  0.00     0.298 C
BRANCH  31  32
HETATM   32  N2  UNL     1      18.425  24.622  12.047  1.00  0.00     0.082 N
HETATM   33  C16 UNL     1      17.672  23.387  11.888  1.00  0.00     0.309 C
HETATM   34  C17 UNL     1      17.803  25.640  11.222  1.00  0.00     0.309 C
ENDBRANCH  31  32
ENDBRANCH  30  31
ENDBRANCH  29  30
ENDBRANCH  25  29
ENDBRANCH   6  22
BRANCH   1  35
HETATM   35  C4  UNL     1      17.640  32.490  16.687  1.00  0.00     0.075 C
BRANCH  35  36
HETATM   36  C3  UNL     1      16.361  31.801  16.673  1.00  0.00     0.071 C
BRANCH  36  37
HETATM   37  C2  UNL     1      15.313  32.946  16.693  1.00  0.00     0.172 C
BRANCH  37  38
HETATM   38  O1  UNL     1      15.382  33.662  17.834  1.00  0.00    -0.396 OA
HETATM   39  C1  UNL     1      14.574  34.749  17.991  1.00  0.00     0.201 C
ENDBRANCH  37  38
ENDBRANCH  36  37
ENDBRANCH  35  36
ENDBRANCH   1  35
BRANCH  12  40
HETATM   40  C22 UNL     1      21.798  35.010  19.354  1.00  0.00     0.078 C
BRANCH  40  41
HETATM   41  C23 UNL     1      23.129  35.681  19.633  1.00  0.00     0.025 A
HETATM   42  C24 UNL     1      23.320  37.084  19.976  1.00  0.00     0.010 A
HETATM   43  C25 UNL     1      23.570  36.019  20.980  1.00  0.00     0.010 A
ENDBRANCH  40  41
ENDBRANCH  12  40
BRANCH  17  44
HETATM   44  O5  UNL     1      16.397  36.372  16.441  1.00  0.00    -0.346 OA
ATOM     45  H5  UNL     1      16.175  37.265  16.678  1.00  0.00     0.219 HD
ENDBRANCH  17  44
TORSDOF 12
ENDMDL