MODEL 5
REMARK VINA RESULT: -8.746385313      4.042     14.052
REMARK  11 active torsions:
REMARK  status: ('A' for Active; 'I' for Inactive)
REMARK    1  A    between atoms: O1_2  and  C2_3
REMARK    2  A    between atoms: C2_3  and  C3_4
REMARK    3  A    between atoms: C3_4  and  O2_5
REMARK    4  A    between atoms: O2_5  and  C4_6
REMARK    5  A    between atoms: C7_9  and  N1_10
REMARK    6  A    between atoms: C11_17  and  C12_18
REMARK    7  A    between atoms: C14_20  and  N3_21
REMARK       I    between atoms: N4_24  and  C17_25
REMARK    8  A    between atoms: C17_25  and  C18_27
REMARK    9  A    between atoms: C18_27  and  C19_28
REMARK   10  A    between atoms: C19_28  and  C20_29
REMARK   11  A    between atoms: C20_29  and  N5_30
ROOT
HETATM    1  N1  UNL     1      18.255  32.894  15.363  1.00  0.00    -0.342 N
ATOM      2  H1  UNL     1      17.787  33.039  14.468  1.00  0.00     0.167 HD
HETATM    3  C8  UNL     1      18.826  31.761  15.611  1.00  0.00     0.108 A
HETATM    4  C9  UNL     1      19.458  31.558  16.815  1.00  0.00     0.065 A
HETATM    5  C10 UNL     1      20.056  30.345  17.056  1.00  0.00     0.093 A
HETATM    6  N2  UNL     1      20.008  29.385  16.108  1.00  0.00    -0.350 N
ATOM      7  H2  UNL     1      20.452  28.485  16.290  1.00  0.00     0.166 HD
HETATM    8  C11 UNL     1      19.386  29.586  14.922  1.00  0.00     0.135 A
HETATM    9  N8  UNL     1      18.802  30.768  14.686  1.00  0.00    -0.327 N
ATOM     10  H8  UNL     1      18.332  30.926  13.795  1.00  0.00     0.169 HD
ENDROOT
BRANCH   8  11
HETATM   11  C12 UNL     1      19.384  28.484  13.951  1.00  0.00     0.095 A
HETATM   12  C13 UNL     1      18.263  28.034  13.287  1.00  0.00     0.084 A
HETATM   13  C14 UNL     1      18.633  26.992  12.460  1.00  0.00     0.120 A
HETATM   14  N6  UNL     1      19.955  26.851  12.651  1.00  0.00    -0.285 N
HETATM   15  N7  UNL     1      20.389  27.732  13.530  1.00  0.00    -0.295 N
ATOM     16  H6  UNL     1      20.540  26.160  12.182  1.00  0.00     0.188 HD
ATOM     17  H7  UNL     1      21.357  27.821  13.841  1.00  0.00     0.187 HD
BRANCH  13  18
HETATM   18  N3  UNL     1      17.864  26.199  11.579  1.00  0.00    -0.363 N
HETATM   19  C15 UNL     1      17.022  26.810  10.575  1.00  0.00     0.144 C
HETATM   20  C16 UNL     1      17.286  26.005   9.293  1.00  0.00     0.145 C
HETATM   21  N4  UNL     1      16.775  24.674   9.538  1.00  0.00    -0.349 N
HETATM   22  C17 UNL     1      16.150  23.920   8.499  1.00  0.00     0.219 C
HETATM   23  C25 UNL     1      16.892  24.083  10.853  1.00  0.00     0.145 C
HETATM   24  O3  UNL     1      16.067  24.461   7.370  1.00  0.00    -0.273 OA
HETATM   25  C26 UNL     1      17.929  24.764  11.694  1.00  0.00     0.144 C
BRANCH  22  26
HETATM   26  C18 UNL     1      15.616  22.570   8.696  1.00  0.00     0.105 C
BRANCH  26  27
HETATM   27  C19 UNL     1      14.117  22.500   8.724  1.00  0.00     0.039 C
BRANCH  27  28
HETATM   28  C20 UNL     1      13.659  21.167   9.169  1.00  0.00     0.273 C
BRANCH  28  29
HETATM   29  N5  UNL     1      13.263  21.094  10.550  1.00  0.00     0.088 N
HETATM   30  C21 UNL     1      14.197  20.424  11.391  1.00  0.00     0.272 C
HETATM   31  C22 UNL     1      14.739  21.429  12.364  1.00  0.00     0.032 C
HETATM   32  C23 UNL     1      13.625  22.464  12.425  1.00  0.00     0.032 C
HETATM   33  C24 UNL     1      12.863  22.319  11.143  1.00  0.00     0.272 C
ENDBRANCH  28  29
ENDBRANCH  27  28
ENDBRANCH  26  27
ENDBRANCH  22  26
ENDBRANCH  13  18
ENDBRANCH   8  11
BRANCH   1  34
HETATM   34  C7  UNL     1      18.273  33.941  16.325  1.00  0.00     0.040 A
HETATM   35  C6  UNL     1      19.371  34.729  16.577  1.00  0.00     0.033 A
HETATM   36  C5  UNL     1      19.330  35.733  17.527  1.00  0.00     0.039 A
HETATM   37  C4  UNL     1      18.197  35.997  18.268  1.00  0.00     0.075 A
HETATM   38  C28 UNL     1      17.093  35.194  18.005  1.00  0.00    -0.016 A
HETATM   39  C27 UNL     1      17.122  34.186  17.057  1.00  0.00    -0.022 A
HETATM   40  C29 UNL     1      15.740  35.235  18.634  1.00  0.00     0.042 C
HETATM   41  C31 UNL     1      15.781  33.519  17.025  1.00  0.00     0.042 C
HETATM   42  C30 UNL     1      14.874  34.597  17.572  1.00  0.00     0.009 C
BRANCH  37  43
HETATM   43  O2  UNL     1      18.147  37.003  19.223  1.00  0.00    -0.348 OA
BRANCH  43  44
HETATM   44  C3  UNL     1      18.317  38.342  18.752  1.00  0.00     0.201 C
BRANCH  44  45
HETATM   45  C2  UNL     1      17.220  38.744  17.824  1.00  0.00     0.193 C
BRANCH  45  46
HETATM   46  O1  UNL     1      17.666  39.181  16.594  1.00  0.00    -0.394 OA
HETATM   47  C1  UNL     1      18.927  39.707  16.625  1.00  0.00     0.201 C
ENDBRANCH  45  46
ENDBRANCH  44  45
ENDBRANCH  43  44
ENDBRANCH  37  43
ENDBRANCH   1  34
TORSDOF 11
ENDMDL