MODEL 2
REMARK VINA RESULT: -9.415514933      1.932      4.661
REMARK  12 active torsions:
REMARK  status: ('A' for Active; 'I' for Inactive)
REMARK    1  A    between atoms: O1_2  and  C2_3
REMARK    2  A    between atoms: C2_3  and  C3_5
REMARK    3  A    between atoms: C3_5  and  C4_6
REMARK    4  A    between atoms: C3_5  and  N1_13
REMARK    5  A    between atoms: C4_6  and  C5_7
REMARK    6  A    between atoms: C5_7  and  C6_8
REMARK       I    between atoms: N1_13  and  C11_15
REMARK    7  A    between atoms: C11_15  and  C12_17
REMARK    8  A    between atoms: N2_21  and  C16_22
REMARK    9  A    between atoms: C16_22  and  C17_23
REMARK   10  A    between atoms: C17_23  and  C18_24
REMARK   11  A    between atoms: C21_27  and  N3_28
REMARK       I    between atoms: N3_28  and  C22_30
REMARK   12  A    between atoms: C22_30  and  C23_32
ROOT
HETATM    1  C12 UNL     1      17.979  35.201  18.133  1.00  0.00     0.314 C
HETATM    2  C13 UNL     1      17.162  36.069  19.059  1.00  0.00     0.047 C
HETATM    3  C14 UNL     1      16.255  36.890  18.188  1.00  0.00     0.033 C
HETATM    4  C15 UNL     1      16.824  36.694  16.804  1.00  0.00     0.273 C
HETATM    5  N2  UNL     1      17.501  35.439  16.808  1.00  0.00     0.102 N
ENDROOT
BRANCH   5   6
HETATM    6  C16 UNL     1      16.875  34.373  16.135  1.00  0.00     0.276 C
BRANCH   6   7
HETATM    7  C17 UNL     1      17.115  33.010  16.702  1.00  0.00     0.062 C
BRANCH   7   8
HETATM    8  C18 UNL     1      17.928  32.110  15.830  1.00  0.00     0.133 C
HETATM    9  C19 UNL     1      17.409  30.718  15.709  1.00  0.00     0.035 C
HETATM   10  C20 UNL     1      18.221  29.933  14.736  1.00  0.00     0.038 C
HETATM   11  C21 UNL     1      19.546  30.589  14.406  1.00  0.00     0.184 C
HETATM   12  C28 UNL     1      19.214  31.922  13.845  1.00  0.00     0.282 C
HETATM   13  O7  UNL     1      19.789  32.313  12.827  1.00  0.00    -0.263 OA
HETATM   14  O8  UNL     1      18.237  32.640  14.555  1.00  0.00    -0.314 OA
BRANCH  11  15
HETATM   15  N3  UNL     1      20.250  29.726  13.517  1.00  0.00    -0.347 N
HETATM   16  C22 UNL     1      21.046  28.632  14.008  1.00  0.00     0.222 C
HETATM   17  O4  UNL     1      21.097  28.468  15.258  1.00  0.00    -0.273 OA
ATOM     18  H3  UNL     1      20.189  29.887  12.512  1.00  0.00     0.163 HD
BRANCH  16  19
HETATM   19  C23 UNL     1      21.780  27.729  13.118  1.00  0.00     0.079 C
HETATM   20  C24 UNL     1      20.893  26.941  12.196  1.00  0.00     0.029 C
HETATM   21  C25 UNL     1      21.594  25.630  11.906  1.00  0.00     0.141 C
HETATM   22  S1  UNL     1      23.211  26.019  11.286  1.00  0.00     0.144 S
HETATM   23  O5  UNL     1      23.326  25.440   9.903  1.00  0.00    -0.228 OA
HETATM   24  O6  UNL     1      24.253  25.459  12.207  1.00  0.00    -0.228 OA
HETATM   25  C26 UNL     1      23.324  27.786  11.137  1.00  0.00     0.141 C
HETATM   26  C27 UNL     1      22.768  28.519  12.312  1.00  0.00     0.029 C
ENDBRANCH  16  19
ENDBRANCH  11  15
ENDBRANCH   7   8
ENDBRANCH   6   7
ENDBRANCH   5   6
BRANCH   1  27
HETATM   27  C11 UNL     1      19.379  35.745  18.180  1.00  0.00     0.252 C
HETATM   28  N1  UNL     1      20.343  35.060  18.943  1.00  0.00    -0.345 N
ATOM     29  H1  UNL     1      20.086  34.212  19.447  1.00  0.00     0.163 HD
HETATM   30  O3  UNL     1      19.719  36.786  17.566  1.00  0.00    -0.271 OA
BRANCH  28  31
HETATM   31  C3  UNL     1      21.693  35.560  19.008  1.00  0.00     0.184 C
BRANCH  31  32
HETATM   32  C2  UNL     1      22.118  35.795  20.415  1.00  0.00     0.281 C
HETATM   33  O2  UNL     1      21.439  35.269  21.331  1.00  0.00    -0.263 OA
BRANCH  32  34
HETATM   34  O1  UNL     1      23.216  36.555  20.772  1.00  0.00    -0.325 OA
HETATM   35  C1  UNL     1      24.381  36.045  21.349  1.00  0.00     0.213 C
ENDBRANCH  32  34
ENDBRANCH  31  32
BRANCH  31  36
HETATM   36  C4  UNL     1      22.601  34.534  18.368  1.00  0.00     0.036 C
BRANCH  36  37
HETATM   37  C5  UNL     1      22.722  34.862  16.899  1.00  0.00     0.007 C
BRANCH  37  38
HETATM   38  C6  UNL     1      21.917  33.907  16.045  1.00  0.00    -0.014 C
HETATM   39  C7  UNL     1      22.494  33.749  14.659  1.00  0.00     0.004 C
HETATM   40  C8  UNL     1      23.149  32.403  14.608  1.00  0.00     0.000 C
HETATM   41  C9  UNL     1      22.665  31.629  15.798  1.00  0.00     0.000 C
HETATM   42  C10 UNL     1      21.837  32.537  16.645  1.00  0.00     0.004 C
ENDBRANCH  37  38
ENDBRANCH  36  37
ENDBRANCH  31  36
ENDBRANCH  28  31
ENDBRANCH   1  27
TORSDOF 12
ENDMDL