MODEL 5
REMARK VINA RESULT: -8.621639822      1.553      2.049
REMARK  13 active torsions:
REMARK  status: ('A' for Active; 'I' for Inactive)
REMARK    1  A    between atoms: C2_2  and  C3_3
REMARK    2  A    between atoms: C2_2  and  C6_9
REMARK    3  A    between atoms: C3_3  and  O2_5
REMARK    4  A    between atoms: O2_5  and  C4_6
REMARK    5  A    between atoms: C6_9  and  C7_10
REMARK    6  A    between atoms: C6_9  and  O4_13
REMARK    7  A    between atoms: C7_10  and  C8_11
REMARK    8  A    between atoms: O4_13  and  C10_14
REMARK    9  A    between atoms: C10_14  and  C11_15
REMARK   10  A    between atoms: C11_15  and  C12_16
REMARK   11  A    between atoms: C11_15  and  C15_19
REMARK   12  A    between atoms: C12_16  and  C13_17
REMARK   13  A    between atoms: C18_25  and  C19_26
ROOT
HETATM    1  C15 UNL     1      21.366  36.029  17.270  1.00  0.00     0.170 C
HETATM    2  O5  UNL     1      21.370  36.037  18.661  1.00  0.00    -0.305 OA
HETATM    3  C16 UNL     1      20.284  35.697  19.459  1.00  0.00     0.332 C
HETATM    4  O6  UNL     1      20.575  35.170  20.593  1.00  0.00    -0.256 OA
HETATM    5  C17 UNL     1      18.898  35.867  19.151  1.00  0.00     0.246 C
HETATM    6  O7  UNL     1      18.137  34.844  19.303  1.00  0.00    -0.284 OA
HETATM    7  C18 UNL     1      18.210  37.084  18.675  1.00  0.00     0.164 C
HETATM    8  N1  UNL     1      18.776  38.295  19.216  1.00  0.00    -0.347 N
ATOM      9  H1  UNL     1      19.407  38.183  20.009  1.00  0.00     0.163 HD
HETATM   10  C21 UNL     1      18.561  39.597  18.782  1.00  0.00     0.240 C
HETATM   11  O8  UNL     1      18.378  40.503  19.667  1.00  0.00    -0.271 OA
HETATM   12  C22 UNL     1      18.517  40.080  17.380  1.00  0.00     0.172 C
HETATM   13  C23 UNL     1      17.051  40.466  17.127  1.00  0.00     0.042 C
HETATM   14  N2  UNL     1      19.381  41.221  17.169  1.00  0.00    -0.348 N
ATOM     15  H2  UNL     1      18.958  42.026  16.708  1.00  0.00     0.163 HD
HETATM   16  C24 UNL     1      20.722  41.351  17.519  1.00  0.00     0.225 C
HETATM   17  O9  UNL     1      21.104  42.389  18.133  1.00  0.00    -0.273 OA
HETATM   18  C25 UNL     1      21.813  40.349  17.232  1.00  0.00     0.096 C
HETATM   19  C26 UNL     1      23.004  41.205  16.746  1.00  0.00     0.024 C
HETATM   20  C27 UNL     1      21.384  39.415  16.172  1.00  0.00    -0.017 C
HETATM   21  C28 UNL     1      21.578  38.164  15.995  1.00  0.00    -0.023 C
HETATM   22  C29 UNL     1      22.296  37.118  16.743  1.00  0.00     0.038 C
HETATM   23  C30 UNL     1      23.131  37.577  17.900  1.00  0.00     0.017 C
ENDROOT
BRANCH   1  24
HETATM   24  C11 UNL     1      21.539  34.697  16.687  1.00  0.00    -0.028 C
BRANCH  24  25
HETATM   25  C10 UNL     1      20.602  33.596  16.845  1.00  0.00     0.141 C
BRANCH  25  26
HETATM   26  O4  UNL     1      19.525  33.264  16.219  1.00  0.00    -0.353 OA
BRANCH  26  27
HETATM   27  C6  UNL     1      19.197  33.370  14.922  1.00  0.00     0.166 C
BRANCH  27  28
HETATM   28  C2  UNL     1      19.326  32.069  14.192  1.00  0.00     0.037 C
HETATM   29  C1  UNL     1      18.519  31.078  14.447  1.00  0.00     0.028 C
BRANCH  28  30
HETATM   30  C3  UNL     1      20.364  31.878  13.232  1.00  0.00     0.298 C
HETATM   31  O1  UNL     1      20.320  32.279  12.033  1.00  0.00    -0.259 OA
BRANCH  30  32
HETATM   32  O2  UNL     1      21.528  31.210  13.587  1.00  0.00    -0.241 OA
BRANCH  32  33
HETATM   33  C4  UNL     1      21.771  29.886  13.301  1.00  0.00     0.262 C
HETATM   34  C5  UNL     1      21.750  28.870  14.396  1.00  0.00     0.126 C
HETATM   35  O3  UNL     1      22.006  29.567  12.114  1.00  0.00    -0.265 OA
ENDBRANCH  32  33
ENDBRANCH  30  32
ENDBRANCH  28  30
ENDBRANCH  27  28
BRANCH  27  36
HETATM   36  C7  UNL     1      17.904  34.063  14.762  1.00  0.00     0.037 C
BRANCH  36  37
HETATM   37  C8  UNL     1      17.002  34.200  15.945  1.00  0.00    -0.002 C
HETATM   38  C9  UNL     1      15.927  33.214  16.154  1.00  0.00     0.005 C
ENDBRANCH  36  37
ENDBRANCH  27  36
ENDBRANCH  26  27
ENDBRANCH  25  26
ENDBRANCH  24  25
BRANCH  24  39
HETATM   39  C12 UNL     1      22.963  34.164  16.653  1.00  0.00     0.038 C
BRANCH  39  40
HETATM   40  C13 UNL     1      23.188  32.918  15.897  1.00  0.00    -0.000 C
HETATM   41  C14 UNL     1      24.263  33.127  14.801  1.00  0.00     0.005 C
ENDBRANCH  39  40
ENDBRANCH  24  39
ENDBRANCH   1  24
BRANCH   7  42
HETATM   42  C19 UNL     1      16.745  37.066  19.147  1.00  0.00     0.029 C
HETATM   43  C20 UNL     1      15.793  37.011  17.987  1.00  0.00     0.007 C
ENDBRANCH   7  42
TORSDOF 13
ENDMDL