MODEL 2
REMARK VINA RESULT: -7.169379929      8.021     12.451
REMARK  13 active torsions:
REMARK  status: ('A' for Active; 'I' for Inactive)
REMARK    1  A    between atoms: O1_2  and  N1_3
REMARK    2  A    between atoms: C5_8  and  O3_9
REMARK    3  A    between atoms: C16_23  and  O6_24
REMARK    4  A    between atoms: O6_24  and  C17_25
REMARK    5  A    between atoms: C17_25  and  C19_27
REMARK       I    between atoms: C19_27  and  N2_29
REMARK       I    between atoms: N2_29  and  C20_31
REMARK    6  A    between atoms: C20_31  and  C21_33
REMARK    7  A    between atoms: C21_33  and  C22_34
REMARK    8  A    between atoms: C22_34  and  C23_35
REMARK    9  A    between atoms: C23_35  and  C24_36
REMARK   10  A    between atoms: C24_36  and  C25_37
REMARK   11  A    between atoms: C25_37  and  C26_38
REMARK   12  A    between atoms: C26_38  and  C27_39
REMARK   13  A    between atoms: C27_39  and  S1_40
ROOT
HETATM    1  N1  UNL     1      21.125  26.670  11.275  1.00  0.00    -0.218 N
HETATM    2  C2  UNL     1      22.105  25.696  11.532  1.00  0.00     0.244 C
HETATM    3  O2  UNL     1      23.137  25.872  12.221  1.00  0.00    -0.271 OA
HETATM    4  C3  UNL     1      21.600  24.528  10.818  1.00  0.00     0.120 C
HETATM    5  C4  UNL     1      20.063  24.647  11.099  1.00  0.00     0.027 A
HETATM    6  C5  UNL     1      19.585  23.761  12.130  1.00  0.00     0.135 A
HETATM    7  C6  UNL     1      19.341  23.469  10.727  1.00  0.00     0.043 A
HETATM    8  C7  UNL     1      18.152  23.427   9.915  1.00  0.00     0.096 C
HETATM    9  C8  UNL     1      18.292  24.199   8.603  1.00  0.00     0.137 C
HETATM   10  O4  UNL     1      18.967  23.767   7.704  1.00  0.00    -0.297 OA
HETATM   11  C9  UNL     1      17.589  25.485   8.443  1.00  0.00     0.111 C
HETATM   12  C10 UNL     1      16.974  25.964   9.720  1.00  0.00     0.135 C
HETATM   13  O5  UNL     1      16.817  25.089  10.744  1.00  0.00    -0.374 OA
HETATM   14  C11 UNL     1      16.787  23.745  10.420  1.00  0.00     0.065 C
HETATM   15  C12 UNL     1      16.259  22.864  11.498  1.00  0.00     0.046 C
HETATM   16  C13 UNL     1      15.832  23.540   9.225  1.00  0.00     0.046 C
HETATM   17  C14 UNL     1      17.680  27.162  10.190  1.00  0.00     0.042 C
HETATM   18  C15 UNL     1      18.188  28.081   9.068  1.00  0.00     0.015 C
HETATM   19  C16 UNL     1      18.790  26.920  11.228  1.00  0.00     0.161 C
HETATM   20  C29 UNL     1      19.863  26.020  10.804  1.00  0.00     0.159 C
ENDROOT
BRANCH  19  21
HETATM   21  O6  UNL     1      18.246  26.821  12.438  1.00  0.00    -0.342 OA
BRANCH  21  22
HETATM   22  C17 UNL     1      17.866  27.858  13.196  1.00  0.00     0.111 C
HETATM   23  C18 UNL     1      17.834  27.630  14.688  1.00  0.00     0.082 C
BRANCH  22  24
HETATM   24  C19 UNL     1      18.429  29.184  12.845  1.00  0.00     0.276 C
HETATM   25  O7  UNL     1      17.831  29.995  12.125  1.00  0.00    -0.265 OA
HETATM   26  N2  UNL     1      19.705  29.540  13.355  1.00  0.00    -0.292 N
HETATM   27  C20 UNL     1      20.318  30.801  13.111  1.00  0.00     0.224 C
ATOM     28  H2  UNL     1      20.207  28.859  13.924  1.00  0.00     0.172 HD
HETATM   29  O8  UNL     1      19.692  31.648  12.426  1.00  0.00    -0.273 OA
BRANCH  27  30
HETATM   30  C21 UNL     1      21.666  31.124  13.646  1.00  0.00     0.103 C
BRANCH  30  31
HETATM   31  C22 UNL     1      21.828  30.586  15.039  1.00  0.00     0.009 C
BRANCH  31  32
HETATM   32  C23 UNL     1      21.201  31.533  16.052  1.00  0.00     0.000 C
BRANCH  32  33
HETATM   33  C24 UNL     1      20.088  30.847  16.790  1.00  0.00     0.000 C
BRANCH  33  34
HETATM   34  C25 UNL     1      18.820  31.663  16.883  1.00  0.00     0.001 C
BRANCH  34  35
HETATM   35  C26 UNL     1      17.717  31.116  16.035  1.00  0.00     0.010 C
BRANCH  35  36
HETATM   36  C27 UNL     1      17.250  32.052  14.952  1.00  0.00     0.073 C
BRANCH  36  37
HETATM   37  S1  UNL     1      17.947  33.682  14.986  1.00  0.00    -0.173 SA
HETATM   38  C28 UNL     1      16.775  34.985  15.325  1.00  0.00     0.089 C
ENDBRANCH  36  37
ENDBRANCH  35  36
ENDBRANCH  34  35
ENDBRANCH  33  34
ENDBRANCH  32  33
ENDBRANCH  31  32
ENDBRANCH  30  31
ENDBRANCH  27  30
ENDBRANCH  22  24
ENDBRANCH  21  22
ENDBRANCH  19  21
BRANCH   1  39
HETATM   39  O1  UNL     1      21.254  28.025  11.416  1.00  0.00    -0.280 OA
HETATM   40  C1  UNL     1      22.568  28.422  11.177  1.00  0.00     0.238 C
ENDBRANCH   1  39
BRANCH   6  41
HETATM   41  O3  UNL     1      18.621  24.082  13.065  1.00  0.00    -0.394 OA
ATOM     42  H3  UNL     1      17.685  24.097  12.900  1.00  0.00     0.210 HD
ENDBRANCH   6  41
TORSDOF 13
ENDMDL