MODEL 2
REMARK VINA RESULT: -9.253845784      1.696      2.710
REMARK  12 active torsions:
REMARK  status: ('A' for Active; 'I' for Inactive)
REMARK    1  A    between atoms: O1_2  and  C2_3
REMARK    2  A    between atoms: C3_4  and  C4_5
REMARK    3  A    between atoms: C4_5  and  N1_6
REMARK    4  A    between atoms: N2_9  and  C7_10
REMARK    5  A    between atoms: C7_10  and  C8_11
REMARK    6  A    between atoms: C14_17  and  C15_18
REMARK    7  A    between atoms: C17_22  and  C18_23
REMARK    8  A    between atoms: C21_28  and  N5_29
REMARK    9  A    between atoms: N5_29  and  C22_31
REMARK   10  A    between atoms: C22_31  and  C23_32
REMARK   11  A    between atoms: C23_32  and  C24_33
REMARK   12  A    between atoms: C24_33  and  N6_34
ROOT
HETATM    1  C18 UNL     1      21.352  30.224  14.110  1.00  0.00     0.122 A
HETATM    2  N4  UNL     1      21.682  30.309  15.438  1.00  0.00    -0.338 N
ATOM      3  H4  UNL     1      22.013  29.530  16.007  1.00  0.00     0.167 HD
HETATM    4  C19 UNL     1      21.505  31.569  15.881  1.00  0.00     0.083 A
HETATM    5  C20 UNL     1      21.691  32.170  17.127  1.00  0.00     0.083 A
HETATM    6  C21 UNL     1      21.417  33.506  17.271  1.00  0.00     0.117 A
HETATM    7  N7  UNL     1      20.971  34.152  16.147  1.00  0.00    -0.284 N
ATOM      8  H7  UNL     1      20.757  35.147  16.221  1.00  0.00     0.188 HD
HETATM    9  N8  UNL     1      20.801  33.574  14.982  1.00  0.00    -0.282 N
ATOM     10  H8  UNL     1      20.465  34.134  14.198  1.00  0.00     0.188 HD
HETATM   11  C30 UNL     1      21.054  32.268  14.786  1.00  0.00     0.150 A
HETATM   12  N9  UNL     1      20.963  31.429  13.705  1.00  0.00    -0.320 N
HETATM   13  C31 UNL     1      20.472  31.870  12.402  1.00  0.00     0.159 C
ENDROOT
BRANCH   1  14
HETATM   14  C17 UNL     1      21.402  28.945  13.418  1.00  0.00     0.043 A
HETATM   15  C2  UNL     1      20.312  28.276  12.950  1.00  0.00     0.090 A
HETATM   16  C3  UNL     1      20.417  27.065  12.205  1.00  0.00    -0.005 A
HETATM   17  C13 UNL     1      21.683  26.599  11.980  1.00  0.00     0.028 A
HETATM   18  C14 UNL     1      22.832  27.232  12.429  1.00  0.00     0.030 A
HETATM   19  C16 UNL     1      22.662  28.384  13.134  1.00  0.00     0.034 A
BRANCH  15  20
HETATM   20  O1  UNL     1      19.034  28.708  13.144  1.00  0.00    -0.354 OA
HETATM   21  C1  UNL     1      18.270  28.708  14.316  1.00  0.00     0.210 C
ENDBRANCH  15  20
BRANCH  16  22
HETATM   22  C4  UNL     1      19.169  26.430  11.715  1.00  0.00     0.158 C
BRANCH  22  23
HETATM   23  N1  UNL     1      18.894  26.726  10.360  1.00  0.00    -0.405 N
HETATM   24  C5  UNL     1      19.545  25.951   9.367  1.00  0.00     0.147 C
HETATM   25  C6  UNL     1      18.670  24.897   8.721  1.00  0.00     0.291 C
HETATM   26  N2  UNL     1      17.416  25.462   8.268  1.00  0.00     0.091 N
HETATM   27  C11 UNL     1      16.743  25.963   9.461  1.00  0.00     0.291 C
HETATM   28  C12 UNL     1      17.533  27.097  10.069  1.00  0.00     0.147 C
BRANCH  26  29
HETATM   29  C7  UNL     1      17.692  26.503   7.327  1.00  0.00     0.276 C
BRANCH  29  30
HETATM   30  C8  UNL     1      18.070  25.954   5.962  1.00  0.00     0.006 C
HETATM   31  C9  UNL     1      19.356  26.527   5.439  1.00  0.00     0.011 C
HETATM   32  C10 UNL     1      16.957  26.275   4.992  1.00  0.00     0.011 C
ENDBRANCH  29  30
ENDBRANCH  26  29
ENDBRANCH  22  23
ENDBRANCH  16  22
BRANCH  18  33
HETATM   33  C15 UNL     1      24.145  26.654  12.138  1.00  0.00     0.265 C
HETATM   34  N3  UNL     1      24.301  25.289  11.857  1.00  0.00    -0.057 NA
HETATM   35  O2  UNL     1      25.175  27.392  12.138  1.00  0.00    -0.271 OA
ENDBRANCH  18  33
ENDBRANCH   1  14
BRANCH   6  36
HETATM   36  N5  UNL     1      21.550  34.167  18.366  1.00  0.00    -0.375 N
ATOM     37  H5  UNL     1      22.065  33.724  19.127  1.00  0.00     0.161 HD
BRANCH  36  38
HETATM   38  C22 UNL     1      21.030  35.470  18.590  1.00  0.00     0.123 C
BRANCH  38  39
HETATM   39  C23 UNL     1      19.536  35.424  18.956  1.00  0.00     0.039 C
BRANCH  39  40
HETATM   40  C24 UNL     1      18.759  36.328  18.040  1.00  0.00     0.118 C
BRANCH  40  41
HETATM   41  N6  UNL     1      17.773  35.645  17.283  1.00  0.00    -0.412 N
HETATM   42  C25 UNL     1      17.549  34.288  17.714  1.00  0.00     0.117 C
HETATM   43  C26 UNL     1      16.180  33.811  17.220  1.00  0.00     0.019 C
HETATM   44  C27 UNL     1      15.167  34.593  18.025  1.00  0.00     0.003 C
HETATM   45  C28 UNL     1      15.386  36.051  17.805  1.00  0.00     0.019 C
HETATM   46  C29 UNL     1      16.588  36.329  16.931  1.00  0.00     0.117 C
ENDBRANCH  40  41
ENDBRANCH  39  40
ENDBRANCH  38  39
ENDBRANCH  36  38
ENDBRANCH   6  36
TORSDOF 12
ENDMDL