MODEL 5
REMARK VINA RESULT: -8.699243896      2.163     10.161
REMARK  13 active torsions:
REMARK  status: ('A' for Active; 'I' for Inactive)
REMARK    1  A    between atoms: O1_2  and  C2_3
REMARK    2  A    between atoms: C2_3  and  C3_5
REMARK    3  A    between atoms: C3_5  and  C4_6
REMARK    4  A    between atoms: C4_6  and  C5_7
REMARK    5  A    between atoms: C5_7  and  N1_8
REMARK    6  A    between atoms: C5_7  and  C14_20
REMARK       I    between atoms: N1_8  and  C6_10
REMARK    7  A    between atoms: C6_10  and  C7_12
REMARK    8  A    between atoms: C7_12  and  O4_13
REMARK    9  A    between atoms: C14_20  and  O6_22
REMARK   10  A    between atoms: O6_22  and  C15_23
REMARK   11  A    between atoms: C18_26  and  N2_27
REMARK       I    between atoms: N2_27  and  C19_28
REMARK   12  A    between atoms: C19_28  and  C20_30
REMARK   13  A    between atoms: C20_30  and  N3_31
ROOT
HETATM    1  C14 UNL     1      21.348  30.105  12.735  1.00  0.00     0.306 C
HETATM    2  O5  UNL     1      21.463  31.008  12.118  1.00  0.00    -0.258 OA
ENDROOT
BRANCH   1   3
HETATM    3  C5  UNL     1      21.411  28.605  12.666  1.00  0.00     0.088 C
BRANCH   3   4
HETATM    4  C4  UNL     1      22.752  28.054  13.099  1.00  0.00     0.073 C
BRANCH   4   5
HETATM    5  C3  UNL     1      23.599  27.734  11.953  1.00  0.00     0.117 C
BRANCH   5   6
HETATM    6  C2  UNL     1      23.942  26.299  11.742  1.00  0.00     0.258 C
HETATM    7  O2  UNL     1      24.419  25.396  12.233  1.00  0.00    -0.265 OA
BRANCH   6   8
HETATM    8  O1  UNL     1      23.437  26.009  10.340  1.00  0.00    -0.326 OA
HETATM    9  C1  UNL     1      22.872  24.800  10.030  1.00  0.00     0.213 C
ENDBRANCH   6   8
ENDBRANCH   5   6
ENDBRANCH   4   5
ENDBRANCH   3   4
BRANCH   3  10
HETATM   10  N1  UNL     1      20.230  27.928  12.967  1.00  0.00    -0.323 N
HETATM   11  C6  UNL     1      19.628  27.106  11.904  1.00  0.00     0.257 C
HETATM   12  O3  UNL     1      20.162  26.844  10.888  1.00  0.00    -0.270 OA
ATOM     13  H1  UNL     1      19.799  27.999  13.889  1.00  0.00     0.169 HD
BRANCH  11  14
HETATM   14  C7  UNL     1      18.226  26.586  12.134  1.00  0.00     0.141 C
HETATM   15  C9  UNL     1      17.638  27.358  13.250  1.00  0.00     0.048 C
HETATM   16  C10 UNL     1      17.359  28.782  12.855  1.00  0.00     0.004 C
HETATM   17  C11 UNL     1      16.790  29.026  11.527  1.00  0.00     0.000 C
HETATM   18  C12 UNL     1      17.615  28.267  10.446  1.00  0.00     0.004 C
HETATM   19  C13 UNL     1      17.456  26.819  10.846  1.00  0.00     0.048 C
BRANCH  14  20
HETATM   20  O4  UNL     1      18.318  25.268  12.382  1.00  0.00    -0.375 OA
HETATM   21  C8  UNL     1      17.623  24.363  11.683  1.00  0.00     0.203 C
ENDBRANCH  14  20
ENDBRANCH  11  14
ENDBRANCH   3  10
ENDBRANCH   1   3
BRANCH   1  22
HETATM   22  O6  UNL     1      21.023  30.350  14.143  1.00  0.00    -0.310 OA
BRANCH  22  23
HETATM   23  C15 UNL     1      20.130  31.016  14.866  1.00  0.00     0.141 C
HETATM   24  C16 UNL     1      19.206  31.813  13.783  1.00  0.00     0.036 C
HETATM   25  C17 UNL     1      18.067  32.283  14.575  1.00  0.00     0.042 C
HETATM   26  C18 UNL     1      18.466  33.340  15.621  1.00  0.00     0.167 C
HETATM   27  C25 UNL     1      19.676  32.888  16.381  1.00  0.00     0.051 C
HETATM   28  C26 UNL     1      20.747  32.162  15.633  1.00  0.00    -0.011 C
HETATM   29  C27 UNL     1      21.810  31.768  16.589  1.00  0.00     0.012 C
HETATM   30  C30 UNL     1      21.383  33.195  14.713  1.00  0.00     0.012 C
HETATM   31  C28 UNL     1      22.714  32.971  16.752  1.00  0.00     0.001 C
HETATM   32  C29 UNL     1      22.598  33.702  15.448  1.00  0.00     0.001 C
BRANCH  26  33
HETATM   33  N2  UNL     1      17.475  33.700  16.394  1.00  0.00    -0.408 NA
HETATM   34  C19 UNL     1      16.421  34.072  17.212  1.00  0.00     0.315 C
HETATM   35  O7  UNL     1      15.498  33.598  17.720  1.00  0.00    -0.256 OA
BRANCH  34  36
HETATM   36  C20 UNL     1      16.574  35.653  17.461  1.00  0.00     0.390 C
BRANCH  36  37
HETATM   37  N3  UNL     1      16.956  35.931  18.780  1.00  0.00     0.102 N
HETATM   38  C21 UNL     1      16.682  37.304  19.172  1.00  0.00     0.299 C
HETATM   39  C22 UNL     1      17.761  38.256  18.642  1.00  0.00     0.198 C
HETATM   40  O8  UNL     1      19.013  37.832  18.972  1.00  0.00    -0.388 OA
HETATM   41  C23 UNL     1      19.267  36.604  18.376  1.00  0.00     0.198 C
HETATM   42  C24 UNL     1      18.308  35.593  19.053  1.00  0.00     0.299 C
ENDBRANCH  36  37
ENDBRANCH  34  36
ENDBRANCH  26  33
ENDBRANCH  22  23
ENDBRANCH   1  22
TORSDOF 13
ENDMDL