MODEL 2
REMARK VINA RESULT: -8.004141230      0.893      1.241
REMARK  14 active torsions:
REMARK  status: ('A' for Active; 'I' for Inactive)
REMARK    1  A    between atoms: C2_2  and  C3_3
REMARK    2  A    between atoms: C5_5  and  O1_6
REMARK    3  A    between atoms: C6_8  and  O2_9
REMARK    4  A    between atoms: O2_9  and  C7_10
REMARK    5  A    between atoms: C7_10  and  C8_11
REMARK    6  A    between atoms: C8_11  and  O4_13
REMARK    7  A    between atoms: O4_13  and  C9_14
REMARK    8  A    between atoms: C9_14  and  C10_15
REMARK    9  A    between atoms: C10_15  and  O5_16
REMARK   10  A    between atoms: C25_34  and  C26_35
REMARK   11  A    between atoms: C26_35  and  O8_36
REMARK   12  A    between atoms: O8_36  and  C27_37
REMARK   13  A    between atoms: C27_37  and  C28_38
REMARK   14  A    between atoms: C28_38  and  N1_39
ROOT
HETATM    1  C3  UNL     1      20.961  32.206  15.267  1.00  0.00     0.029 C
HETATM    2  C4  UNL     1      22.467  32.140  15.541  1.00  0.00     0.025 C
HETATM    3  C5  UNL     1      20.391  31.003  16.004  1.00  0.00     0.169 C
HETATM    4  C6  UNL     1      18.934  31.041  16.237  1.00  0.00     0.222 C
HETATM    5  C11 UNL     1      18.394  32.435  16.408  1.00  0.00     0.169 C
HETATM    6  O6  UNL     1      17.346  32.483  17.036  1.00  0.00    -0.294 OA
HETATM    7  C12 UNL     1      18.999  33.665  15.902  1.00  0.00     0.051 C
HETATM    8  C13 UNL     1      18.526  33.759  14.432  1.00  0.00     0.027 C
HETATM    9  C14 UNL     1      18.545  34.924  16.521  1.00  0.00     0.008 C
HETATM   10  C15 UNL     1      17.060  34.995  16.787  1.00  0.00     0.007 C
HETATM   11  C16 UNL     1      16.748  36.504  16.791  1.00  0.00     0.018 C
HETATM   12  C17 UNL     1      17.319  36.995  18.090  1.00  0.00     0.021 C
HETATM   13  C18 UNL     1      16.279  36.635  19.164  1.00  0.00     0.024 C
HETATM   14  C19 UNL     1      17.313  38.484  18.044  1.00  0.00     0.135 C
HETATM   15  O7  UNL     1      16.599  39.264  17.474  1.00  0.00    -0.297 OA
HETATM   16  C20 UNL     1      18.469  38.872  18.920  1.00  0.00     0.079 C
HETATM   17  C21 UNL     1      19.471  37.825  18.463  1.00  0.00     0.013 C
HETATM   18  C22 UNL     1      18.655  36.522  18.462  1.00  0.00     0.006 C
HETATM   19  C23 UNL     1      19.293  35.414  17.726  1.00  0.00    -0.002 C
HETATM   20  C24 UNL     1      20.682  35.769  17.200  1.00  0.00     0.039 C
HETATM   21  C25 UNL     1      21.657  34.640  17.457  1.00  0.00     0.146 C
HETATM   22  O9  UNL     1      21.044  33.469  17.144  1.00  0.00    -0.376 OA
HETATM   23  C31 UNL     1      20.498  33.516  15.866  1.00  0.00     0.152 C
ENDROOT
BRANCH   4  24
HETATM   24  O2  UNL     1      18.206  30.381  15.255  1.00  0.00    -0.366 OA
BRANCH  24  25
HETATM   25  C7  UNL     1      18.720  29.262  14.723  1.00  0.00     0.279 C
BRANCH  25  26
HETATM   26  C8  UNL     1      18.504  29.154  13.272  1.00  0.00     0.282 C
HETATM   27  O3  UNL     1      18.217  30.049  12.477  1.00  0.00    -0.263 OA
BRANCH  26  28
HETATM   28  O4  UNL     1      18.652  27.845  12.758  1.00  0.00    -0.318 OA
BRANCH  28  29
HETATM   29  C9  UNL     1      19.403  27.475  11.662  1.00  0.00     0.204 C
BRANCH  29  30
HETATM   30  C10 UNL     1      20.865  27.759  11.902  1.00  0.00     0.191 C
BRANCH  30  31
HETATM   31  O5  UNL     1      21.294  27.095  13.065  1.00  0.00    -0.399 OA
ATOM     32  H5  UNL     1      21.619  27.727  13.695  1.00  0.00     0.209 HD
ENDBRANCH  30  31
ENDBRANCH  29  30
ENDBRANCH  28  29
ENDBRANCH  26  28
ENDBRANCH  25  26
ENDBRANCH  24  25
ENDBRANCH   4  24
BRANCH   3  33
HETATM   33  O1  UNL     1      21.036  30.893  17.239  1.00  0.00    -0.391 OA
ATOM     34  H1  UNL     1      20.533  30.307  17.791  1.00  0.00     0.210 HD
ENDBRANCH   3  33
BRANCH   1  35
HETATM   35  C2  UNL     1      20.829  32.083  13.815  1.00  0.00    -0.022 C
HETATM   36  C1  UNL     1      21.571  31.252  13.124  1.00  0.00     0.008 C
ENDBRANCH   1  35
BRANCH  21  37
HETATM   37  C26 UNL     1      22.050  34.728  18.928  1.00  0.00     0.199 C
BRANCH  37  38
HETATM   38  O8  UNL     1      22.275  35.996  19.375  1.00  0.00    -0.387 OA
BRANCH  38  39
HETATM   39  C27 UNL     1      23.173  36.109  20.427  1.00  0.00     0.198 C
BRANCH  39  40
HETATM   40  C28 UNL     1      24.165  37.244  20.183  1.00  0.00     0.297 C
BRANCH  40  41
HETATM   41  N1  UNL     1      25.155  37.139  21.266  1.00  0.00     0.082 N
HETATM   42  C29 UNL     1      25.344  35.753  21.648  1.00  0.00     0.309 C
HETATM   43  C30 UNL     1      26.402  37.750  20.844  1.00  0.00     0.309 C
ENDBRANCH  40  41
ENDBRANCH  39  40
ENDBRANCH  38  39
ENDBRANCH  37  38
ENDBRANCH  21  37
TORSDOF 14
ENDMDL