MODEL 1
REMARK VINA RESULT: -8.103820049      0.000      0.000
REMARK  11 active torsions:
REMARK  status: ('A' for Active; 'I' for Inactive)
REMARK    1  A    between atoms: C2_2  and  C3_3
REMARK    2  A    between atoms: C3_3  and  C5_5
REMARK    3  A    between atoms: C7_7  and  C8_8
REMARK    4  A    between atoms: C8_8  and  N1_9
REMARK    5  A    between atoms: C15_18  and  O1_19
REMARK    6  A    between atoms: C17_21  and  C18_22
REMARK    7  A    between atoms: C19_23  and  N4_24
REMARK    8  A    between atoms: C24_32  and  C25_33
REMARK       I    between atoms: C25_33  and  N6_35
REMARK    9  A    between atoms: N6_35  and  C26_37
REMARK   10  A    between atoms: C26_37  and  C27_38
REMARK   11  A    between atoms: C27_38  and  O4_39
ROOT
HETATM    1  C5  UNL     1      21.902  26.425  11.746  1.00  0.00    -0.009 A
HETATM    2  C6  UNL     1      22.272  27.445  12.569  1.00  0.00     0.021 A
HETATM    3  C7  UNL     1      21.362  28.334  13.122  1.00  0.00    -0.013 A
HETATM    4  C14 UNL     1      20.038  28.117  12.783  1.00  0.00     0.109 A
HETATM    5  N3  UNL     1      19.634  27.119  11.972  1.00  0.00    -0.285 N
HETATM    6  C15 UNL     1      18.373  26.774  11.534  1.00  0.00     0.179 A
HETATM    7  C17 UNL     1      18.528  25.700  10.733  1.00  0.00     0.115 A
HETATM    8  N8  UNL     1      19.851  25.423  10.702  1.00  0.00    -0.336 N
ATOM      9  H8  UNL     1      20.262  24.656  10.171  1.00  0.00     0.168 HD
HETATM   10  C30 UNL     1      20.554  26.276  11.453  1.00  0.00     0.121 A
ENDROOT
BRANCH   7  11
HETATM   11  C18 UNL     1      17.543  24.880  10.032  1.00  0.00     0.093 A
HETATM   12  C19 UNL     1      17.381  24.939   8.631  1.00  0.00     0.070 A
HETATM   13  C23 UNL     1      16.341  24.083   8.337  1.00  0.00     0.067 A
HETATM   14  C24 UNL     1      15.879  23.524   9.483  1.00  0.00     0.105 A
HETATM   15  N7  UNL     1      16.624  24.023  10.494  1.00  0.00    -0.343 N
HETATM   16  C29 UNL     1      16.386  23.678  11.884  1.00  0.00     0.157 C
BRANCH  12  17
HETATM   17  N4  UNL     1      18.153  25.727   7.750  1.00  0.00    -0.296 N
HETATM   18  C20 UNL     1      17.905  27.095   7.366  1.00  0.00     0.153 C
HETATM   19  C21 UNL     1      18.861  27.429   6.271  1.00  0.00     0.144 C
HETATM   20  N5  UNL     1      19.846  26.386   6.307  1.00  0.00    -0.341 N
HETATM   21  C22 UNL     1      19.316  25.320   7.064  1.00  0.00     0.323 C
ATOM     22  H5  UNL     1      20.764  26.410   5.864  1.00  0.00     0.164 HD
HETATM   23  O2  UNL     1      19.807  24.170   7.121  1.00  0.00    -0.247 OA
ENDBRANCH  12  17
BRANCH  14  24
HETATM   24  C25 UNL     1      14.742  22.550   9.621  1.00  0.00     0.268 C
HETATM   25  O3  UNL     1      15.053  21.329   9.514  1.00  0.00    -0.266 OA
HETATM   26  N6  UNL     1      13.480  23.088   9.852  1.00  0.00    -0.354 N
ATOM     27  H6  UNL     1      13.482  24.106   9.908  1.00  0.00     0.162 HD
BRANCH  26  28
HETATM   28  C26 UNL     1      12.192  22.523  10.025  1.00  0.00     0.149 C
BRANCH  28  29
HETATM   29  C27 UNL     1      11.585  22.638  11.365  1.00  0.00     0.186 C
BRANCH  29  30
HETATM   30  O4  UNL     1      10.483  23.406  11.477  1.00  0.00    -0.394 OA
HETATM   31  C28 UNL     1       9.974  23.804  10.233  1.00  0.00     0.201 C
ENDBRANCH  29  30
ENDBRANCH  28  29
ENDBRANCH  26  28
ENDBRANCH  14  24
ENDBRANCH   7  11
BRANCH   6  32
HETATM   32  O1  UNL     1      17.255  27.473  11.926  1.00  0.00    -0.339 OA
HETATM   33  C16 UNL     1      16.672  28.612  11.450  1.00  0.00     0.211 C
ENDBRANCH   6  32
BRANCH   1  34
HETATM   34  C3  UNL     1      22.872  25.514  11.180  1.00  0.00     0.018 C
HETATM   35  C4  UNL     1      24.296  25.705  11.656  1.00  0.00     0.015 C
BRANCH  34  36
HETATM   36  C2  UNL     1      22.912  25.455   9.685  1.00  0.00     0.004 C
HETATM   37  C1  UNL     1      22.764  24.061   9.141  1.00  0.00     0.006 C
ENDBRANCH  34  36
ENDBRANCH   1  34
BRANCH   3  38
HETATM   38  C8  UNL     1      21.709  29.458  14.010  1.00  0.00     0.312 C
BRANCH  38  39
HETATM   39  N1  UNL     1      20.618  30.243  14.478  1.00  0.00     0.096 N
HETATM   40  C9  UNL     1      20.417  29.993  15.884  1.00  0.00     0.303 C
HETATM   41  C10 UNL     1      19.259  30.857  16.383  1.00  0.00     0.302 C
HETATM   42  N2  UNL     1      19.689  32.219  16.259  1.00  0.00     0.087 N
HETATM   43  C11 UNL     1      18.885  33.158  17.000  1.00  0.00     0.310 C
HETATM   44  C12 UNL     1      19.862  32.540  14.880  1.00  0.00     0.302 C
HETATM   45  C13 UNL     1      20.943  31.640  14.306  1.00  0.00     0.303 C
ENDBRANCH  38  39
ENDBRANCH   3  38
TORSDOF 11
ENDMDL