MODEL 4
REMARK VINA RESULT: -9.194498013      1.771      2.077
REMARK  12 active torsions:
REMARK  status: ('A' for Active; 'I' for Inactive)
REMARK    1  A    between atoms: N1_4  and  C4_5
REMARK    2  A    between atoms: C4_5  and  C5_6
REMARK    3  A    between atoms: C5_6  and  N2_7
REMARK    4  A    between atoms: N3_15  and  C12_16
REMARK    5  A    between atoms: C15_19  and  C16_20
REMARK    6  A    between atoms: C16_20  and  N4_21
REMARK    7  A    between atoms: N4_21  and  C17_23
REMARK    8  A    between atoms: C18_26  and  N6_27
REMARK    9  A    between atoms: C28_39  and  O2_40
REMARK   10  A    between atoms: O2_40  and  C29_41
REMARK   11  A    between atoms: C29_41  and  C32_44
REMARK   12  A    between atoms: C32_44  and  N8_45
ROOT
HETATM    1  C12 UNL     1      17.951  31.315  14.576  1.00  0.00     0.065 A
HETATM    2  C13 UNL     1      16.742  31.526  15.286  1.00  0.00     0.033 A
HETATM    3  C14 UNL     1      16.462  32.659  15.989  1.00  0.00     0.011 A
HETATM    4  C15 UNL     1      17.418  33.665  16.010  1.00  0.00    -0.038 A
HETATM    5  C27 UNL     1      18.589  33.483  15.330  1.00  0.00     0.048 A
HETATM    6  C28 UNL     1      18.883  32.301  14.595  1.00  0.00     0.097 A
ENDROOT
BRANCH   4   7
HETATM    7  C16 UNL     1      17.112  34.890  16.806  1.00  0.00     0.160 C
BRANCH   7   8
HETATM    8  N4  UNL     1      18.193  35.187  17.722  1.00  0.00    -0.371 N
ATOM      9  H4  UNL     1      18.404  34.558  18.497  1.00  0.00     0.161 HD
BRANCH   8  10
HETATM   10  C17 UNL     1      18.882  36.257  17.539  1.00  0.00     0.125 A
HETATM   11  N5  UNL     1      18.339  37.467  17.289  1.00  0.00    -0.176 N
HETATM   12  C18 UNL     1      19.071  38.588  17.099  1.00  0.00     0.681 A
ATOM     13  H5  UNL     1      17.323  37.540  17.240  1.00  0.00     0.186 HD
HETATM   14  N7  UNL     1      20.411  38.467  17.168  1.00  0.00    -0.195 N
HETATM   15  C21 UNL     1      21.009  37.270  17.419  1.00  0.00     0.036 A
ATOM     16  H7  UNL     1      20.991  39.294  17.030  1.00  0.00     0.184 HD
HETATM   17  C22 UNL     1      20.253  36.137  17.609  1.00  0.00     0.009 A
HETATM   18  C26 UNL     1      22.485  37.132  17.488  1.00  0.00     0.058 C
HETATM   19  C23 UNL     1      20.972  34.866  17.882  1.00  0.00     0.044 C
HETATM   20  C24 UNL     1      21.943  35.184  19.005  1.00  0.00     0.005 C
HETATM   21  C25 UNL     1      22.834  36.349  18.728  1.00  0.00     0.006 C
BRANCH  12  22
HETATM   22  N6  UNL     1      18.450  39.848  16.822  1.00  0.00    -0.226 N
HETATM   23  C19 UNL     1      19.208  40.968  16.268  1.00  0.00     0.168 C
HETATM   24  C20 UNL     1      17.038  40.054  17.071  1.00  0.00     0.168 C
ENDBRANCH  12  22
ENDBRANCH   8  10
ENDBRANCH   7   8
ENDBRANCH   4   7
BRANCH   6  25
HETATM   25  O2  UNL     1      20.066  32.296  13.988  1.00  0.00    -0.337 OA
BRANCH  25  26
HETATM   26  C29 UNL     1      21.381  32.118  14.301  1.00  0.00     0.084 C
HETATM   27  C30 UNL     1      22.292  33.247  14.528  1.00  0.00     0.048 C
HETATM   28  C31 UNL     1      21.990  31.300  13.127  1.00  0.00     0.048 C
BRANCH  26  29
HETATM   29  C32 UNL     1      21.549  31.162  15.501  1.00  0.00     0.267 C
BRANCH  29  30
HETATM   30  N8  UNL     1      22.311  31.865  16.499  1.00  0.00    -0.076 N
ATOM     31  H83 UNL     1      22.024  32.838  16.610  1.00  0.00     0.274 HD
ATOM     32  H82 UNL     1      22.104  31.558  17.450  1.00  0.00     0.274 HD
ATOM     33  H81 UNL     1      23.295  31.765  16.251  1.00  0.00     0.274 HD
ENDBRANCH  29  30
ENDBRANCH  26  29
ENDBRANCH  25  26
ENDBRANCH   6  25
BRANCH   1  34
HETATM   34  N3  UNL     1      18.051  30.030  14.010  1.00  0.00    -0.365 N
HETATM   35  C2  UNL     1      18.761  28.909  14.509  1.00  0.00     0.119 C
HETATM   36  C1  UNL     1      17.779  27.747  14.622  1.00  0.00     0.038 C
HETATM   37  C3  UNL     1      19.842  28.585  13.502  1.00  0.00     0.088 C
HETATM   38  N1  UNL     1      19.553  28.745  12.154  1.00  0.00    -0.366 N
HETATM   39  C10 UNL     1      18.315  29.229  11.713  1.00  0.00     0.083 C
HETATM   40  C11 UNL     1      17.366  29.760  12.728  1.00  0.00     0.168 C
BRANCH  38  41
HETATM   41  C4  UNL     1      20.143  27.782  11.259  1.00  0.00     0.171 C
BRANCH  41  42
HETATM   42  C5  UNL     1      20.398  26.441  11.904  1.00  0.00     0.078 C
BRANCH  42  43
HETATM   43  N2  UNL     1      21.715  25.966  11.749  1.00  0.00    -0.388 N
HETATM   44  C6  UNL     1      21.933  24.749  11.069  1.00  0.00     0.148 C
HETATM   45  C7  UNL     1      23.375  24.773  10.559  1.00  0.00     0.187 C
HETATM   46  O1  UNL     1      24.253  25.094  11.576  1.00  0.00    -0.388 OA
HETATM   47  C8  UNL     1      24.047  26.322  12.166  1.00  0.00     0.187 C
HETATM   48  C9  UNL     1      22.761  26.906  11.605  1.00  0.00     0.148 C
ENDBRANCH  42  43
ENDBRANCH  41  42
ENDBRANCH  38  41
ENDBRANCH   1  34
TORSDOF 12
ENDMDL