MODEL 2
REMARK VINA RESULT: -7.859980236      2.540      9.484
REMARK  16 active torsions:
REMARK  status: ('A' for Active; 'I' for Inactive)
REMARK    1  A    between atoms: C2_2  and  C3_3
REMARK    2  A    between atoms: C4_4  and  O1_5
REMARK    3  A    between atoms: N1_7  and  C6_8
REMARK    4  A    between atoms: C6_8  and  C7_9
REMARK    5  A    between atoms: C7_9  and  C8_10
REMARK    6  A    between atoms: C8_10  and  C9_11
REMARK    7  A    between atoms: C9_11  and  N2_12
REMARK    8  A    between atoms: N3_18  and  C11_19
REMARK    9  A    between atoms: N4_22  and  C14_23
REMARK   10  A    between atoms: C14_23  and  C15_24
REMARK   11  A    between atoms: C14_23  and  C17_28
REMARK   12  A    between atoms: C15_24  and  O4_26
REMARK   13  A    between atoms: C19_31  and  C20_32
REMARK   14  A    between atoms: C20_32  and  N6_33
REMARK       I    between atoms: N6_33  and  C21_35
REMARK   15  A    between atoms: C21_35  and  O6_37
REMARK   16  A    between atoms: O6_37  and  C22_38
ROOT
HETATM    1  C17 UNL     1      11.737  18.647  17.398  1.00  0.00     0.052 C
HETATM    2  C18 UNL     1      11.701  17.180  17.745  1.00  0.00     0.097 C
HETATM    3  N5  UNL     1      11.688  16.060  18.024  1.00  0.00    -0.192 NA
HETATM    4  C19 UNL     1      11.252  18.886  16.248  1.00  0.00     0.013 C
ENDROOT
BRANCH   1   5
HETATM    5  C14 UNL     1      12.320  19.504  18.470  1.00  0.00     0.227 C
BRANCH   5   6
HETATM    6  N4  UNL     1      13.593  20.043  17.992  1.00  0.00    -0.375 N
HETATM    7  C13 UNL     1      13.732  21.362  18.483  1.00  0.00     0.125 C
HETATM    8  C12 UNL     1      14.948  21.988  17.770  1.00  0.00     0.045 C
HETATM    9  C11 UNL     1      16.125  21.191  18.249  1.00  0.00     0.095 C
HETATM   10  C27 UNL     1      15.998  19.818  17.636  1.00  0.00     0.069 C
HETATM   11  C26 UNL     1      14.686  19.173  18.002  1.00  0.00     0.061 C
BRANCH   9  12
HETATM   12  N3  UNL     1      17.392  21.799  18.166  1.00  0.00    -0.324 N
HETATM   13  C10 UNL     1      17.873  22.300  16.895  1.00  0.00     0.323 C
HETATM   14  N1  UNL     1      18.758  23.416  16.921  1.00  0.00    -0.307 N
HETATM   15  O2  UNL     1      17.522  21.766  15.817  1.00  0.00    -0.247 OA
HETATM   16  C4  UNL     1      18.750  24.200  18.151  1.00  0.00     0.232 C
HETATM   17  C3  UNL     1      18.842  23.390  19.405  1.00  0.00     0.057 C
HETATM   18  C28 UNL     1      18.326  21.978  19.258  1.00  0.00     0.093 C
HETATM   19  C29 UNL     1      17.830  21.406  20.560  1.00  0.00     0.033 C
BRANCH  14  20
HETATM   20  C6  UNL     1      19.578  23.735  15.803  1.00  0.00     0.130 C
BRANCH  20  21
HETATM   21  C7  UNL     1      20.361  24.976  15.797  1.00  0.00     0.022 C
BRANCH  21  22
HETATM   22  C8  UNL     1      20.325  25.729  14.514  1.00  0.00     0.029 C
BRANCH  22  23
HETATM   23  C9  UNL     1      19.205  26.780  14.526  1.00  0.00     0.229 C
BRANCH  23  24
HETATM   24  N2  UNL     1      19.822  28.093  14.481  1.00  0.00    -0.079 N
ATOM     25  H23 UNL     1      19.525  28.695  15.249  1.00  0.00     0.274 HD
ATOM     26  H22 UNL     1      20.817  28.069  14.704  1.00  0.00     0.274 HD
ATOM     27  H21 UNL     1      19.633  28.499  13.565  1.00  0.00     0.274 HD
ENDBRANCH  23  24
ENDBRANCH  22  23
ENDBRANCH  21  22
ENDBRANCH  20  21
ENDBRANCH  14  20
BRANCH  16  28
HETATM   28  O1  UNL     1      17.747  25.111  18.227  1.00  0.00    -0.371 OA
HETATM   29  C5  UNL     1      17.002  25.296  17.086  1.00  0.00     0.204 C
ENDBRANCH  16  28
BRANCH  17  30
HETATM   30  C2  UNL     1      18.292  24.108  20.575  1.00  0.00     0.006 C
HETATM   31  C1  UNL     1      19.112  25.029  21.351  1.00  0.00     0.006 C
ENDBRANCH  17  30
ENDBRANCH   9  12
ENDBRANCH   5   6
BRANCH   5  32
HETATM   32  C15 UNL     1      12.436  18.927  19.798  1.00  0.00     0.286 C
HETATM   33  O3  UNL     1      11.399  18.699  20.476  1.00  0.00    -0.263 OA
BRANCH  32  34
HETATM   34  O4  UNL     1      13.637  18.590  20.414  1.00  0.00    -0.325 OA
HETATM   35  C16 UNL     1      14.093  19.391  21.480  1.00  0.00     0.213 C
ENDBRANCH  32  34
ENDBRANCH   5  32
ENDBRANCH   1   5
BRANCH   4  36
HETATM   36  C20 UNL     1      11.040  20.080  15.436  1.00  0.00     0.153 C
BRANCH  36  37
HETATM   37  N6  UNL     1      12.288  20.789  15.308  1.00  0.00    -0.333 N
HETATM   38  C21 UNL     1      13.258  20.459  14.372  1.00  0.00     0.361 C
HETATM   39  O5  UNL     1      13.164  19.530  13.544  1.00  0.00    -0.238 OA
ATOM     40  H6  UNL     1      12.467  21.573  15.935  1.00  0.00     0.165 HD
BRANCH  38  41
HETATM   41  O6  UNL     1      14.449  21.212  14.331  1.00  0.00    -0.294 OA
BRANCH  41  42
HETATM   42  C22 UNL     1      14.477  22.442  13.640  1.00  0.00     0.061 C
HETATM   43  C23 UNL     1      13.097  23.080  13.720  1.00  0.00     0.046 C
HETATM   44  C24 UNL     1      15.459  23.414  14.253  1.00  0.00     0.046 C
HETATM   45  C25 UNL     1      14.843  22.229  12.187  1.00  0.00     0.046 C
ENDBRANCH  41  42
ENDBRANCH  38  41
ENDBRANCH  36  37
ENDBRANCH   4  36
TORSDOF 16
ENDMDL