MODEL 1
REMARK VINA RESULT: -8.637076591      0.000      0.000
REMARK  15 active torsions:
REMARK  status: ('A' for Active; 'I' for Inactive)
REMARK    1  A    between atoms: C2_2  and  C3_3
REMARK    2  A    between atoms: C3_3  and  C4_4
REMARK    3  A    between atoms: C4_4  and  C5_5
REMARK    4  A    between atoms: C5_5  and  C6_6
REMARK    5  A    between atoms: C6_6  and  O1_7
REMARK    6  A    between atoms: C6_6  and  C22_33
REMARK    7  A    between atoms: O1_7  and  C7_8
REMARK    8  A    between atoms: C7_8  and  C8_10
REMARK    9  A    between atoms: C8_10  and  N1_11
REMARK       I    between atoms: N1_11  and  C9_13
REMARK   10  A    between atoms: C9_13  and  C10_15
REMARK       I    between atoms: N2_17  and  C12_19
REMARK   11  A    between atoms: C12_19  and  C13_21
REMARK       I    between atoms: N3_25  and  C17_26
REMARK   12  A    between atoms: C17_26  and  O6_28
REMARK   13  A    between atoms: O6_28  and  C18_29
REMARK   14  A    between atoms: N4_35  and  C24_36
REMARK   15  A    between atoms: C27_40  and  N5_41
ROOT
HETATM    1  C8  UNL     1      17.615  21.323  19.161  1.00  0.00     0.234 C
ENDROOT
BRANCH   1   2
HETATM    2  C7  UNL     1      16.946  20.731  17.963  1.00  0.00     0.277 C
HETATM    3  O2  UNL     1      17.523  20.057  17.098  1.00  0.00    -0.263 OA
BRANCH   2   4
HETATM    4  O1  UNL     1      15.592  20.960  17.830  1.00  0.00    -0.304 OA
BRANCH   4   5
HETATM    5  C6  UNL     1      14.655  19.897  18.212  1.00  0.00     0.206 C
BRANCH   5   6
HETATM    6  C5  UNL     1      14.094  20.179  19.535  1.00  0.00     0.011 C
BRANCH   6   7
HETATM    7  C4  UNL     1      13.808  19.182  20.538  1.00  0.00    -0.005 C
BRANCH   7   8
HETATM    8  C3  UNL     1      13.576  17.763  20.402  1.00  0.00    -0.027 C
BRANCH   8   9
HETATM    9  C2  UNL     1      12.225  17.177  20.498  1.00  0.00     0.022 C
HETATM   10  C1  UNL     1      11.061  17.897  19.916  1.00  0.00     0.009 C
ENDBRANCH   8   9
ENDBRANCH   7   8
ENDBRANCH   6   7
ENDBRANCH   5   6
BRANCH   5  11
HETATM   11  C22 UNL     1      13.709  19.890  17.092  1.00  0.00     0.060 A
HETATM   12  C23 UNL     1      13.847  20.634  15.952  1.00  0.00     0.122 A
HETATM   13  N4  UNL     1      12.920  20.621  14.994  1.00  0.00    -0.320 N
HETATM   14  C26 UNL     1      11.817  19.853  15.149  1.00  0.00     0.291 A
HETATM   15  O7  UNL     1      10.955  19.851  14.240  1.00  0.00    -0.264 OA
HETATM   16  C27 UNL     1      11.623  19.083  16.274  1.00  0.00     0.171 A
HETATM   17  N6  UNL     1      12.578  19.126  17.212  1.00  0.00    -0.338 N
ATOM     18  H6  UNL     1      12.458  18.563  18.055  1.00  0.00     0.167 HD
BRANCH  13  19
HETATM   19  C24 UNL     1      13.071  21.423  13.766  1.00  0.00     0.127 C
HETATM   20  C25 UNL     1      14.292  20.892  13.020  1.00  0.00     0.027 C
ENDBRANCH  13  19
BRANCH  16  21
HETATM   21  N5  UNL     1      10.564  18.359  16.403  1.00  0.00    -0.376 N
HETATM   22  C28 UNL     1      10.659  16.915  16.305  1.00  0.00     0.148 C
ATOM     23  H5  UNL     1       9.660  18.801  16.574  1.00  0.00     0.160 HD
ENDBRANCH  16  21
ENDBRANCH   5  11
ENDBRANCH   4   5
ENDBRANCH   2   4
ENDBRANCH   1   2
BRANCH   1  24
HETATM   24  N1  UNL     1      18.213  22.615  18.879  1.00  0.00    -0.347 N
HETATM   25  C9  UNL     1      19.546  22.830  19.269  1.00  0.00     0.264 C
HETATM   26  O3  UNL     1      20.230  21.931  19.858  1.00  0.00    -0.266 OA
ATOM     27  H1  UNL     1      17.679  23.347  18.410  1.00  0.00     0.163 HD
BRANCH  25  28
HETATM   28  C10 UNL     1      20.181  24.112  18.999  1.00  0.00     0.076 C
HETATM   29  C11 UNL     1      20.802  24.906  20.085  1.00  0.00     0.074 C
HETATM   30  N2  UNL     1      20.188  24.557  17.775  1.00  0.00    -0.324 N
HETATM   31  C12 UNL     1      20.787  25.790  17.447  1.00  0.00     0.245 C
ATOM     32  H2  UNL     1      19.750  24.001  17.039  1.00  0.00     0.169 HD
HETATM   33  O4  UNL     1      21.988  25.994  17.797  1.00  0.00    -0.271 OA
BRANCH  31  34
HETATM   34  C13 UNL     1      20.074  26.860  16.711  1.00  0.00     0.181 C
HETATM   35  C14 UNL     1      21.060  27.717  15.938  1.00  0.00     0.037 C
HETATM   36  C15 UNL     1      21.162  27.081  14.589  1.00  0.00     0.022 C
HETATM   37  C16 UNL     1      19.922  26.257  14.465  1.00  0.00     0.129 C
HETATM   38  N3  UNL     1      19.187  26.320  15.698  1.00  0.00    -0.315 N
HETATM   39  C17 UNL     1      17.845  25.927  15.877  1.00  0.00     0.364 C
HETATM   40  O5  UNL     1      17.287  26.028  17.019  1.00  0.00    -0.238 OA
BRANCH  39  41
HETATM   41  O6  UNL     1      17.052  25.419  14.869  1.00  0.00    -0.294 OA
BRANCH  41  42
HETATM   42  C18 UNL     1      16.645  24.085  14.749  1.00  0.00     0.061 C
HETATM   43  C19 UNL     1      17.648  23.091  15.248  1.00  0.00     0.046 C
HETATM   44  C20 UNL     1      15.349  23.852  15.490  1.00  0.00     0.046 C
HETATM   45  C21 UNL     1      16.417  23.799  13.262  1.00  0.00     0.046 C
ENDBRANCH  41  42
ENDBRANCH  39  41
ENDBRANCH  31  34
ENDBRANCH  25  28
ENDBRANCH   1  24
TORSDOF 15
ENDMDL