MODEL 2
REMARK VINA RESULT: -9.334134175      2.513     10.287
REMARK  11 active torsions:
REMARK  status: ('A' for Active; 'I' for Inactive)
REMARK    1  A    between atoms: C2_2  and  C3_3
REMARK    2  A    between atoms: C3_3  and  N1_4
REMARK    3  A    between atoms: N2_7  and  C6_8
REMARK    4  A    between atoms: C6_8  and  C7_9
REMARK    5  A    between atoms: C7_9  and  C8_10
REMARK    6  A    between atoms: C8_10  and  N3_11
REMARK       I    between atoms: N3_11  and  C9_13
REMARK    7  A    between atoms: C9_13  and  C10_15
REMARK    8  A    between atoms: C10_15  and  S1_16
REMARK    9  A    between atoms: S1_16  and  C11_17
REMARK   10  A    between atoms: C12_22  and  C13_23
REMARK   11  A    between atoms: N6_25  and  C15_26
ROOT
HETATM    1  C11 UNL     1      14.859  22.771  14.694  1.00  0.00     0.161 A
HETATM    2  N4  UNL     1      14.060  23.617  15.333  1.00  0.00    -0.278 N
ATOM      3  H4  UNL     1      13.904  24.593  15.080  1.00  0.00     0.189 HD
HETATM    4  N5  UNL     1      13.497  22.982  16.355  1.00  0.00    -0.283 N
ATOM      5  H5  UNL     1      12.836  23.381  17.022  1.00  0.00     0.188 HD
HETATM    6  C12 UNL     1      13.958  21.710  16.351  1.00  0.00     0.137 A
HETATM    7  N8  UNL     1      14.791  21.593  15.329  1.00  0.00    -0.320 N
ATOM      8  H8  UNL     1      15.297  20.746  15.069  1.00  0.00     0.169 HD
ENDROOT
BRANCH   6   9
HETATM    9  C13 UNL     1      13.556  20.701  17.342  1.00  0.00     0.076 A
HETATM   10  C14 UNL     1      14.015  20.689  18.630  1.00  0.00     0.110 A
HETATM   11  N6  UNL     1      13.629  19.746  19.519  1.00  0.00    -0.355 N
HETATM   12  C17 UNL     1      12.769  18.791  19.115  1.00  0.00     0.049 A
HETATM   13  C18 UNL     1      12.394  17.835  20.029  1.00  0.00     0.031 A
HETATM   14  C22 UNL     1      12.260  18.750  17.797  1.00  0.00     0.049 A
HETATM   15  C19 UNL     1      11.536  16.850  19.668  1.00  0.00     0.010 A
HETATM   16  C20 UNL     1      11.049  16.815  18.403  1.00  0.00    -0.049 A
HETATM   17  C21 UNL     1      11.378  17.753  17.402  1.00  0.00    -0.034 A
HETATM   18  C28 UNL     1      10.133  15.650  18.215  1.00  0.00     0.069 C
HETATM   19  C24 UNL     1      10.960  17.876  16.019  1.00  0.00     0.070 C
HETATM   20  C25 UNL     1       9.967  16.684  15.802  1.00  0.00     0.276 C
HETATM   21  N7  UNL     1      10.632  15.431  15.824  1.00  0.00     0.084 N
HETATM   22  C26 UNL     1      10.342  14.578  14.706  1.00  0.00     0.309 C
HETATM   23  C27 UNL     1      10.597  14.755  17.088  1.00  0.00     0.276 C
HETATM   24  C23 UNL     1      12.660  19.712  16.913  1.00  0.00     0.200 A
HETATM   25  O2  UNL     1      12.249  19.732  15.735  1.00  0.00    -0.286 OA
BRANCH  11  26
HETATM   26  C15 UNL     1      14.154  19.807  20.881  1.00  0.00     0.124 C
HETATM   27  C16 UNL     1      15.193  20.910  21.000  1.00  0.00     0.027 C
ENDBRANCH  11  26
ENDBRANCH   6   9
BRANCH   1  28
HETATM   28  S1  UNL     1      15.837  23.156  13.260  1.00  0.00    -0.083 SA
BRANCH  28  29
HETATM   29  C10 UNL     1      16.832  24.625  13.532  1.00  0.00     0.185 C
BRANCH  29  30
HETATM   30  C9  UNL     1      17.438  24.647  14.900  1.00  0.00     0.227 C
HETATM   31  N3  UNL     1      16.864  25.431  15.938  1.00  0.00    -0.360 N
ATOM     32  H3  UNL     1      16.030  25.986  15.745  1.00  0.00     0.162 HD
HETATM   33  O1  UNL     1      18.463  23.963  15.132  1.00  0.00    -0.273 OA
BRANCH  31  34
HETATM   34  C8  UNL     1      17.435  25.456  17.248  1.00  0.00     0.124 C
BRANCH  34  35
HETATM   35  C7  UNL     1      16.529  24.776  18.253  1.00  0.00     0.039 C
BRANCH  35  36
HETATM   36  C6  UNL     1      16.911  23.328  18.300  1.00  0.00     0.118 C
BRANCH  36  37
HETATM   37  N2  UNL     1      17.554  22.924  19.524  1.00  0.00    -0.409 N
HETATM   38  C5  UNL     1      18.141  23.992  20.256  1.00  0.00     0.147 C
HETATM   39  C4  UNL     1      19.616  24.152  20.121  1.00  0.00     0.291 C
HETATM   40  N1  UNL     1      20.333  22.923  19.854  1.00  0.00     0.091 N
HETATM   41  C30 UNL     1      19.596  21.767  20.276  1.00  0.00     0.291 C
HETATM   42  C29 UNL     1      18.324  21.728  19.424  1.00  0.00     0.147 C
BRANCH  40  43
HETATM   43  C3  UNL     1      21.693  22.970  20.355  1.00  0.00     0.272 C
BRANCH  43  44
HETATM   44  C2  UNL     1      22.008  24.447  20.590  1.00  0.00     0.026 C
HETATM   45  C1  UNL     1      23.479  24.588  20.862  1.00  0.00     0.007 C
ENDBRANCH  43  44
ENDBRANCH  40  43
ENDBRANCH  36  37
ENDBRANCH  35  36
ENDBRANCH  34  35
ENDBRANCH  31  34
ENDBRANCH  29  30
ENDBRANCH  28  29
ENDBRANCH   1  28
TORSDOF 11
ENDMDL