MODEL 4
REMARK VINA RESULT: -9.455479174      2.742      8.546
REMARK  11 active torsions:
REMARK  status: ('A' for Active; 'I' for Inactive)
REMARK    1  A    between atoms: C2_2  and  C3_3
REMARK    2  A    between atoms: C3_3  and  C4_4
REMARK    3  A    between atoms: C3_3  and  N5_13
REMARK    4  A    between atoms: C4_4  and  S1_5
REMARK    5  A    between atoms: S1_5  and  C5_6
REMARK       I    between atoms: N5_13  and  C7_15
REMARK    6  A    between atoms: C7_15  and  C8_17
REMARK    7  A    between atoms: C8_17  and  C9_18
REMARK    8  A    between atoms: C8_17  and  N8_28
REMARK    9  A    between atoms: C9_18  and  C10_19
REMARK       I    between atoms: C10_19  and  N6_21
REMARK       I    between atoms: N8_28  and  C16_30
REMARK   10  A    between atoms: C16_30  and  C17_32
REMARK   11  A    between atoms: C23_38  and  C24_39
ROOT
HETATM    1  C10 UNL     1      17.490  25.331  14.774  1.00  0.00     0.223 C
HETATM    2  O2  UNL     1      16.639  26.124  15.284  1.00  0.00    -0.273 OA
HETATM    3  N6  UNL     1      18.846  25.613  15.054  1.00  0.00    -0.335 N
HETATM    4  C11 UNL     1      19.969  24.832  14.575  1.00  0.00     0.127 C
HETATM    5  C12 UNL     1      21.168  25.755  14.602  1.00  0.00     0.023 C
HETATM    6  C13 UNL     1      20.558  27.112  14.902  1.00  0.00     0.042 C
HETATM    7  C14 UNL     1      19.421  26.699  15.848  1.00  0.00     0.194 C
HETATM    8  C15 UNL     1      19.999  26.206  17.092  1.00  0.00     0.084 C
HETATM    9  N7  UNL     1      20.474  25.829  18.081  1.00  0.00    -0.195 NA
ENDROOT
BRANCH   1  10
HETATM   10  C9  UNL     1      17.140  24.185  13.943  1.00  0.00     0.138 C
BRANCH  10  11
HETATM   11  C8  UNL     1      16.999  22.877  14.683  1.00  0.00     0.185 C
BRANCH  11  12
HETATM   12  C7  UNL     1      15.780  22.130  14.432  1.00  0.00     0.241 C
HETATM   13  N5  UNL     1      14.795  21.821  15.404  1.00  0.00    -0.354 N
ATOM     14  H5  UNL     1      14.942  22.144  16.360  1.00  0.00     0.162 HD
HETATM   15  O1  UNL     1      15.529  21.692  13.253  1.00  0.00    -0.271 OA
BRANCH  13  16
HETATM   16  C3  UNL     1      13.587  21.068  15.106  1.00  0.00     0.093 C
BRANCH  16  17
HETATM   17  C2  UNL     1      12.464  22.018  14.939  1.00  0.00     0.021 C
HETATM   18  C1  UNL     1      11.121  21.395  14.676  1.00  0.00     0.007 C
ENDBRANCH  16  17
BRANCH  16  19
HETATM   19  C4  UNL     1      13.426  19.977  16.096  1.00  0.00     0.107 C
BRANCH  19  20
HETATM   20  S1  UNL     1      13.551  20.455  17.805  1.00  0.00    -0.090 SA
BRANCH  20  21
HETATM   21  C5  UNL     1      12.481  19.513  18.873  1.00  0.00     0.172 A
HETATM   22  N1  UNL     1      11.283  18.984  18.608  1.00  0.00    -0.265 N
HETATM   23  N2  UNL     1      10.860  18.361  19.702  1.00  0.00    -0.007 NA
ATOM     24  H1  UNL     1      10.783  19.047  17.721  1.00  0.00     0.186 HD
HETATM   25  N3  UNL     1      11.774  18.482  20.666  1.00  0.00    -0.005 NA
HETATM   26  N4  UNL     1      12.763  19.193  20.141  1.00  0.00    -0.260 N
HETATM   27  C6  UNL     1      13.946  19.521  20.923  1.00  0.00     0.177 C
ENDBRANCH  20  21
ENDBRANCH  19  20
ENDBRANCH  16  19
ENDBRANCH  13  16
ENDBRANCH  11  12
BRANCH  11  28
HETATM   28  N8  UNL     1      17.169  23.059  16.113  1.00  0.00    -0.347 N
HETATM   29  C16 UNL     1      17.936  22.198  16.916  1.00  0.00     0.227 C
HETATM   30  O3  UNL     1      18.516  21.223  16.396  1.00  0.00    -0.273 OA
ATOM     31  H8  UNL     1      16.707  23.852  16.558  1.00  0.00     0.163 HD
BRANCH  29  32
HETATM   32  C17 UNL     1      18.069  22.424  18.374  1.00  0.00     0.042 C
HETATM   33  C18 UNL     1      17.568  23.795  18.741  1.00  0.00     0.024 C
HETATM   34  C19 UNL     1      17.619  23.952  20.229  1.00  0.00    -0.012 C
HETATM   35  C20 UNL     1      16.836  22.850  20.868  1.00  0.00     0.009 C
HETATM   36  C26 UNL     1      19.051  23.897  20.744  1.00  0.00     0.014 C
HETATM   37  C21 UNL     1      17.479  21.532  20.600  1.00  0.00    -0.012 C
HETATM   38  C22 UNL     1      18.948  21.482  20.969  1.00  0.00     0.014 C
HETATM   39  C28 UNL     1      17.423  21.295  19.094  1.00  0.00     0.024 C
HETATM   40  C23 UNL     1      19.655  22.622  20.241  1.00  0.00    -0.039 C
HETATM   41  C27 UNL     1      19.547  22.419  18.757  1.00  0.00     0.028 C
BRANCH  40  42
HETATM   42  C24 UNL     1      21.115  22.579  20.667  1.00  0.00     0.005 C
HETATM   43  C25 UNL     1      21.740  23.955  20.612  1.00  0.00     0.006 C
ENDBRANCH  40  42
ENDBRANCH  29  32
ENDBRANCH  11  28
ENDBRANCH  10  11
ENDBRANCH   1  10
TORSDOF 11
ENDMDL