MODEL 5
REMARK VINA RESULT: -8.906278198      1.936      4.377
REMARK  12 active torsions:
REMARK  status: ('A' for Active; 'I' for Inactive)
REMARK    1  A    between atoms: C2_2  and  C3_3
REMARK    2  A    between atoms: C5_7  and  N2_8
REMARK    3  A    between atoms: N3_11  and  C6_12
REMARK    4  A    between atoms: C6_12  and  C7_13
REMARK    5  A    between atoms: C7_13  and  C8_14
REMARK       I    between atoms: C8_14  and  N4_16
REMARK    6  A    between atoms: N5_19  and  C11_20
REMARK    7  A    between atoms: C11_20  and  C12_21
REMARK    8  A    between atoms: N6_28  and  C16_29
REMARK    9  A    between atoms: C16_29  and  C17_30
REMARK   10  A    between atoms: C27_42  and  N8_43
REMARK   11  A    between atoms: N8_43  and  C28_44
REMARK   12  A    between atoms: N8_43  and  C30_46
ROOT
HETATM    1  C3  UNL     1      21.216  26.415  15.883  1.00  0.00     0.054 A
HETATM    2  N1  UNL     1      20.059  25.670  15.916  1.00  0.00    -0.350 N
ATOM      3  H1  UNL     1      19.558  25.486  15.047  1.00  0.00     0.166 HD
HETATM    4  C4  UNL     1      19.580  25.185  17.061  1.00  0.00     0.122 A
HETATM    5  C5  UNL     1      18.403  24.484  17.046  1.00  0.00     0.136 A
HETATM    6  N3  UNL     1      17.940  24.052  18.222  1.00  0.00    -0.283 N
HETATM    7  C15 UNL     1      18.619  24.300  19.374  1.00  0.00     0.336 A
HETATM    8  O4  UNL     1      18.089  23.844  20.398  1.00  0.00    -0.246 OA
HETATM    9  N6  UNL     1      19.765  24.972  19.457  1.00  0.00    -0.257 N
HETATM   10  C26 UNL     1      20.253  25.426  18.254  1.00  0.00     0.148 A
HETATM   11  N7  UNL     1      21.342  26.135  18.183  1.00  0.00    -0.325 N
ATOM     12  H7  UNL     1      21.833  26.313  19.060  1.00  0.00     0.169 HD
HETATM   13  C27 UNL     1      21.899  26.673  17.034  1.00  0.00     0.128 A
ENDROOT
BRANCH   6  14
HETATM   14  C6  UNL     1      16.696  23.314  18.227  1.00  0.00     0.145 C
BRANCH  14  15
HETATM   15  C7  UNL     1      17.049  21.888  17.846  1.00  0.00     0.123 C
BRANCH  15  16
HETATM   16  C8  UNL     1      16.080  21.359  16.828  1.00  0.00     0.221 C
HETATM   17  O1  UNL     1      16.234  21.554  15.603  1.00  0.00    -0.273 OA
HETATM   18  N4  UNL     1      14.955  20.616  17.258  1.00  0.00    -0.349 N
HETATM   19  C9  UNL     1      14.757  20.372  18.668  1.00  0.00     0.156 C
HETATM   20  C14 UNL     1      13.998  20.095  16.320  1.00  0.00     0.156 C
HETATM   21  C10 UNL     1      14.098  19.002  18.763  1.00  0.00     0.293 C
HETATM   22  N5  UNL     1      12.771  19.109  18.232  1.00  0.00     0.101 N
HETATM   23  C13 UNL     1      12.659  19.822  17.002  1.00  0.00     0.293 C
BRANCH  22  24
HETATM   24  C11 UNL     1      12.109  17.830  18.104  1.00  0.00     0.385 C
BRANCH  24  25
HETATM   25  C12 UNL     1      10.940  17.656  18.972  1.00  0.00     0.202 C
HETATM   26  O2  UNL     1       9.985  16.902  18.720  1.00  0.00    -0.647 OA
HETATM   27  O3  UNL     1      10.893  18.385  20.167  1.00  0.00    -0.647 OA
ENDBRANCH  24  25
ENDBRANCH  22  24
ENDBRANCH  15  16
ENDBRANCH  14  15
ENDBRANCH   6  14
BRANCH   5  28
HETATM   28  N2  UNL     1      17.806  24.277  15.928  1.00  0.00    -0.383 N
ATOM     29  H22 UNL     1      18.295  24.148  15.042  1.00  0.00     0.157 HD
ATOM     30  H21 UNL     1      16.787  24.236  15.904  1.00  0.00     0.157 HD
ENDBRANCH   5  28
BRANCH   9  31
HETATM   31  C16 UNL     1      20.386  25.346  20.652  1.00  0.00     0.116 C
BRANCH  31  32
HETATM   32  C17 UNL     1      21.804  25.147  20.917  1.00  0.00    -0.008 A
HETATM   33  C18 UNL     1      22.501  24.005  20.672  1.00  0.00    -0.049 A
HETATM   34  C19 UNL     1      21.867  22.754  20.146  1.00  0.00     0.049 C
HETATM   35  C20 UNL     1      23.881  23.960  20.919  1.00  0.00     0.014 A
HETATM   36  C21 UNL     1      24.579  25.034  21.408  1.00  0.00    -0.061 A
HETATM   37  C22 UNL     1      26.019  24.923  21.646  1.00  0.00     0.048 C
HETATM   38  C23 UNL     1      23.854  26.169  21.644  1.00  0.00     0.014 A
HETATM   39  C24 UNL     1      22.509  26.268  21.421  1.00  0.00    -0.049 A
HETATM   40  C25 UNL     1      21.807  27.585  21.645  1.00  0.00     0.049 C
ENDBRANCH  31  32
ENDBRANCH   9  31
BRANCH   1  41
HETATM   41  C2  UNL     1      21.671  26.851  14.533  1.00  0.00     0.056 C
HETATM   42  C1  UNL     1      20.893  27.997  13.969  1.00  0.00     0.011 C
ENDBRANCH   1  41
BRANCH  13  43
HETATM   43  N8  UNL     1      23.063  27.432  17.203  1.00  0.00    -0.366 N
BRANCH  43  44
HETATM   44  C28 UNL     1      23.454  28.557  16.436  1.00  0.00     0.120 C
HETATM   45  C29 UNL     1      24.803  28.322  15.781  1.00  0.00     0.026 C
ENDBRANCH  43  44
BRANCH  43  46
HETATM   46  C30 UNL     1      24.038  26.995  18.220  1.00  0.00     0.120 C
HETATM   47  C31 UNL     1      24.821  25.797  17.818  1.00  0.00     0.026 C
ENDBRANCH  43  46
ENDBRANCH  13  43
TORSDOF 12
ENDMDL