MODEL 3
REMARK VINA RESULT: -8.044915181      1.296      1.983
REMARK  14 active torsions:
REMARK  status: ('A' for Active; 'I' for Inactive)
REMARK    1  A    between atoms: C2_2  and  C3_3
REMARK    2  A    between atoms: C5_7  and  N2_8
REMARK    3  A    between atoms: C9_12  and  C10_13
REMARK       I    between atoms: C10_13  and  N3_15
REMARK    4  A    between atoms: N3_15  and  C11_16
REMARK    5  A    between atoms: N3_15  and  C13_18
REMARK    6  A    between atoms: C13_18  and  C14_19
REMARK    7  A    between atoms: C14_19  and  O2_20
REMARK    8  A    between atoms: C18_26  and  N5_27
REMARK    9  A    between atoms: N5_27  and  C19_29
REMARK   10  A    between atoms: C19_29  and  C20_30
REMARK   11  A    between atoms: C20_30  and  N6_31
REMARK   12  A    between atoms: N6_31  and  N7_33
REMARK   13  A    between atoms: N7_33  and  N8_34
REMARK   14  A    between atoms: C22_42  and  C23_43
ROOT
HETATM    1  C3  UNL     1      20.084  23.072  19.609  1.00  0.00     0.037 A
HETATM    2  N1  UNL     1      18.970  22.922  18.827  1.00  0.00    -0.352 N
ATOM      3  H1  UNL     1      18.318  22.172  19.056  1.00  0.00     0.166 HD
HETATM    4  C4  UNL     1      18.691  23.705  17.779  1.00  0.00     0.122 A
HETATM    5  C5  UNL     1      17.578  23.567  16.986  1.00  0.00     0.150 A
HETATM    6  N4  UNL     1      17.337  24.384  15.936  1.00  0.00    -0.174 N
ATOM      7  H4  UNL     1      16.498  24.244  15.374  1.00  0.00     0.186 HD
HETATM    8  C18 UNL     1      18.179  25.368  15.623  1.00  0.00     0.681 A
HETATM    9  N9  UNL     1      19.276  25.525  16.382  1.00  0.00    -0.174 N
ATOM     10  H9  UNL     1      19.926  26.276  16.150  1.00  0.00     0.186 HD
HETATM   11  C21 UNL     1      19.556  24.738  17.434  1.00  0.00     0.152 A
HETATM   12  N10 UNL     1      20.646  24.890  18.195  1.00  0.00    -0.338 N
ATOM     13  H10 UNL     1      21.297  25.640  17.966  1.00  0.00     0.167 HD
HETATM   14  C22 UNL     1      20.928  24.090  19.266  1.00  0.00     0.070 A
ENDROOT
BRANCH   5  15
HETATM   15  N2  UNL     1      16.648  22.514  17.321  1.00  0.00    -0.365 N
HETATM   16  C6  UNL     1      16.695  21.452  16.356  1.00  0.00     0.124 C
HETATM   17  C7  UNL     1      15.498  21.247  15.517  1.00  0.00     0.021 C
HETATM   18  C8  UNL     1      14.179  21.374  16.172  1.00  0.00     0.015 C
HETATM   19  C9  UNL     1      14.261  21.001  17.662  1.00  0.00     0.080 C
HETATM   20  C16 UNL     1      14.407  22.321  18.381  1.00  0.00     0.034 C
HETATM   21  C17 UNL     1      15.871  22.652  18.504  1.00  0.00     0.125 C
BRANCH  19  22
HETATM   22  C10 UNL     1      13.052  20.239  18.062  1.00  0.00     0.224 C
HETATM   23  O1  UNL     1      11.991  20.414  17.403  1.00  0.00    -0.273 OA
HETATM   24  N3  UNL     1      13.064  19.338  19.148  1.00  0.00    -0.350 N
BRANCH  24  25
HETATM   25  C11 UNL     1      14.252  19.091  19.924  1.00  0.00     0.121 C
HETATM   26  C12 UNL     1      14.072  19.633  21.338  1.00  0.00     0.026 C
ENDBRANCH  24  25
BRANCH  24  27
HETATM   27  C13 UNL     1      11.859  18.623  19.505  1.00  0.00     0.152 C
BRANCH  27  28
HETATM   28  C14 UNL     1      12.096  17.144  19.330  1.00  0.00     0.186 C
BRANCH  28  29
HETATM   29  O2  UNL     1      12.099  16.728  18.019  1.00  0.00    -0.394 OA
HETATM   30  C15 UNL     1      10.942  16.978  17.315  1.00  0.00     0.201 C
ENDBRANCH  28  29
ENDBRANCH  27  28
ENDBRANCH  24  27
ENDBRANCH  19  22
ENDBRANCH   5  15
BRANCH   8  31
HETATM   31  N5  UNL     1      17.974  26.161  14.652  1.00  0.00    -0.224 N
ATOM     32  H5  UNL     1      17.016  26.435  14.436  1.00  0.00     0.177 HD
BRANCH  31  33
HETATM   33  C19 UNL     1      19.030  26.681  13.855  1.00  0.00     0.160 C
BRANCH  33  34
HETATM   34  C20 UNL     1      19.703  27.889  14.470  1.00  0.00     0.175 C
BRANCH  34  35
HETATM   35  N6  UNL     1      21.137  27.754  14.305  1.00  0.00    -0.251 N
ATOM     36  H6  UNL     1      21.677  28.466  13.814  1.00  0.00     0.197 HD
BRANCH  35  37
HETATM   37  N7  UNL     1      21.693  26.742  14.781  1.00  0.00    -0.249 NA
BRANCH  37  38
HETATM   38  N8  UNL     1      22.401  25.799  15.152  1.00  0.00    -0.261 N
ATOM     39  H82 UNL     1      22.392  26.218  16.082  1.00  0.00     0.193 HD
ATOM     40  H81 UNL     1      22.976  24.970  15.306  1.00  0.00     0.193 HD
ENDBRANCH  37  38
ENDBRANCH  35  37
ENDBRANCH  34  35
ENDBRANCH  33  34
ENDBRANCH  31  33
ENDBRANCH   8  31
BRANCH   1  41
HETATM   41  C2  UNL     1      20.315  22.125  20.741  1.00  0.00     0.055 C
HETATM   42  C1  UNL     1      19.017  21.440  21.144  1.00  0.00     0.011 C
ENDBRANCH   1  41
BRANCH  14  43
HETATM   43  C23 UNL     1      22.159  24.379  19.990  1.00  0.00     0.036 A
HETATM   44  C24 UNL     1      23.243  23.567  20.071  1.00  0.00     0.019 A
HETATM   45  C25 UNL     1      24.350  23.894  20.813  1.00  0.00     0.018 A
HETATM   46  C26 UNL     1      24.368  25.089  21.507  1.00  0.00     0.089 A
HETATM   47  N11 UNL     1      23.292  25.909  21.435  1.00  0.00    -0.352 N
HETATM   48  C27 UNL     1      22.219  25.575  20.706  1.00  0.00     0.113 A
ATOM     49  H11 UNL     1      23.298  26.793  21.944  1.00  0.00     0.166 HD
HETATM   50  N12 UNL     1      21.188  26.379  20.640  1.00  0.00    -0.380 N
HETATM   51  C28 UNL     1      21.169  27.633  21.349  1.00  0.00     0.147 C
ATOM     52  H12 UNL     1      20.383  26.112  20.076  1.00  0.00     0.160 HD
ENDBRANCH  14  43
TORSDOF 14
ENDMDL