MODEL 4
REMARK VINA RESULT: -9.078074181      1.888      2.729
REMARK  12 active torsions:
REMARK  status: ('A' for Active; 'I' for Inactive)
REMARK    1  A    between atoms: C2_2  and  C3_3
REMARK    2  A    between atoms: C3_3  and  N1_4
REMARK    3  A    between atoms: N1_4  and  C5_6
REMARK    4  A    between atoms: C5_6  and  C6_7
REMARK    5  A    between atoms: C6_7  and  N2_8
REMARK    6  A    between atoms: N3_13  and  C10_14
REMARK    7  A    between atoms: C10_14  and  C11_15
REMARK    8  A    between atoms: N4_24  and  C19_25
REMARK    9  A    between atoms: C25_33  and  N6_34
REMARK   10  A    between atoms: N6_34  and  C26_36
REMARK   11  A    between atoms: C26_36  and  C27_37
REMARK   12  A    between atoms: C27_37  and  O3_38
ROOT
HETATM    1  N2  UNL     1      19.170  23.899  19.369  1.00  0.00    -0.264 N
HETATM    2  C7  UNL     1      17.892  23.659  19.699  1.00  0.00     0.260 A
HETATM    3  O1  UNL     1      17.496  23.633  20.897  1.00  0.00    -0.267 OA
HETATM    4  C8  UNL     1      17.003  23.436  18.674  1.00  0.00     0.043 A
HETATM    5  C9  UNL     1      17.401  23.456  17.325  1.00  0.00     0.070 A
HETATM    6  N3  UNL     1      18.674  23.699  17.034  1.00  0.00    -0.276 N
HETATM    7  C17 UNL     1      19.527  23.914  18.080  1.00  0.00     0.336 A
HETATM    8  O2  UNL     1      20.763  24.149  17.848  1.00  0.00    -0.246 OA
HETATM    9  C18 UNL     1      16.572  23.200  16.173  1.00  0.00     0.123 C
HETATM   10  N4  UNL     1      15.750  22.006  16.256  1.00  0.00    -0.335 N
HETATM   11  C24 UNL     1      15.462  21.314  17.456  1.00  0.00     0.135 A
HETATM   12  N5  UNL     1      15.243  20.010  17.246  1.00  0.00    -0.176 N
ATOM     13  H5  UNL     1      15.314  19.646  16.296  1.00  0.00     0.186 HD
HETATM   14  C25 UNL     1      14.934  19.163  18.242  1.00  0.00     0.682 A
HETATM   15  N7  UNL     1      14.824  19.581  19.535  1.00  0.00    -0.156 N
ATOM     16  H7  UNL     1      14.588  18.935  20.289  1.00  0.00     0.187 HD
HETATM   17  C29 UNL     1      15.044  20.903  19.767  1.00  0.00     0.270 A
HETATM   18  O4  UNL     1      14.952  21.326  20.951  1.00  0.00    -0.267 OA
HETATM   19  C30 UNL     1      15.358  21.761  18.760  1.00  0.00     0.059 A
HETATM   20  C31 UNL     1      15.606  23.166  19.174  1.00  0.00     0.095 C
ENDROOT
BRANCH   1  21
HETATM   21  C6  UNL     1      20.149  24.136  20.422  1.00  0.00     0.167 C
BRANCH  21  22
HETATM   22  C5  UNL     1      20.297  25.597  20.727  1.00  0.00     0.292 C
BRANCH  22  23
HETATM   23  N1  UNL     1      21.626  25.993  21.089  1.00  0.00     0.085 N
HETATM   24  C4  UNL     1      22.588  24.934  20.826  1.00  0.00     0.309 C
BRANCH  23  25
HETATM   25  C3  UNL     1      22.109  27.175  20.412  1.00  0.00     0.271 C
BRANCH  25  26
HETATM   26  C2  UNL     1      21.397  27.345  19.079  1.00  0.00     0.026 C
HETATM   27  C1  UNL     1      22.362  27.246  17.923  1.00  0.00     0.007 C
ENDBRANCH  25  26
ENDBRANCH  23  25
ENDBRANCH  22  23
ENDBRANCH  21  22
ENDBRANCH   1  21
BRANCH   6  28
HETATM   28  C10 UNL     1      19.189  23.830  15.740  1.00  0.00     0.079 C
BRANCH  28  29
HETATM   29  C11 UNL     1      19.453  25.245  15.281  1.00  0.00     0.025 C
HETATM   30  C12 UNL     1      18.495  25.860  14.337  1.00  0.00     0.010 C
HETATM   31  C13 UNL     1      18.849  27.305  14.024  1.00  0.00     0.001 C
HETATM   32  C14 UNL     1      20.128  27.738  14.683  1.00  0.00     0.000 C
HETATM   33  C15 UNL     1      21.250  26.778  14.498  1.00  0.00     0.001 C
HETATM   34  C16 UNL     1      20.828  25.356  14.606  1.00  0.00     0.010 C
ENDBRANCH  28  29
ENDBRANCH   6  28
BRANCH  10  35
HETATM   35  C19 UNL     1      15.174  21.463  15.044  1.00  0.00     0.091 C
HETATM   36  C20 UNL     1      13.678  21.827  15.040  1.00  0.00     0.026 C
HETATM   37  C21 UNL     1      13.492  22.895  14.027  1.00  0.00     0.002 C
HETATM   38  C22 UNL     1      14.728  23.050  13.227  1.00  0.00     0.002 C
HETATM   39  C23 UNL     1      15.644  22.028  13.771  1.00  0.00     0.026 C
ENDBRANCH  10  35
BRANCH  14  40
HETATM   40  N6  UNL     1      14.725  17.921  17.998  1.00  0.00    -0.224 N
ATOM     41  H6  UNL     1      15.331  17.423  17.346  1.00  0.00     0.177 HD
BRANCH  40  42
HETATM   42  C26 UNL     1      13.653  17.231  18.633  1.00  0.00     0.164 C
BRANCH  42  43
HETATM   43  C27 UNL     1      12.276  17.694  18.345  1.00  0.00     0.187 C
BRANCH  43  44
HETATM   44  O3  UNL     1      11.683  18.540  19.205  1.00  0.00    -0.394 OA
HETATM   45  C28 UNL     1      11.811  18.268  20.524  1.00  0.00     0.201 C
ENDBRANCH  43  44
ENDBRANCH  42  43
ENDBRANCH  40  42
ENDBRANCH  14  40
TORSDOF 12
ENDMDL