MODEL 5
REMARK VINA RESULT: -9.113426575      2.072      4.554
REMARK  12 active torsions:
REMARK  status: ('A' for Active; 'I' for Inactive)
REMARK    1  A    between atoms: O1_2  and  C2_3
REMARK    2  A    between atoms: C5_8  and  N2_9
REMARK    3  A    between atoms: N2_9  and  C6_11
REMARK    4  A    between atoms: C6_11  and  C7_12
REMARK    5  A    between atoms: N3_13  and  C9_15
REMARK    6  A    between atoms: C9_15  and  C10_16
REMARK    7  A    between atoms: C10_16  and  C11_17
REMARK    8  A    between atoms: C11_17  and  N4_18
REMARK    9  A    between atoms: C14_21  and  C15_22
REMARK   10  A    between atoms: C21_34  and  N8_35
REMARK   11  A    between atoms: N8_35  and  C22_36
REMARK   12  A    between atoms: C30_45  and  O2_46
ROOT
HETATM    1  C2  UNL     1      13.086  19.271  20.103  1.00  0.00     0.103 A
HETATM    2  C3  UNL     1      14.183  19.777  20.743  1.00  0.00     0.070 A
HETATM    3  C4  UNL     1      14.987  20.738  20.118  1.00  0.00     0.067 A
HETATM    4  N1  UNL     1      16.069  21.286  20.740  1.00  0.00    -0.191 N
ATOM      5  H1  UNL     1      16.319  20.983  21.681  1.00  0.00     0.184 HD
HETATM    6  C5  UNL     1      16.822  22.238  20.113  1.00  0.00     0.685 A
HETATM    7  N7  UNL     1      16.515  22.644  18.891  1.00  0.00    -0.163 N
ATOM      8  H7  UNL     1      17.098  23.358  18.454  1.00  0.00     0.187 HD
HETATM    9  C21 UNL     1      15.455  22.150  18.188  1.00  0.00     0.205 A
HETATM   10  C28 UNL     1      14.683  21.176  18.855  1.00  0.00     0.053 A
HETATM   11  C29 UNL     1      13.573  20.688  18.168  1.00  0.00     0.058 A
HETATM   12  C30 UNL     1      12.812  19.765  18.793  1.00  0.00     0.102 A
ENDROOT
BRANCH   6  13
HETATM   13  N2  UNL     1      17.885  22.708  20.723  1.00  0.00    -0.200 N
ATOM     14  H2  UNL     1      18.434  22.005  21.216  1.00  0.00     0.183 HD
BRANCH  13  15
HETATM   15  C6  UNL     1      18.390  23.990  20.812  1.00  0.00     0.123 C
BRANCH  15  16
HETATM   16  C7  UNL     1      18.709  24.667  19.484  1.00  0.00     0.102 C
HETATM   17  N3  UNL     1      19.648  24.103  18.679  1.00  0.00    -0.393 N
HETATM   18  C8  UNL     1      20.998  24.102  19.044  1.00  0.00     0.148 C
BRANCH  17  19
HETATM   19  C9  UNL     1      19.431  23.771  17.324  1.00  0.00     0.123 C
BRANCH  19  20
HETATM   20  C10 UNL     1      20.102  24.631  16.333  1.00  0.00     0.050 C
BRANCH  20  21
HETATM   21  C11 UNL     1      19.461  25.844  15.817  1.00  0.00     0.274 C
BRANCH  21  22
HETATM   22  N4  UNL     1      19.969  27.138  16.118  1.00  0.00     0.088 N
HETATM   23  C12 UNL     1      20.604  27.713  14.930  1.00  0.00     0.273 C
HETATM   24  C13 UNL     1      22.075  27.615  14.832  1.00  0.00     0.042 C
HETATM   25  C14 UNL     1      22.644  28.264  16.120  1.00  0.00     0.057 C
HETATM   26  C19 UNL     1      22.235  27.310  17.198  1.00  0.00     0.042 C
HETATM   27  C20 UNL     1      20.715  27.325  17.292  1.00  0.00     0.273 C
BRANCH  25  28
HETATM   28  C15 UNL     1      24.078  28.483  16.049  1.00  0.00     0.085 A
HETATM   29  N5  UNL     1      24.920  27.502  15.562  1.00  0.00    -0.355 N
HETATM   30  C16 UNL     1      26.233  27.791  15.466  1.00  0.00     0.090 A
ATOM     31  H5  UNL     1      24.559  26.589  15.283  1.00  0.00     0.166 HD
HETATM   32  C17 UNL     1      26.793  28.961  15.807  1.00  0.00     0.034 A
HETATM   33  C18 UNL     1      25.928  29.980  16.313  1.00  0.00     0.090 A
HETATM   34  N6  UNL     1      24.635  29.640  16.386  1.00  0.00    -0.355 N
ATOM     35  H6  UNL     1      24.002  30.356  16.743  1.00  0.00     0.166 HD
ENDBRANCH  25  28
ENDBRANCH  21  22
ENDBRANCH  20  21
ENDBRANCH  19  20
ENDBRANCH  17  19
ENDBRANCH  15  16
ENDBRANCH  13  15
ENDBRANCH   6  13
BRANCH   9  36
HETATM   36  N8  UNL     1      15.231  22.331  17.009  1.00  0.00    -0.394 NA
BRANCH  36  37
HETATM   37  C22 UNL     1      15.012  22.547  15.727  1.00  0.00     0.071 C
HETATM   38  C23 UNL     1      13.804  23.363  15.255  1.00  0.00     0.088 C
HETATM   39  C24 UNL     1      13.378  22.638  13.963  1.00  0.00     0.128 C
HETATM   40  N9  UNL     1      14.452  22.671  13.043  1.00  0.00    -0.397 N
HETATM   41  C25 UNL     1      14.549  21.456  12.249  1.00  0.00     0.148 C
HETATM   42  C26 UNL     1      15.703  23.201  13.421  1.00  0.00     0.064 C
HETATM   43  C27 UNL     1      16.195  22.904  14.799  1.00  0.00     0.112 C
ENDBRANCH  36  37
ENDBRANCH   9  36
BRANCH   1  44
HETATM   44  O1  UNL     1      12.212  18.352  20.554  1.00  0.00    -0.353 OA
HETATM   45  C1  UNL     1      12.232  17.000  20.636  1.00  0.00     0.210 C
ENDBRANCH   1  44
BRANCH  12  46
HETATM   46  O2  UNL     1      11.696  19.271  18.175  1.00  0.00    -0.353 OA
HETATM   47  C31 UNL     1      11.080  19.773  17.042  1.00  0.00     0.210 C
ENDBRANCH  12  46
TORSDOF 12
ENDMDL