MODEL 1
REMARK VINA RESULT: -9.622681963      0.000      0.000
REMARK  12 active torsions:
REMARK  status: ('A' for Active; 'I' for Inactive)
REMARK    1  A    between atoms: O1_2  and  C2_3
REMARK    2  A    between atoms: C4_5  and  C5_6
REMARK    3  A    between atoms: C5_6  and  C6_7
REMARK    4  A    between atoms: C6_7  and  N1_8
REMARK    5  A    between atoms: C12_17  and  N3_18
REMARK    6  A    between atoms: N3_18  and  C13_20
REMARK    7  A    between atoms: C13_20  and  C14_21
REMARK    8  A    between atoms: C14_21  and  C15_22
REMARK    9  A    between atoms: C15_22  and  N4_23
REMARK   10  A    between atoms: N5_26  and  C18_27
REMARK   11  A    between atoms: C28_43  and  O2_44
REMARK   12  A    between atoms: C30_46  and  O3_47
ROOT
HETATM    1  N1  UNL     1      14.352  19.864  20.532  1.00  0.00    -0.226 N
ATOM      2  H1  UNL     1      14.511  20.262  21.457  1.00  0.00     0.177 HD
HETATM    3  C7  UNL     1      14.678  20.608  19.542  1.00  0.00     0.678 A
HETATM    4  N2  UNL     1      15.199  21.846  19.804  1.00  0.00    -0.201 N
ATOM      5  H2  UNL     1      15.318  22.152  20.769  1.00  0.00     0.183 HD
HETATM    6  C8  UNL     1      15.557  22.662  18.793  1.00  0.00     0.120 A
HETATM    7  C9  UNL     1      15.418  22.300  17.471  1.00  0.00     0.008 A
HETATM    8  C10 UNL     1      15.777  23.120  16.419  1.00  0.00     0.032 A
HETATM    9  C11 UNL     1      15.628  22.730  15.103  1.00  0.00     0.035 A
HETATM   10  C12 UNL     1      15.996  23.578  14.039  1.00  0.00     0.114 A
HETATM   11  N6  UNL     1      15.846  23.197  12.763  1.00  0.00    -0.338 N
ATOM     12  H6  UNL     1      16.113  23.809  11.992  1.00  0.00     0.168 HD
HETATM   13  C23 UNL     1      15.325  21.964  12.538  1.00  0.00     0.182 A
HETATM   14  N7  UNL     1      14.973  21.153  13.547  1.00  0.00    -0.351 N
ATOM     15  H7  UNL     1      14.586  20.235  13.324  1.00  0.00     0.166 HD
HETATM   16  C24 UNL     1      15.107  21.497  14.834  1.00  0.00     0.049 A
HETATM   17  C25 UNL     1      14.744  20.668  15.889  1.00  0.00     0.061 A
HETATM   18  C26 UNL     1      14.889  21.043  17.214  1.00  0.00     0.063 A
HETATM   19  N8  UNL     1      14.552  20.275  18.247  1.00  0.00    -0.191 N
ATOM     20  H8  UNL     1      14.164  19.355  18.037  1.00  0.00     0.184 HD
ENDROOT
BRANCH   1  21
HETATM   21  C6  UNL     1      13.801  18.556  20.509  1.00  0.00     0.142 C
BRANCH  21  22
HETATM   22  C5  UNL     1      12.304  18.598  20.514  1.00  0.00     0.059 C
BRANCH  22  23
HETATM   23  C4  UNL     1      11.737  18.258  19.171  1.00  0.00    -0.051 A
HETATM   24  C3  UNL     1      11.268  19.210  18.293  1.00  0.00     0.047 A
HETATM   25  C2  UNL     1      10.750  18.846  17.051  1.00  0.00     0.104 A
HETATM   26  C30 UNL     1      10.686  17.524  16.653  1.00  0.00     0.135 A
HETATM   27  C28 UNL     1      11.155  16.573  17.534  1.00  0.00     0.104 A
HETATM   28  C27 UNL     1      11.668  16.939  18.766  1.00  0.00     0.047 A
BRANCH  25  29
HETATM   29  O1  UNL     1      10.273  19.796  16.154  1.00  0.00    -0.353 OA
HETATM   30  C1  UNL     1      11.243  20.544  15.406  1.00  0.00     0.210 C
ENDBRANCH  25  29
BRANCH  26  31
HETATM   31  O3  UNL     1      10.163  17.191  15.409  1.00  0.00    -0.351 OA
HETATM   32  C31 UNL     1      11.027  17.016  14.306  1.00  0.00     0.210 C
ENDBRANCH  26  31
BRANCH  27  33
HETATM   33  O2  UNL     1      11.088  15.247  17.127  1.00  0.00    -0.353 OA
HETATM   34  C29 UNL     1       9.997  14.465  17.593  1.00  0.00     0.210 C
ENDBRANCH  27  33
ENDBRANCH  22  23
ENDBRANCH  21  22
ENDBRANCH   1  21
BRANCH  10  35
HETATM   35  N3  UNL     1      16.479  24.707  14.370  1.00  0.00    -0.376 N
ATOM     36  H3  UNL     1      16.008  25.238  15.103  1.00  0.00     0.161 HD
BRANCH  35  37
HETATM   37  C13 UNL     1      17.643  25.267  13.770  1.00  0.00     0.123 C
BRANCH  37  38
HETATM   38  C14 UNL     1      18.291  26.195  14.777  1.00  0.00     0.050 C
BRANCH  38  39
HETATM   39  C15 UNL     1      18.246  25.650  16.170  1.00  0.00     0.274 C
BRANCH  39  40
HETATM   40  N4  UNL     1      19.413  24.846  16.412  1.00  0.00     0.091 N
HETATM   41  C16 UNL     1      19.201  23.756  17.306  1.00  0.00     0.291 C
HETATM   42  C17 UNL     1      19.287  24.151  18.783  1.00  0.00     0.147 C
HETATM   43  N5  UNL     1      20.452  24.890  19.064  1.00  0.00    -0.405 N
HETATM   44  C21 UNL     1      20.662  25.974  18.183  1.00  0.00     0.147 C
HETATM   45  C22 UNL     1      20.523  25.688  16.722  1.00  0.00     0.291 C
BRANCH  43  46
HETATM   46  C18 UNL     1      21.574  24.110  19.422  1.00  0.00     0.079 A
HETATM   47  C19 UNL     1      22.093  24.224  20.822  1.00  0.00     0.027 A
HETATM   48  C20 UNL     1      21.516  22.925  20.274  1.00  0.00     0.027 A
ENDBRANCH  43  46
ENDBRANCH  39  40
ENDBRANCH  38  39
ENDBRANCH  37  38
ENDBRANCH  35  37
ENDBRANCH  10  35
TORSDOF 12
ENDMDL