MODEL 5
REMARK VINA RESULT: -4.268389360      1.788      4.529
REMARK  6 active torsions:
REMARK  status: ('A' for Active; 'I' for Inactive)
REMARK    1  A    between atoms: N1_1  and  C1_4
REMARK    2  A    between atoms: C5_10  and  O1_11
REMARK    3  A    between atoms: O1_11  and  C6_12
REMARK    4  A    between atoms: C6_12  and  C7_13
REMARK    5  A    between atoms: C7_13  and  C8_14
REMARK    6  A    between atoms: C8_14  and  N3_15
ROOT
HETATM    1  C1  UNL     1      12.948  29.534  30.480  1.00  0.00     0.132 A
HETATM    2  N2  UNL     1      13.354  28.583  29.632  1.00  0.00    -0.350 N
ATOM      3  H2  UNL     1      13.957  28.862  28.859  1.00  0.00     0.166 HD
HETATM    4  C2  UNL     1      13.021  27.287  29.730  1.00  0.00     0.090 A
HETATM    5  C3  UNL     1      12.209  26.888  30.763  1.00  0.00     0.020 A
HETATM    6  C4  UNL     1      11.766  27.851  31.665  1.00  0.00     0.042 A
HETATM    7  C5  UNL     1      12.116  29.172  31.552  1.00  0.00     0.112 A
ENDROOT
BRANCH   7   8
HETATM    8  O1  UNL     1      11.702  30.129  32.409  1.00  0.00    -0.347 OA
BRANCH   8   9
HETATM    9  C6  UNL     1      12.042  30.481  33.687  1.00  0.00     0.177 C
BRANCH   9  10
HETATM   10  C7  UNL     1      11.757  29.496  34.775  1.00  0.00     0.054 C
BRANCH  10  11
HETATM   11  C8  UNL     1      10.302  29.691  35.203  1.00  0.00     0.231 C
BRANCH  11  12
HETATM   12  N3  UNL     1       9.479  28.912  34.302  1.00  0.00    -0.079 N
ATOM     13  H33 UNL     1       8.739  28.399  34.782  1.00  0.00     0.274 HD
ATOM     14  H32 UNL     1       8.880  29.488  33.711  1.00  0.00     0.274 HD
ATOM     15  H31 UNL     1      10.102  28.307  33.768  1.00  0.00     0.274 HD
ENDBRANCH  11  12
ENDBRANCH  10  11
ENDBRANCH   9  10
ENDBRANCH   8   9
ENDBRANCH   7   8
BRANCH   1  16
HETATM   16  N1  UNL     1      13.309  30.780  30.327  1.00  0.00    -0.383 N
ATOM     17  H12 UNL     1      13.910  31.044  29.546  1.00  0.00     0.157 HD
ATOM     18  H11 UNL     1      13.003  31.505  30.976  1.00  0.00     0.157 HD
ENDBRANCH   1  16
TORSDOF 6
ENDMDL