MODEL 3
REMARK VINA RESULT: -4.587891132      1.132      1.393
REMARK  5 active torsions:
REMARK  status: ('A' for Active; 'I' for Inactive)
REMARK    1  A    between atoms: N1_1  and  C1_5
REMARK    2  A    between atoms: C1_5  and  C2_6
REMARK    3  A    between atoms: C2_6  and  O1_7
REMARK    4  A    between atoms: O1_7  and  C3_8
REMARK    5  A    between atoms: C9_14  and  N2_15
ROOT
HETATM    1  C3  UNL     1      11.779  28.991  33.579  1.00  0.00     0.128 C
HETATM    2  C4  UNL     1      12.903  29.986  33.256  1.00  0.00     0.039 C
HETATM    3  C5  UNL     1      13.237  29.728  31.787  1.00  0.00     0.019 C
HETATM    4  C6  UNL     1      13.889  28.396  31.602  1.00  0.00     0.007 C
HETATM    5  C7  UNL     1      12.782  27.423  32.033  1.00  0.00     0.010 C
HETATM    6  C8  UNL     1      11.565  28.278  32.280  1.00  0.00     0.045 C
HETATM    7  C9  UNL     1      11.817  29.418  31.277  1.00  0.00     0.194 C
ENDROOT
BRANCH   1   8
HETATM    8  O1  UNL     1      10.670  29.603  34.092  1.00  0.00    -0.384 OA
BRANCH   8   9
HETATM    9  C2  UNL     1      10.620  29.433  35.469  1.00  0.00     0.195 C
BRANCH   9  10
HETATM   10  C1  UNL     1      10.107  30.667  36.170  1.00  0.00     0.255 C
BRANCH  10  11
HETATM   11  N1  UNL     1      11.001  31.766  35.872  1.00  0.00    -0.077 N
ATOM     12  H13 UNL     1      10.759  32.244  35.005  1.00  0.00     0.274 HD
ATOM     13  H12 UNL     1      10.877  32.555  36.506  1.00  0.00     0.274 HD
ATOM     14  H11 UNL     1      11.957  31.410  35.871  1.00  0.00     0.274 HD
ENDBRANCH  10  11
ENDBRANCH   9  10
ENDBRANCH   8   9
ENDBRANCH   1   8
BRANCH   7  15
HETATM   15  N2  UNL     1      11.853  28.925  29.931  1.00  0.00    -0.074 N
ATOM     16  H23 UNL     1      12.801  28.681  29.645  1.00  0.00     0.274 HD
ATOM     17  H22 UNL     1      11.427  28.001  29.857  1.00  0.00     0.274 HD
ATOM     18  H21 UNL     1      11.425  29.590  29.288  1.00  0.00     0.274 HD
ENDBRANCH   7  15
TORSDOF 5
ENDMDL