MODEL 4
REMARK VINA RESULT: -4.813166892      1.402      2.155
REMARK  6 active torsions:
REMARK  status: ('A' for Active; 'I' for Inactive)
REMARK    1  A    between atoms: N1_1  and  C1_5
REMARK    2  A    between atoms: C1_5  and  C2_6
REMARK    3  A    between atoms: C2_6  and  C3_7
REMARK    4  A    between atoms: C3_7  and  C4_8
REMARK    5  A    between atoms: C6_10  and  N2_11
REMARK    6  A    between atoms: N2_11  and  C7_13
ROOT
HETATM    1  C4  UNL     1      11.858  27.851  33.593  1.00  0.00     0.011 A
HETATM    2  C5  UNL     1      10.497  27.414  33.158  1.00  0.00     0.032 A
HETATM    3  C6  UNL     1      11.209  28.506  32.401  1.00  0.00     0.104 A
ENDROOT
BRANCH   3   4
HETATM    4  N2  UNL     1      11.781  28.206  31.109  1.00  0.00    -0.220 N
ATOM      5  H2  UNL     1      11.557  27.324  30.646  1.00  0.00     0.178 HD
BRANCH   4   6
HETATM    6  C7  UNL     1      12.584  29.061  30.530  1.00  0.00     0.694 A
HETATM    7  N3  UNL     1      13.354  28.836  29.457  1.00  0.00    -0.185 N
HETATM    8  C8  UNL     1      14.012  29.981  29.202  1.00  0.00     0.215 A
ATOM      9  H3  UNL     1      13.426  27.964  28.934  1.00  0.00     0.185 HD
HETATM   10  N4  UNL     1      13.653  30.904  30.109  1.00  0.00    -0.281 N
HETATM   11  N5  UNL     1      12.782  30.327  30.910  1.00  0.00    -0.131 N
ATOM     12  H4  UNL     1      13.990  31.865  30.166  1.00  0.00     0.188 HD
ATOM     13  H5  UNL     1      12.326  30.779  31.703  1.00  0.00     0.205 HD
ENDBRANCH   4   6
ENDBRANCH   3   4
BRANCH   1  14
HETATM   14  C3  UNL     1      11.894  28.691  34.832  1.00  0.00     0.008 C
BRANCH  14  15
HETATM   15  C2  UNL     1      11.466  30.121  34.591  1.00  0.00     0.028 C
BRANCH  15  16
HETATM   16  C1  UNL     1      10.564  30.485  35.776  1.00  0.00     0.229 C
BRANCH  16  17
HETATM   17  N1  UNL     1      10.734  31.840  36.194  1.00  0.00    -0.079 N
ATOM     18  H13 UNL     1      10.748  31.912  37.211  1.00  0.00     0.274 HD
ATOM     19  H12 UNL     1      11.678  32.171  35.994  1.00  0.00     0.274 HD
ATOM     20  H11 UNL     1      10.034  32.462  35.790  1.00  0.00     0.274 HD
ENDBRANCH  16  17
ENDBRANCH  15  16
ENDBRANCH  14  15
ENDBRANCH   1  14
TORSDOF 6
ENDMDL