MODEL 2
REMARK VINA RESULT: -4.892425172      4.546      7.624
REMARK  6 active torsions:
REMARK  status: ('A' for Active; 'I' for Inactive)
REMARK    1  A    between atoms: C4_5  and  N2_6
REMARK    2  A    between atoms: N2_6  and  C5_8
REMARK    3  A    between atoms: C5_8  and  C6_9
REMARK    4  A    between atoms: C6_9  and  C7_10
REMARK    5  A    between atoms: C7_10  and  C8_11
REMARK    6  A    between atoms: C8_11  and  N3_12
ROOT
HETATM    1  N1  UNL     1      14.060  30.863  30.542  1.00  0.00    -0.190 NA
HETATM    2  C1  UNL     1      13.499  30.452  31.467  1.00  0.00     0.119 C
HETATM    3  C2  UNL     1      12.799  29.958  32.630  1.00  0.00     0.132 A
HETATM    4  C3  UNL     1      12.226  30.673  33.651  1.00  0.00     0.091 A
HETATM    5  C4  UNL     1      11.679  29.779  34.529  1.00  0.00     0.118 A
HETATM    6  N4  UNL     1      11.926  28.558  34.033  1.00  0.00    -0.285 N
ATOM      7  H4  UNL     1      11.640  27.681  34.468  1.00  0.00     0.188 HD
HETATM    8  N5  UNL     1      12.588  28.658  32.909  1.00  0.00    -0.289 N
ATOM      9  H5  UNL     1      12.896  27.873  32.335  1.00  0.00     0.188 HD
ENDROOT
BRANCH   5  10
HETATM   10  N2  UNL     1      11.052  30.000  35.613  1.00  0.00    -0.375 N
ATOM     11  H2  UNL     1      11.609  30.300  36.413  1.00  0.00     0.161 HD
BRANCH  10  12
HETATM   12  C5  UNL     1       9.646  29.870  35.822  1.00  0.00     0.121 C
BRANCH  12  13
HETATM   13  C6  UNL     1       9.254  30.806  36.955  1.00  0.00     0.021 C
BRANCH  13  14
HETATM   14  C7  UNL     1      10.020  32.104  36.902  1.00  0.00     0.029 C
BRANCH  14  15
HETATM   15  C8  UNL     1      10.320  32.641  38.286  1.00  0.00     0.229 C
BRANCH  15  16
HETATM   16  N3  UNL     1      10.150  31.521  39.214  1.00  0.00    -0.079 N
ATOM     17  H33 UNL     1       9.766  31.800  40.117  1.00  0.00     0.274 HD
ATOM     18  H32 UNL     1       9.398  30.886  38.947  1.00  0.00     0.274 HD
ATOM     19  H31 UNL     1      11.058  31.063  39.286  1.00  0.00     0.274 HD
ENDBRANCH  15  16
ENDBRANCH  14  15
ENDBRANCH  13  14
ENDBRANCH  12  13
ENDBRANCH  10  12
ENDBRANCH   5  10
TORSDOF 6
ENDMDL