MODEL 2
REMARK VINA RESULT: -5.034028846      4.048      7.193
REMARK  6 active torsions:
REMARK  status: ('A' for Active; 'I' for Inactive)
REMARK    1  A    between atoms: N1_1  and  C1_5
REMARK    2  A    between atoms: C1_5  and  C2_6
REMARK    3  A    between atoms: C2_6  and  C3_7
REMARK    4  A    between atoms: C3_7  and  C4_8
REMARK    5  A    between atoms: C4_8  and  N2_9
REMARK    6  A    between atoms: N2_9  and  C5_11
ROOT
HETATM    1  N2  UNL     1      11.487  30.099  34.979  1.00  0.00    -0.376 N
ATOM      2  H2  UNL     1      11.993  30.725  35.605  1.00  0.00     0.161 HD
ENDROOT
BRANCH   1   3
HETATM    3  C4  UNL     1      10.187  29.664  35.401  1.00  0.00     0.121 C
BRANCH   3   4
HETATM    4  C3  UNL     1       9.790  30.505  36.594  1.00  0.00     0.021 C
BRANCH   4   5
HETATM    5  C2  UNL     1      10.299  31.898  36.405  1.00  0.00     0.029 C
BRANCH   5   6
HETATM    6  C1  UNL     1       9.590  32.848  37.325  1.00  0.00     0.229 C
BRANCH   6   7
HETATM    7  N1  UNL     1       9.044  33.936  36.542  1.00  0.00    -0.079 N
ATOM      8  H13 UNL     1       9.254  34.850  36.944  1.00  0.00     0.274 HD
ATOM      9  H12 UNL     1       9.529  34.058  35.653  1.00  0.00     0.274 HD
ATOM     10  H11 UNL     1       8.042  33.784  36.422  1.00  0.00     0.274 HD
ENDBRANCH   6   7
ENDBRANCH   5   6
ENDBRANCH   4   5
ENDBRANCH   3   4
ENDBRANCH   1   3
BRANCH   1  11
HETATM   11  C5  UNL     1      12.067  29.773  33.888  1.00  0.00     0.102 A
HETATM   12  C6  UNL     1      12.617  30.622  32.982  1.00  0.00     0.074 A
HETATM   13  C7  UNL     1      13.227  30.185  31.827  1.00  0.00     0.051 A
HETATM   14  N3  UNL     1      13.803  31.076  30.876  1.00  0.00    -0.102 NA
HETATM   15  C8  UNL     1      13.261  28.819  31.616  1.00  0.00     0.043 A
HETATM   16  C9  UNL     1      12.710  27.946  32.521  1.00  0.00     0.091 A
HETATM   17  N4  UNL     1      12.137  28.442  33.616  1.00  0.00    -0.352 N
ATOM     18  H4  UNL     1      11.729  27.790  34.285  1.00  0.00     0.166 HD
ENDBRANCH   1  11
TORSDOF 6
ENDMDL