MODEL 4
REMARK VINA RESULT: -4.631041001      6.858      9.501
REMARK  6 active torsions:
REMARK  status: ('A' for Active; 'I' for Inactive)
REMARK    1  A    between atoms: C2_2  and  O1_3
REMARK    2  A    between atoms: O1_3  and  C3_4
REMARK    3  A    between atoms: C3_4  and  C4_5
REMARK    4  A    between atoms: C4_5  and  N1_6
REMARK    5  A    between atoms: N1_6  and  C5_8
REMARK    6  A    between atoms: C8_15  and  N4_16
ROOT
HETATM    1  C5  UNL     1       9.896  30.411  35.959  1.00  0.00     0.145 A
HETATM    2  N2  UNL     1      11.116  30.647  35.461  1.00  0.00    -0.348 N
ATOM      3  H2  UNL     1      11.695  31.383  35.863  1.00  0.00     0.167 HD
HETATM    4  C6  UNL     1      11.580  29.916  34.430  1.00  0.00     0.107 A
HETATM    5  C7  UNL     1      10.824  28.900  33.847  1.00  0.00     0.107 A
HETATM    6  N3  UNL     1       9.605  28.665  34.344  1.00  0.00    -0.348 N
ATOM      7  H3  UNL     1       9.022  27.931  33.943  1.00  0.00     0.167 HD
HETATM    8  C8  UNL     1       9.142  29.408  35.386  1.00  0.00     0.143 A
ENDROOT
BRANCH   1   9
HETATM    9  N1  UNL     1       9.377  31.055  36.934  1.00  0.00    -0.371 N
ATOM     10  H1  UNL     1       8.474  31.499  36.765  1.00  0.00     0.161 HD
BRANCH   9  11
HETATM   11  C4  UNL     1       9.940  31.212  38.237  1.00  0.00     0.148 C
BRANCH  11  12
HETATM   12  C3  UNL     1      10.418  32.652  38.467  1.00  0.00     0.194 C
BRANCH  12  13
HETATM   13  O1  UNL     1      11.113  32.770  39.670  1.00  0.00    -0.362 OA
BRANCH  13  14
HETATM   14  C2  UNL     1      10.645  32.378  40.903  1.00  0.00     0.124 C
HETATM   15  C1  UNL     1      11.386  31.652  41.740  1.00  0.00     0.037 C
ENDBRANCH  13  14
ENDBRANCH  12  13
ENDBRANCH  11  12
ENDBRANCH   9  11
ENDBRANCH   1   9
BRANCH   8  16
HETATM   16  N4  UNL     1       7.958  29.112  35.801  1.00  0.00    -0.382 N
ATOM     17  H42 UNL     1       7.237  29.807  35.611  1.00  0.00     0.157 HD
ATOM     18  H41 UNL     1       7.753  28.240  36.287  1.00  0.00     0.157 HD
ENDBRANCH   8  16
TORSDOF 6
ENDMDL