MODEL 4
REMARK VINA RESULT: -4.244128617      2.814      4.741
REMARK  6 active torsions:
REMARK  status: ('A' for Active; 'I' for Inactive)
REMARK    1  A    between atoms: N1_1  and  C1_5
REMARK    2  A    between atoms: C1_5  and  C2_6
REMARK    3  A    between atoms: C2_6  and  C3_7
REMARK    4  A    between atoms: C3_7  and  C4_8
REMARK    5  A    between atoms: C7_14  and  C8_15
REMARK    6  A    between atoms: C8_15  and  N3_16
ROOT
HETATM    1  C4  UNL     1      12.506  29.286  32.972  1.00  0.00     0.012 C
HETATM    2  C5  UNL     1      11.298  28.729  32.284  1.00  0.00     0.237 C
HETATM    3  N2  UNL     1      10.208  28.464  33.192  1.00  0.00    -0.074 N
ATOM      4  H21 UNL     1       9.526  27.816  32.800  1.00  0.00     0.277 HD
ATOM      5  H22 UNL     1       9.594  29.270  33.306  1.00  0.00     0.277 HD
HETATM    6  C6  UNL     1      10.737  28.005  34.440  1.00  0.00     0.238 C
HETATM    7  C7  UNL     1      11.335  29.180  35.194  1.00  0.00     0.037 C
HETATM    8  C9  UNL     1      12.154  30.016  34.256  1.00  0.00     0.014 C
ENDROOT
BRANCH   1   9
HETATM    9  C3  UNL     1      13.140  30.314  32.048  1.00  0.00     0.008 C
BRANCH   9  10
HETATM   10  C2  UNL     1      13.030  29.847  30.634  1.00  0.00     0.027 C
BRANCH  10  11
HETATM   11  C1  UNL     1      14.116  30.373  29.739  1.00  0.00     0.229 C
BRANCH  11  12
HETATM   12  N1  UNL     1      13.675  30.083  28.364  1.00  0.00    -0.079 N
ATOM     13  H13 UNL     1      13.451  29.100  28.205  1.00  0.00     0.274 HD
ATOM     14  H12 UNL     1      12.752  30.455  28.143  1.00  0.00     0.274 HD
ATOM     15  H11 UNL     1      14.415  30.436  27.756  1.00  0.00     0.274 HD
ENDBRANCH  11  12
ENDBRANCH  10  11
ENDBRANCH   9  10
ENDBRANCH   1   9
BRANCH   7  16
HETATM   16  C8  UNL     1      10.190  29.954  35.811  1.00  0.00     0.236 C
BRANCH  16  17
HETATM   17  N3  UNL     1      10.619  31.284  36.210  1.00  0.00    -0.079 N
ATOM     18  H33 UNL     1      10.717  31.905  35.406  1.00  0.00     0.274 HD
ATOM     19  H32 UNL     1       9.882  31.785  36.704  1.00  0.00     0.274 HD
ATOM     20  H31 UNL     1      11.478  31.238  36.759  1.00  0.00     0.274 HD
ENDBRANCH  16  17
ENDBRANCH   7  16
TORSDOF 6
ENDMDL