MODEL 2
REMARK VINA RESULT: -4.583904900      2.397      5.840
REMARK  6 active torsions:
REMARK  status: ('A' for Active; 'I' for Inactive)
REMARK    1  A    between atoms: C3_3  and  N1_4
REMARK    2  A    between atoms: C3_3  and  C4_8
REMARK    3  A    between atoms: C3_3  and  C7_15
REMARK    4  A    between atoms: C4_8  and  C5_9
REMARK    5  A    between atoms: C5_9  and  C6_10
REMARK    6  A    between atoms: C6_10  and  N2_11
ROOT
HETATM    1  C1  UNL     1      14.906  25.944  31.302  1.00  0.00     0.015 C
HETATM    2  C2  UNL     1      14.030  26.758  31.349  1.00  0.00    -0.072 C
HETATM    3  C3  UNL     1      12.950  27.743  31.396  1.00  0.00     0.228 C
ENDROOT
BRANCH   3   4
HETATM    4  N1  UNL     1      11.768  27.109  30.815  1.00  0.00    -0.054 N
ATOM      5  H13 UNL     1      11.907  26.121  30.601  1.00  0.00     0.276 HD
ATOM      6  H12 UNL     1      11.007  26.991  31.483  1.00  0.00     0.276 HD
ATOM      7  H11 UNL     1      11.504  27.662  30.000  1.00  0.00     0.276 HD
ENDBRANCH   3   4
BRANCH   3   8
HETATM    8  C4  UNL     1      12.671  28.236  32.785  1.00  0.00     0.060 C
BRANCH   8   9
HETATM    9  C5  UNL     1      11.200  28.290  33.113  1.00  0.00     0.031 C
BRANCH   9  10
HETATM   10  C6  UNL     1      11.042  29.343  34.212  1.00  0.00     0.230 C
BRANCH  10  11
HETATM   11  N2  UNL     1      12.363  29.758  34.611  1.00  0.00    -0.079 N
ATOM     12  H23 UNL     1      12.468  29.829  35.623  1.00  0.00     0.274 HD
ATOM     13  H22 UNL     1      13.070  29.039  34.453  1.00  0.00     0.274 HD
ATOM     14  H21 UNL     1      12.571  30.632  34.128  1.00  0.00     0.274 HD
ENDBRANCH  10  11
ENDBRANCH   9  10
ENDBRANCH   8   9
ENDBRANCH   3   8
BRANCH   3  15
HETATM   15  C7  UNL     1      13.347  28.929  30.575  1.00  0.00     0.074 A
HETATM   16  C8  UNL     1      13.336  30.248  31.000  1.00  0.00     0.117 A
HETATM   17  N3  UNL     1      13.754  31.027  29.980  1.00  0.00    -0.360 N
HETATM   18  C9  UNL     1      14.031  30.242  28.926  1.00  0.00     0.180 A
ATOM     19  H3  UNL     1      13.846  32.042  30.005  1.00  0.00     0.166 HD
HETATM   20  N4  UNL     1      13.777  28.960  29.305  1.00  0.00    -0.352 N
ATOM     21  H4  UNL     1      13.897  28.140  28.709  1.00  0.00     0.166 HD
ENDBRANCH   3  15
TORSDOF 6
ENDMDL