MODEL 1
REMARK VINA RESULT: -5.035363617      0.000      0.000
REMARK  6 active torsions:
REMARK  status: ('A' for Active; 'I' for Inactive)
REMARK    1  A    between atoms: N1_1  and  C1_5
REMARK    2  A    between atoms: C1_5  and  C2_6
REMARK    3  A    between atoms: C4_12  and  N4_13
REMARK    4  A    between atoms: N4_13  and  C5_15
REMARK    5  A    between atoms: C5_15  and  C6_16
REMARK    6  A    between atoms: C6_16  and  C7_17
ROOT
HETATM    1  C2  UNL     1      12.589  29.411  31.915  1.00  0.00     0.029 A
HETATM    2  C3  UNL     1      13.128  30.652  31.673  1.00  0.00     0.119 A
HETATM    3  N2  UNL     1      13.301  30.823  30.354  1.00  0.00    -0.310 N
ATOM      4  H2  UNL     1      13.669  31.663  29.906  1.00  0.00     0.186 HD
HETATM    5  N3  UNL     1      12.933  29.768  29.758  1.00  0.00    -0.286 N
ATOM      6  H3  UNL     1      12.986  29.614  28.751  1.00  0.00     0.188 HD
HETATM    7  C4  UNL     1      12.422  28.806  30.730  1.00  0.00     0.125 A
ENDROOT
BRANCH   7   8
HETATM    8  N4  UNL     1      11.927  27.838  30.143  1.00  0.00    -0.375 N
ATOM      9  H4  UNL     1      10.996  28.020  29.769  1.00  0.00     0.161 HD
BRANCH   8  10
HETATM   10  C5  UNL     1      12.425  26.448  29.871  1.00  0.00     0.121 C
BRANCH  10  11
HETATM   11  C6  UNL     1      11.166  25.651  30.371  1.00  0.00     0.024 C
BRANCH  11  12
HETATM   12  C7  UNL     1      10.517  24.799  29.427  1.00  0.00    -0.013 A
HETATM   13  C8  UNL     1       9.089  24.770  28.990  1.00  0.00     0.005 A
HETATM   14  C9  UNL     1      10.192  25.236  28.011  1.00  0.00     0.005 A
ENDBRANCH  11  12
ENDBRANCH  10  11
ENDBRANCH   8  10
ENDBRANCH   7   8
BRANCH   1  15
HETATM   15  C1  UNL     1      12.213  28.770  33.223  1.00  0.00     0.273 C
BRANCH  15  16
HETATM   16  N1  UNL     1      12.510  29.745  34.301  1.00  0.00    -0.075 N
ATOM     17  H13 UNL     1      12.471  30.713  33.983  1.00  0.00     0.274 HD
ATOM     18  H12 UNL     1      11.770  29.803  35.000  1.00  0.00     0.274 HD
ATOM     19  H11 UNL     1      13.415  29.495  34.701  1.00  0.00     0.274 HD
ENDBRANCH  15  16
ENDBRANCH   1  15
TORSDOF 6
ENDMDL