MODEL 1
REMARK VINA RESULT: -5.192890999      0.000      0.000
REMARK  6 active torsions:
REMARK  status: ('A' for Active; 'I' for Inactive)
REMARK    1  A    between atoms: N1_1  and  C1_5
REMARK    2  A    between atoms: C1_5  and  C2_6
REMARK    3  A    between atoms: C2_6  and  C3_7
REMARK    4  A    between atoms: C3_7  and  C4_8
REMARK    5  A    between atoms: C4_8  and  N2_9
REMARK    6  A    between atoms: N2_9  and  C5_11
ROOT
HETATM    1  N2  UNL     1      11.716  30.190  34.455  1.00  0.00    -0.375 N
ATOM      2  H2  UNL     1      12.142  30.963  34.967  1.00  0.00     0.161 HD
ENDROOT
BRANCH   1   3
HETATM    3  C4  UNL     1      10.508  29.645  35.001  1.00  0.00     0.121 C
BRANCH   3   4
HETATM    4  C3  UNL     1      10.282  30.289  36.375  1.00  0.00     0.021 C
BRANCH   4   5
HETATM    5  C2  UNL     1      10.405  31.777  36.169  1.00  0.00     0.029 C
BRANCH   5   6
HETATM    6  C1  UNL     1       9.657  32.555  37.230  1.00  0.00     0.229 C
BRANCH   6   7
HETATM    7  N1  UNL     1       9.155  33.740  36.601  1.00  0.00    -0.079 N
ATOM      8  H13 UNL     1       9.251  33.728  35.586  1.00  0.00     0.274 HD
ATOM      9  H12 UNL     1       8.137  33.812  36.634  1.00  0.00     0.274 HD
ATOM     10  H11 UNL     1       9.627  34.531  37.038  1.00  0.00     0.274 HD
ENDBRANCH   6   7
ENDBRANCH   5   6
ENDBRANCH   4   5
ENDBRANCH   3   4
ENDBRANCH   1   3
BRANCH   1  11
HETATM   11  C5  UNL     1      12.308  29.808  33.399  1.00  0.00     0.125 A
HETATM   12  N3  UNL     1      12.614  28.537  33.093  1.00  0.00    -0.351 N
HETATM   13  C6  UNL     1      13.248  28.226  31.940  1.00  0.00     0.090 A
ATOM     14  H3  UNL     1      12.363  27.792  33.743  1.00  0.00     0.166 HD
HETATM   15  C7  UNL     1      13.613  29.184  31.024  1.00  0.00     0.019 A
HETATM   16  C8  UNL     1      13.315  30.498  31.305  1.00  0.00     0.032 A
HETATM   17  C9  UNL     1      12.670  30.793  32.483  1.00  0.00     0.090 A
HETATM   18  N4  UNL     1      12.370  32.154  32.756  1.00  0.00    -0.098 NA
ENDBRANCH   1  11
TORSDOF 6
ENDMDL