MODEL 5
REMARK VINA RESULT: -6.687230462      2.750      5.937
REMARK  7 active torsions:
REMARK  status: ('A' for Active; 'I' for Inactive)
REMARK    1  A    between atoms: C3_3  and  C4_4
REMARK    2  A    between atoms: C4_4  and  O1_7
REMARK    3  A    between atoms: C7_9  and  C8_10
REMARK    4  A    between atoms: C8_10  and  C9_11
REMARK    5  A    between atoms: C9_11  and  C10_12
REMARK    6  A    between atoms: C16_19  and  O3_20
REMARK    7  A    between atoms: O3_20  and  C17_21
ROOT
HETATM    1  C1  UNL     1      -8.464   1.645  24.513  1.00  0.00     0.046 C
HETATM    2  C2  UNL     1      -7.453   2.366  23.732  1.00  0.00    -0.044 C
HETATM    3  C3  UNL     1      -6.901   3.536  24.010  1.00  0.00    -0.008 C
HETATM    4  C7  UNL     1      -5.896   3.987  23.003  1.00  0.00     0.090 C
HETATM    5  C14 UNL     1      -4.914   2.888  22.840  1.00  0.00     0.078 C
HETATM    6  C15 UNL     1      -5.959   2.469  21.828  1.00  0.00     0.160 C
HETATM    7  O2  UNL     1      -6.484   3.752  21.736  1.00  0.00    -0.367 OA
HETATM    8  C16 UNL     1      -7.023   1.635  22.464  1.00  0.00     0.193 C
ENDROOT
BRANCH   4   9
HETATM    9  C8  UNL     1      -5.446   5.388  23.049  1.00  0.00     0.044 C
BRANCH   9  10
HETATM   10  C9  UNL     1      -5.762   6.037  21.690  1.00  0.00     0.011 C
BRANCH  10  11
HETATM   11  C10 UNL     1      -6.536   7.329  21.973  1.00  0.00    -0.051 C
HETATM   12  C11 UNL     1      -7.916   7.021  22.451  1.00  0.00     0.014 C
HETATM   13  C12 UNL     1      -5.724   8.155  22.919  1.00  0.00     0.014 C
HETATM   14  C13 UNL     1      -6.643   8.060  20.655  1.00  0.00     0.014 C
ENDBRANCH  10  11
ENDBRANCH   9  10
ENDBRANCH   4   9
BRANCH   3  15
HETATM   15  C4  UNL     1      -7.259   4.294  25.206  1.00  0.00     0.077 C
HETATM   16  C5  UNL     1      -8.724   4.675  25.261  1.00  0.00     0.050 C
HETATM   17  C6  UNL     1      -7.011   3.501  26.505  1.00  0.00     0.050 C
BRANCH  15  18
HETATM   18  O1  UNL     1      -6.540   5.470  25.342  1.00  0.00    -0.386 OA
ATOM     19  H1  UNL     1      -7.013   6.236  25.039  1.00  0.00     0.211 HD
ENDBRANCH  15  18
ENDBRANCH   3  15
BRANCH   8  20
HETATM   20  O3  UNL     1      -8.191   1.620  21.650  1.00  0.00    -0.283 OA
BRANCH  20  21
HETATM   21  C17 UNL     1      -8.683   0.522  21.004  1.00  0.00     0.333 C
HETATM   22  O4  UNL     1      -9.882   0.527  20.627  1.00  0.00    -0.624 OA
HETATM   23  O5  UNL     1      -7.946  -0.619  20.725  1.00  0.00    -0.624 OA
ENDBRANCH  20  21
ENDBRANCH   8  20
TORSDOF 7
ENDMDL