MODEL 4
REMARK VINA RESULT: -6.436765939      4.028      6.379
REMARK  3 active torsions:
REMARK  status: ('A' for Active; 'I' for Inactive)
REMARK    1  A    between atoms: C5_6  and  C6_7
REMARK       I    between atoms: C6_7  and  N1_9
REMARK    2  A    between atoms: N1_9  and  C7_11
REMARK    3  A    between atoms: C10_15  and  C11_16
ROOT
HETATM    1  C7  UNL     1      -6.815   3.787  26.655  1.00  0.00     0.084 A
HETATM    2  S2  UNL     1      -7.019   2.740  25.355  1.00  0.00    -0.074 SA
HETATM    3  C8  UNL     1      -6.935   3.827  24.082  1.00  0.00     0.017 A
HETATM    4  C9  UNL     1      -6.735   5.075  24.718  1.00  0.00    -0.032 A
HETATM    5  C10 UNL     1      -6.672   5.051  26.053  1.00  0.00    -0.013 A
HETATM    6  C14 UNL     1      -6.670   6.116  23.611  1.00  0.00     0.068 C
HETATM    7  C15 UNL     1      -5.530   5.644  22.718  1.00  0.00     0.237 C
HETATM    8  N2  UNL     1      -5.908   4.469  21.968  1.00  0.00    -0.070 N
ATOM      9  H21 UNL     1      -5.109   3.851  21.825  1.00  0.00     0.277 HD
ATOM     10  H22 UNL     1      -6.110   4.703  20.995  1.00  0.00     0.277 HD
HETATM   11  C16 UNL     1      -7.011   3.760  22.571  1.00  0.00     0.279 C
ENDROOT
BRANCH   1  12
HETATM   12  N1  UNL     1      -6.784   3.512  28.078  1.00  0.00    -0.316 N
HETATM   13  C6  UNL     1      -8.002   3.486  28.766  1.00  0.00     0.264 C
HETATM   14  O1  UNL     1      -9.037   3.717  28.026  1.00  0.00    -0.267 OA
ATOM     15  H1  UNL     1      -5.903   3.342  28.563  1.00  0.00     0.169 HD
BRANCH  13  16
HETATM   16  C5  UNL     1      -8.221   3.237  30.180  1.00  0.00     0.078 A
HETATM   17  C2  UNL     1      -8.183   2.150  30.986  1.00  0.00    -0.039 A
HETATM   18  C1  UNL     1      -7.845   0.773  30.445  1.00  0.00     0.050 C
HETATM   19  C3  UNL     1      -8.453   2.320  32.304  1.00  0.00     0.015 A
HETATM   20  C4  UNL     1      -8.745   3.589  32.726  1.00  0.00     0.051 A
HETATM   21  S1  UNL     1      -8.640   4.498  31.298  1.00  0.00    -0.096 SA
ENDBRANCH  13  16
ENDBRANCH   1  12
BRANCH   5  22
HETATM   22  C11 UNL     1      -6.486   6.233  26.963  1.00  0.00     0.014 C
HETATM   23  C12 UNL     1      -5.304   7.094  26.762  1.00  0.00     0.015 C
HETATM   24  C13 UNL     1      -7.709   7.114  26.953  1.00  0.00     0.015 C
ENDBRANCH   5  22
TORSDOF 3
ENDMDL