MODEL 4
REMARK VINA RESULT: -6.411973258      1.647      3.814
REMARK  5 active torsions:
REMARK  status: ('A' for Active; 'I' for Inactive)
REMARK    1  A    between atoms: C4_4  and  N1_5
REMARK       I    between atoms: N1_5  and  C5_7
REMARK    2  A    between atoms: C5_7  and  O2_9
REMARK    3  A    between atoms: O2_9  and  C6_10
REMARK    4  A    between atoms: C11_17  and  C12_18
REMARK    5  A    between atoms: C12_18  and  N3_20
ROOT
HETATM    1  C1  UNL     1      -6.418   2.182  25.378  1.00  0.00     0.049 C
HETATM    2  C2  UNL     1      -7.212   3.157  26.143  1.00  0.00    -0.049 A
HETATM    3  C3  UNL     1      -7.205   3.041  27.527  1.00  0.00     0.056 A
HETATM    4  C4  UNL     1      -7.917   3.898  28.312  1.00  0.00     0.109 A
HETATM    5  N2  UNL     1      -8.639   4.876  27.672  1.00  0.00    -0.352 N
ATOM      6  H2  UNL     1      -9.181   5.532  28.234  1.00  0.00     0.166 HD
HETATM    7  C10 UNL     1      -8.655   5.001  26.337  1.00  0.00     0.099 A
HETATM    8  C11 UNL     1      -7.939   4.142  25.534  1.00  0.00    -0.015 A
ENDROOT
BRANCH   8   9
HETATM    9  C12 UNL     1      -7.956   4.272  24.038  1.00  0.00     0.114 C
HETATM   10  C13 UNL     1      -9.309   3.919  23.466  1.00  0.00     0.037 C
BRANCH   9  11
HETATM   11  N3  UNL     1      -7.509   5.556  23.684  1.00  0.00    -0.372 N
HETATM   12  C14 UNL     1      -6.483   6.233  23.906  1.00  0.00     0.073 C
HETATM   13  C15 UNL     1      -5.320   5.811  24.698  1.00  0.00     0.076 C
HETATM   14  N4  UNL     1      -6.430   7.558  23.331  1.00  0.00    -0.380 N
HETATM   15  C16 UNL     1      -4.073   6.596  24.383  1.00  0.00     0.009 C
HETATM   16  C17 UNL     1      -4.251   8.049  24.183  1.00  0.00     0.020 C
HETATM   17  C18 UNL     1      -5.647   8.536  24.061  1.00  0.00     0.121 C
ATOM     18  H4  UNL     1      -6.915   7.792  22.465  1.00  0.00     0.160 HD
ATOM     19  H3  UNL     1      -8.185   6.056  23.107  1.00  0.00     0.161 HD
ENDBRANCH   9  11
ENDBRANCH   8   9
BRANCH   4  20
HETATM   20  N1  UNL     1      -7.978   3.866  29.710  1.00  0.00    -0.288 N
HETATM   21  C5  UNL     1      -8.834   3.121  30.527  1.00  0.00     0.367 C
HETATM   22  O1  UNL     1      -9.713   2.339  30.159  1.00  0.00    -0.238 OA
ATOM     23  H1  UNL     1      -7.310   4.464  30.196  1.00  0.00     0.172 HD
BRANCH  21  24
HETATM   24  O2  UNL     1      -8.706   3.254  31.925  1.00  0.00    -0.294 OA
BRANCH  24  25
HETATM   25  C6  UNL     1      -7.847   2.412  32.647  1.00  0.00     0.061 C
HETATM   26  C7  UNL     1      -6.643   3.151  33.190  1.00  0.00     0.046 C
HETATM   27  C8  UNL     1      -8.634   1.896  33.844  1.00  0.00     0.046 C
HETATM   28  C9  UNL     1      -7.365   1.234  31.850  1.00  0.00     0.046 C
ENDBRANCH  24  25
ENDBRANCH  21  24
ENDBRANCH   4  20
TORSDOF 5
ENDMDL