MODEL 3
REMARK VINA RESULT: -6.972130638      1.591      2.331
REMARK  6 active torsions:
REMARK  status: ('A' for Active; 'I' for Inactive)
REMARK    1  A    between atoms: C2_2  and  C3_3
REMARK    2  A    between atoms: C3_3  and  C4_4
REMARK    3  A    between atoms: C4_4  and  C5_6
REMARK    4  A    between atoms: C5_6  and  C6_7
REMARK    5  A    between atoms: C9_10  and  O2_11
REMARK    6  A    between atoms: C19_22  and  O3_24
ROOT
HETATM    1  C6  UNL     1      -8.390   4.293  24.439  1.00  0.00    -0.034 C
HETATM    2  C7  UNL     1      -8.113   5.520  23.946  1.00  0.00    -0.049 C
HETATM    3  C8  UNL     1      -8.523   5.929  22.592  1.00  0.00     0.046 C
HETATM    4  C9  UNL     1      -7.329   6.471  24.781  1.00  0.00     0.152 C
HETATM    5  C10 UNL     1      -6.306   5.581  25.478  1.00  0.00     0.038 C
HETATM    6  C11 UNL     1      -5.097   6.325  25.846  1.00  0.00    -0.041 C
HETATM    7  C12 UNL     1      -4.182   6.371  24.600  1.00  0.00     0.015 C
HETATM    8  C13 UNL     1      -5.270   7.783  26.186  1.00  0.00     0.015 C
HETATM    9  C14 UNL     1      -4.261   5.680  26.920  1.00  0.00     0.009 C
HETATM   10  C15 UNL     1      -5.027   4.923  27.950  1.00  0.00     0.002 C
HETATM   11  C16 UNL     1      -5.915   3.918  27.230  1.00  0.00     0.013 C
HETATM   12  C17 UNL     1      -6.975   4.730  26.489  1.00  0.00    -0.002 C
HETATM   13  C18 UNL     1      -7.760   5.459  27.553  1.00  0.00     0.019 C
HETATM   14  C19 UNL     1      -7.966   3.830  25.782  1.00  0.00     0.086 C
HETATM   15  C20 UNL     1      -7.433   2.411  25.661  1.00  0.00     0.051 C
ENDROOT
BRANCH   1  16
HETATM   16  C5  UNL     1      -9.124   3.401  23.510  1.00  0.00     0.116 C
BRANCH  16  17
HETATM   17  C4  UNL     1      -8.413   2.254  22.961  1.00  0.00     0.134 C
HETATM   18  O1  UNL     1      -8.535   1.082  23.258  1.00  0.00    -0.297 OA
BRANCH  17  19
HETATM   19  C3  UNL     1      -7.381   2.497  21.880  1.00  0.00     0.105 C
BRANCH  19  20
HETATM   20  C2  UNL     1      -6.015   2.604  22.406  1.00  0.00    -0.030 C
HETATM   21  C1  UNL     1      -5.381   3.758  22.339  1.00  0.00     0.007 C
ENDBRANCH  19  20
ENDBRANCH  17  19
ENDBRANCH  16  17
ENDBRANCH   1  16
BRANCH  14  22
HETATM   22  O3  UNL     1      -9.134   3.693  26.568  1.00  0.00    -0.385 OA
ATOM     23  H3  UNL     1      -9.626   4.501  26.485  1.00  0.00     0.211 HD
ENDBRANCH  14  22
BRANCH   4  24
HETATM   24  O2  UNL     1      -8.064   7.258  25.614  1.00  0.00    -0.391 OA
ATOM     25  H2  UNL     1      -7.677   7.422  26.466  1.00  0.00     0.210 HD
ENDBRANCH   4  24
TORSDOF 6
ENDMDL