MODEL 5
REMARK VINA RESULT: -6.198094688      2.479      3.095
REMARK  4 active torsions:
REMARK  status: ('A' for Active; 'I' for Inactive)
REMARK    1  A    between atoms: C2_2  and  C4_4
REMARK    2  A    between atoms: C8_8  and  C9_9
REMARK    3  A    between atoms: C10_12  and  C11_13
REMARK       I    between atoms: C11_13  and  N2_15
REMARK    4  A    between atoms: N2_15  and  C12_17
ROOT
HETATM    1  C9  UNL     1      -7.979   3.747  28.360  1.00  0.00     0.086 A
HETATM    2  N1  UNL     1      -7.761   3.105  27.234  1.00  0.00    -0.343 N
ATOM      3  H1  UNL     1      -7.604   2.097  27.244  1.00  0.00     0.167 HD
HETATM    4  C10 UNL     1      -7.746   3.754  26.106  1.00  0.00     0.133 A
HETATM    5  C16 UNL     1      -7.963   5.111  26.164  1.00  0.00     0.121 A
HETATM    6  N3  UNL     1      -7.997   6.057  25.076  1.00  0.00    -0.092 NA
HETATM    7  S1  UNL     1      -8.176   5.357  27.842  1.00  0.00    -0.054 SA
ENDROOT
BRANCH   1   8
HETATM    8  C8  UNL     1      -8.046   3.255  29.746  1.00  0.00    -0.002 A
HETATM    9  C7  UNL     1      -7.846   1.945  30.041  1.00  0.00     0.014 A
HETATM   10  C6  UNL     1      -7.912   1.490  31.351  1.00  0.00     0.002 A
HETATM   11  C5  UNL     1      -8.185   2.407  32.343  1.00  0.00     0.007 A
HETATM   12  C4  UNL     1      -8.395   3.754  32.088  1.00  0.00    -0.054 A
HETATM   13  C17 UNL     1      -8.318   4.145  30.770  1.00  0.00     0.021 A
BRANCH  12  14
HETATM   14  C2  UNL     1      -8.689   4.734  33.170  1.00  0.00     0.010 C
HETATM   15  C1  UNL     1      -7.438   5.328  33.762  1.00  0.00     0.015 C
HETATM   16  C3  UNL     1      -9.496   5.895  32.588  1.00  0.00     0.015 C
ENDBRANCH  12  14
ENDBRANCH   1   8
BRANCH   4  17
HETATM   17  C11 UNL     1      -7.505   3.075  24.804  1.00  0.00     0.271 C
HETATM   18  O1  UNL     1      -8.002   1.953  24.586  1.00  0.00    -0.266 OA
HETATM   19  N2  UNL     1      -6.720   3.664  23.782  1.00  0.00    -0.348 N
ATOM     20  H2  UNL     1      -6.313   4.583  23.957  1.00  0.00     0.163 HD
BRANCH  19  21
HETATM   21  C12 UNL     1      -6.465   3.040  22.513  1.00  0.00     0.022 C
HETATM   22  C13 UNL     1      -7.703   2.452  21.909  1.00  0.00     0.037 C
HETATM   23  C14 UNL     1      -5.436   1.929  22.619  1.00  0.00     0.037 C
HETATM   24  C15 UNL     1      -5.875   4.095  21.577  1.00  0.00     0.037 C
ENDBRANCH  19  21
ENDBRANCH   4  17
TORSDOF 4
ENDMDL