MODEL 4
REMARK VINA RESULT: -6.684457717      2.947      6.197
REMARK  4 active torsions:
REMARK  status: ('A' for Active; 'I' for Inactive)
REMARK    1  A    between atoms: C8_8  and  C9_9
REMARK    2  A    between atoms: C9_9  and  C12_12
REMARK    3  A    between atoms: C14_14  and  C16_16
REMARK    4  A    between atoms: N1_20  and  O2_22
ROOT
HETATM    1  C12 UNL     1      -7.836   4.160  24.157  1.00  0.00     0.013 C
HETATM    2  C13 UNL     1      -7.969   3.712  25.532  1.00  0.00     0.080 C
HETATM    3  C14 UNL     1      -7.780   4.786  26.587  1.00  0.00     0.064 C
HETATM    4  C15 UNL     1      -9.173   5.109  27.132  1.00  0.00     0.030 C
HETATM    5  C18 UNL     1      -7.194   6.021  26.087  1.00  0.00     0.048 C
HETATM    6  N1  UNL     1      -6.853   6.915  26.979  1.00  0.00    -0.274 N
ATOM      7  H1  UNL     1      -7.013   6.704  27.964  1.00  0.00     0.193 HD
HETATM    8  C19 UNL     1      -6.984   6.281  24.653  1.00  0.00     0.126 C
HETATM    9  C20 UNL     1      -5.543   6.058  24.235  1.00  0.00     0.038 C
HETATM   10  N2  UNL     1      -7.903   5.524  23.830  1.00  0.00    -0.383 N
ATOM     11  H2  UNL     1      -8.511   5.924  23.116  1.00  0.00     0.160 HD
ENDROOT
BRANCH   1  12
HETATM   12  C9  UNL     1      -8.660   3.242  23.226  1.00  0.00    -0.031 C
HETATM   13  C10 UNL     1      -9.920   3.390  23.376  1.00  0.00    -0.021 C
HETATM   14  C11 UNL     1     -11.042   2.657  22.788  1.00  0.00     0.036 C
BRANCH  12  15
HETATM   15  C8  UNL     1      -7.943   2.301  22.424  1.00  0.00     0.052 C
HETATM   16  C2  UNL     1      -8.112   0.855  22.813  1.00  0.00    -0.080 C
HETATM   17  C1  UNL     1      -8.398   0.376  23.989  1.00  0.00     0.015 C
HETATM   18  C3  UNL     1      -7.874  -0.100  21.699  1.00  0.00     0.034 C
HETATM   19  C4  UNL     1      -7.278   0.631  20.521  1.00  0.00     0.005 C
HETATM   20  C5  UNL     1      -6.244   1.645  20.816  1.00  0.00     0.005 C
HETATM   21  C6  UNL     1      -6.496   2.401  22.163  1.00  0.00    -0.006 C
HETATM   22  C7  UNL     1      -5.667   1.569  23.168  1.00  0.00     0.011 C
ENDBRANCH  12  15
ENDBRANCH   1  12
BRANCH   3  23
HETATM   23  C16 UNL     1      -6.993   4.296  27.746  1.00  0.00     0.137 C
HETATM   24  C17 UNL     1      -7.664   3.828  29.007  1.00  0.00     0.092 C
HETATM   25  O1  UNL     1      -5.779   4.282  27.652  1.00  0.00    -0.297 OA
ENDBRANCH   3  23
BRANCH   6  26
HETATM   26  O2  UNL     1      -6.297   8.109  26.656  1.00  0.00    -0.290 OA
ATOM     27  H2  UNL     1      -5.963   8.717  27.304  1.00  0.00     0.244 HD
ENDBRANCH   6  26
TORSDOF 4
ENDMDL