MODEL 2
REMARK VINA RESULT: -7.961748232      2.813      5.279
REMARK  4 active torsions:
REMARK  status: ('A' for Active; 'I' for Inactive)
REMARK    1  A    between atoms: C3_3  and  C4_4
REMARK    2  A    between atoms: C11_11  and  S1_12
REMARK    3  A    between atoms: S1_12  and  C12_13
REMARK    4  A    between atoms: C17_24  and  N4_25
ROOT
HETATM    1  C1  UNL     1      -7.551   6.486  25.601  1.00  0.00     0.049 C
HETATM    2  C2  UNL     1      -7.018   5.770  24.442  1.00  0.00    -0.041 A
HETATM    3  C3  UNL     1      -6.133   6.414  23.563  1.00  0.00    -0.048 A
HETATM    4  C7  UNL     1      -5.661   5.751  22.479  1.00  0.00     0.009 A
HETATM    5  C8  UNL     1      -6.029   4.437  22.204  1.00  0.00     0.014 A
HETATM    6  C9  UNL     1      -6.880   3.797  23.038  1.00  0.00    -0.005 A
HETATM    7  C10 UNL     1      -7.394   4.472  24.192  1.00  0.00     0.015 A
HETATM    8  C11 UNL     1      -8.250   3.804  25.025  1.00  0.00     0.083 A
HETATM    9  N1  UNL     1      -8.577   2.538  24.728  1.00  0.00    -0.335 N
ATOM     10  H1  UNL     1      -9.215   2.052  25.357  1.00  0.00     0.168 HD
HETATM   11  C15 UNL     1      -8.126   1.876  23.673  1.00  0.00     0.122 A
HETATM   12  N2  UNL     1      -8.497   0.603  23.433  1.00  0.00    -0.338 N
ATOM     13  H2  UNL     1      -9.137   0.134  24.073  1.00  0.00     0.168 HD
HETATM   14  C16 UNL     1      -8.032  -0.053  22.360  1.00  0.00     0.183 A
HETATM   15  N3  UNL     1      -7.185   0.550  21.501  1.00  0.00    -0.338 N
ATOM     16  H3  UNL     1      -6.844   0.031  20.691  1.00  0.00     0.168 HD
HETATM   17  C17 UNL     1      -6.771   1.843  21.691  1.00  0.00     0.114 A
HETATM   18  C18 UNL     1      -7.255   2.496  22.789  1.00  0.00     0.063 A
ENDROOT
BRANCH   8  19
HETATM   19  S1  UNL     1      -8.912   4.589  26.467  1.00  0.00    -0.107 SA
BRANCH  19  20
HETATM   20  C12 UNL     1      -7.856   4.337  27.914  1.00  0.00     0.045 C
HETATM   21  C13 UNL     1      -8.609   3.461  28.894  1.00  0.00     0.021 C
HETATM   22  C14 UNL     1      -6.550   3.683  27.569  1.00  0.00     0.021 C
ENDBRANCH  19  20
ENDBRANCH   8  19
BRANCH   3  23
HETATM   23  C4  UNL     1      -5.689   7.823  23.837  1.00  0.00     0.011 C
HETATM   24  C5  UNL     1      -5.723   8.540  22.473  1.00  0.00     0.015 C
HETATM   25  C6  UNL     1      -4.222   7.889  24.208  1.00  0.00     0.015 C
ENDBRANCH   3  23
BRANCH  17  26
HETATM   26  N4  UNL     1      -5.984   2.280  20.817  1.00  0.00    -0.385 N
ATOM     27  H42 UNL     1      -5.098   2.766  20.956  1.00  0.00     0.157 HD
ATOM     28  H41 UNL     1      -6.281   2.122  19.854  1.00  0.00     0.157 HD
ENDBRANCH  17  26
TORSDOF 4
ENDMDL