MODEL 5
REMARK VINA RESULT: -6.952549782      2.506      5.130
REMARK  6 active torsions:
REMARK  status: ('A' for Active; 'I' for Inactive)
REMARK    1  A    between atoms: C2_2  and  O1_3
REMARK    2  A    between atoms: C2_2  and  C3_5
REMARK    3  A    between atoms: C8_10  and  C9_11
REMARK    4  A    between atoms: C9_11  and  O2_12
REMARK    5  A    between atoms: C9_11  and  C10_14
REMARK    6  A    between atoms: C13_17  and  O3_18
ROOT
HETATM    1  C3  UNL     1      -7.591   2.074  23.025  1.00  0.00     0.033 A
HETATM    2  C4  UNL     1      -6.720   2.793  22.245  1.00  0.00    -0.036 A
HETATM    3  C5  UNL     1      -6.022   2.158  21.108  1.00  0.00     0.050 C
HETATM    4  C6  UNL     1      -6.391   4.123  22.542  1.00  0.00    -0.021 A
HETATM    5  C7  UNL     1      -6.922   4.746  23.632  1.00  0.00    -0.017 A
HETATM    6  C8  UNL     1      -7.825   4.056  24.470  1.00  0.00     0.013 A
HETATM    7  C13 UNL     1      -8.138   2.747  24.156  1.00  0.00     0.088 A
HETATM    8  C14 UNL     1      -6.385   6.088  24.034  1.00  0.00     0.138 C
HETATM    9  C15 UNL     1      -5.175   5.858  24.890  1.00  0.00     0.070 C
HETATM   10  N1  UNL     1      -4.242   5.671  25.531  1.00  0.00    -0.197 NA
HETATM   11  C16 UNL     1      -5.962   6.919  22.869  1.00  0.00    -0.010 C
HETATM   12  C17 UNL     1      -4.899   7.921  23.343  1.00  0.00     0.021 C
HETATM   13  C18 UNL     1      -7.111   7.802  22.381  1.00  0.00     0.021 C
HETATM   14  C19 UNL     1      -5.393   6.213  21.731  1.00  0.00    -0.015 C
HETATM   15  C20 UNL     1      -5.606   4.891  21.585  1.00  0.00     0.009 C
ENDROOT
BRANCH   6  16
HETATM   16  C9  UNL     1      -8.357   4.821  25.565  1.00  0.00     0.158 C
BRANCH  16  17
HETATM   17  O2  UNL     1      -9.790   4.399  25.546  1.00  0.00    -0.390 OA
ATOM     18  H2  UNL     1     -10.005   4.433  26.470  1.00  0.00     0.210 HD
ENDBRANCH  16  17
BRANCH  16  19
HETATM   19  C10 UNL     1      -7.978   4.791  26.967  1.00  0.00     0.011 C
HETATM   20  C11 UNL     1      -6.922   3.812  27.397  1.00  0.00     0.012 C
HETATM   21  C12 UNL     1      -7.682   6.132  27.605  1.00  0.00     0.012 C
ENDBRANCH  16  19
ENDBRANCH   6  16
BRANCH   7  22
HETATM   22  O3  UNL     1      -8.968   2.018  24.893  1.00  0.00    -0.359 OA
ATOM     23  H3  UNL     1      -8.560   1.558  25.617  1.00  0.00     0.217 HD
ENDBRANCH   7  22
BRANCH   1  24
HETATM   24  C2  UNL     1      -8.002   0.719  22.746  1.00  0.00     0.053 C
HETATM   25  C1  UNL     1      -7.911  -0.102  21.553  1.00  0.00     0.077 C
BRANCH  24  26
HETATM   26  O1  UNL     1      -8.568   0.084  23.732  1.00  0.00    -0.364 OA
ATOM     27  H1  UNL     1      -8.882   0.679  24.403  1.00  0.00     0.217 HD
ENDBRANCH  24  26
ENDBRANCH   1  24
TORSDOF 6
ENDMDL