MODEL 5
REMARK VINA RESULT: -7.138910333      1.087      1.687
REMARK  6 active torsions:
REMARK  status: ('A' for Active; 'I' for Inactive)
REMARK    1  A    between atoms: C2_2  and  C3_3
REMARK    2  A    between atoms: C3_3  and  C4_4
REMARK    3  A    between atoms: C3_3  and  C9_9
REMARK    4  A    between atoms: C4_4  and  C5_5
REMARK    5  A    between atoms: C13_15  and  N2_16
REMARK    6  A    between atoms: C18_25  and  N4_26
ROOT
HETATM    1  C9  UNL     1      -7.116   4.189  25.183  1.00  0.00     0.002 A
HETATM    2  C10 UNL     1      -8.307   3.604  25.700  1.00  0.00     0.015 A
HETATM    3  C11 UNL     1      -8.930   4.068  26.951  1.00  0.00     0.069 C
HETATM    4  N1  UNL     1      -8.975   2.692  24.987  1.00  0.00    -0.356 N
ATOM      5  H1  UNL     1      -9.824   2.282  25.377  1.00  0.00     0.166 HD
HETATM    6  C12 UNL     1      -8.571   2.309  23.805  1.00  0.00     0.090 A
HETATM    7  C13 UNL     1      -9.325   1.353  23.171  1.00  0.00     0.127 A
HETATM    8  N3  UNL     1      -8.959   0.903  21.966  1.00  0.00    -0.350 N
ATOM      9  H3  UNL     1      -9.519   0.195  21.490  1.00  0.00     0.166 HD
HETATM   10  C14 UNL     1      -7.859   1.388  21.390  1.00  0.00     0.097 A
HETATM   11  C15 UNL     1      -7.027   2.377  21.985  1.00  0.00    -0.032 A
HETATM   12  C16 UNL     1      -5.802   2.775  21.324  1.00  0.00     0.050 C
HETATM   13  C17 UNL     1      -7.404   2.848  23.225  1.00  0.00     0.035 A
HETATM   14  C18 UNL     1      -6.662   3.801  23.906  1.00  0.00     0.124 A
ENDROOT
BRANCH   1  15
HETATM   15  C3  UNL     1      -6.297   5.006  26.085  1.00  0.00     0.023 C
BRANCH  15  16
HETATM   16  C2  UNL     1      -5.542   4.233  27.160  1.00  0.00     0.005 C
HETATM   17  C1  UNL     1      -4.319   5.067  27.619  1.00  0.00     0.006 C
ENDBRANCH  15  16
BRANCH  15  18
HETATM   18  C4  UNL     1      -6.954   6.184  26.732  1.00  0.00     0.017 C
BRANCH  18  19
HETATM   19  C5  UNL     1      -7.053   7.556  26.307  1.00  0.00    -0.051 C
HETATM   20  C6  UNL     1      -7.111   8.689  27.251  1.00  0.00     0.014 C
HETATM   21  C7  UNL     1      -8.435   7.629  25.551  1.00  0.00     0.014 C
HETATM   22  C8  UNL     1      -6.083   7.958  25.188  1.00  0.00     0.014 C
ENDBRANCH  18  19
ENDBRANCH  15  18
ENDBRANCH   1  15
BRANCH  14  23
HETATM   23  N4  UNL     1      -5.597   4.435  23.306  1.00  0.00    -0.114 N
HETATM   24  O1  UNL     1      -4.384   4.296  23.252  1.00  0.00    -0.532 OA
HETATM   25  O2  UNL     1      -5.991   5.593  22.544  1.00  0.00    -0.532 OA
ENDBRANCH  14  23
BRANCH   7  26
HETATM   26  N2  UNL     1     -10.401   0.864  23.724  1.00  0.00    -0.384 N
ATOM     27  H22 UNL     1     -10.974   1.474  24.308  1.00  0.00     0.157 HD
ATOM     28  H21 UNL     1     -10.674  -0.108  23.580  1.00  0.00     0.157 HD
ENDBRANCH   7  26
TORSDOF 6
ENDMDL