MODEL 2
REMARK VINA RESULT: -7.310416560      1.000      1.095
REMARK  7 active torsions:
REMARK  status: ('A' for Active; 'I' for Inactive)
REMARK    1  A    between atoms: C2_2  and  N1_5
REMARK       I    between atoms: N1_5  and  C5_7
REMARK    2  A    between atoms: C5_7  and  O2_9
REMARK    3  A    between atoms: O2_9  and  C6_10
REMARK    4  A    between atoms: C6_10  and  O3_11
REMARK    5  A    between atoms: O3_11  and  C7_12
REMARK       I    between atoms: C7_12  and  N2_14
REMARK    6  A    between atoms: N2_14  and  C8_16
REMARK    7  A    between atoms: C11_19  and  C12_20
ROOT
HETATM    1  C7  UNL     1      -6.267   7.295  22.528  1.00  0.00     0.367 C
HETATM    2  O4  UNL     1      -7.353   7.312  21.897  1.00  0.00    -0.238 OA
HETATM    3  N2  UNL     1      -5.720   6.113  22.991  1.00  0.00    -0.303 N
ATOM      4  H2  UNL     1      -4.824   6.148  23.476  1.00  0.00     0.171 HD
ENDROOT
BRANCH   1   5
HETATM    5  O3  UNL     1      -5.643   8.526  22.740  1.00  0.00    -0.277 OA
BRANCH   5   6
HETATM    6  C6  UNL     1      -4.719   8.641  23.836  1.00  0.00     0.361 C
BRANCH   6   7
HETATM    7  O2  UNL     1      -5.215   9.235  24.954  1.00  0.00    -0.278 OA
BRANCH   7   8
HETATM    8  C5  UNL     1      -5.775   8.596  26.021  1.00  0.00     0.363 C
HETATM    9  N1  UNL     1      -6.870   7.714  25.731  1.00  0.00    -0.329 N
ATOM     10  H1  UNL     1      -7.167   7.614  24.760  1.00  0.00     0.165 HD
HETATM   11  O1  UNL     1      -5.332   8.796  27.158  1.00  0.00    -0.238 OA
BRANCH   9  12
HETATM   12  C2  UNL     1      -7.562   6.973  26.731  1.00  0.00     0.024 C
HETATM   13  C1  UNL     1      -6.744   5.794  27.171  1.00  0.00     0.037 C
HETATM   14  C3  UNL     1      -8.871   6.431  26.143  1.00  0.00     0.037 C
HETATM   15  C4  UNL     1      -7.857   7.864  27.907  1.00  0.00     0.037 C
ENDBRANCH   9  12
ENDBRANCH   7   8
ENDBRANCH   6   7
ENDBRANCH   5   6
ENDBRANCH   1   5
BRANCH   3  16
HETATM   16  C8  UNL     1      -6.347   4.862  22.821  1.00  0.00     0.036 A
HETATM   17  C9  UNL     1      -7.438   4.524  23.584  1.00  0.00     0.030 A
HETATM   18  C10 UNL     1      -8.089   3.293  23.418  1.00  0.00     0.010 A
HETATM   19  C11 UNL     1      -7.667   2.376  22.492  1.00  0.00    -0.051 A
HETATM   20  C16 UNL     1      -6.570   2.731  21.734  1.00  0.00     0.010 A
HETATM   21  C17 UNL     1      -5.912   3.942  21.882  1.00  0.00     0.030 A
BRANCH  19  22
HETATM   22  C12 UNL     1      -8.371   1.078  22.344  1.00  0.00    -0.024 C
HETATM   23  C13 UNL     1      -9.803   1.321  21.927  1.00  0.00     0.019 C
HETATM   24  C14 UNL     1      -7.693   0.145  21.378  1.00  0.00     0.019 C
HETATM   25  C15 UNL     1      -8.441   0.477  23.742  1.00  0.00     0.019 C
ENDBRANCH  19  22
ENDBRANCH   3  16
TORSDOF 7
ENDMDL