MODEL 3
REMARK VINA RESULT: -4.282555289      0.959      1.600
REMARK  3 active torsions:
REMARK  status: ('A' for Active; 'I' for Inactive)
REMARK    1  A    between atoms: N1_1  and  C1_5
REMARK    2  A    between atoms: C4_8  and  N2_9
REMARK    3  A    between atoms: N2_9  and  C5_12
ROOT
HETATM    1  C1  UNL     1      25.173 -12.615 -10.728  1.00  0.00     0.185 C
HETATM    2  C2  UNL     1      26.305 -12.403 -11.703  1.00  0.00     0.034 C
HETATM    3  C3  UNL     1      27.369 -11.773 -10.818  1.00  0.00     0.035 C
HETATM    4  C4  UNL     1      26.545 -10.753 -10.060  1.00  0.00     0.188 C
HETATM    5  C10 UNL     1      25.371 -11.595  -9.615  1.00  0.00     0.065 C
ENDROOT
BRANCH   4   6
HETATM    6  N2  UNL     1      27.245 -10.143  -8.971  1.00  0.00    -0.067 N
ATOM      7  H22 UNL     1      26.744 -10.234  -8.086  1.00  0.00     0.278 HD
ATOM      8  H21 UNL     1      28.086 -10.659  -8.711  1.00  0.00     0.278 HD
BRANCH   6   9
HETATM    9  C5  UNL     1      27.523  -8.777  -9.305  1.00  0.00     0.186 C
HETATM   10  C6  UNL     1      26.590  -8.256 -10.386  1.00  0.00     0.033 C
HETATM   11  C7  UNL     1      27.401  -7.329 -11.255  1.00  0.00     0.002 C
HETATM   12  C8  UNL     1      28.666  -7.122 -10.432  1.00  0.00     0.002 C
HETATM   13  C9  UNL     1      28.868  -8.553  -9.939  1.00  0.00     0.033 C
ENDBRANCH   6   9
ENDBRANCH   4   6
BRANCH   1  14
HETATM   14  N1  UNL     1      23.909 -12.357 -11.404  1.00  0.00    -0.075 N
ATOM     15  H13 UNL     1      23.311 -13.182 -11.438  1.00  0.00     0.274 HD
ATOM     16  H12 UNL     1      23.292 -11.756 -10.858  1.00  0.00     0.274 HD
ATOM     17  H11 UNL     1      24.100 -11.977 -12.331  1.00  0.00     0.274 HD
ENDBRANCH   1  14
TORSDOF 3
ENDMDL