MODEL 1
REMARK VINA RESULT: -6.410601450      0.000      0.000
REMARK  3 active torsions:
REMARK  status: ('A' for Active; 'I' for Inactive)
REMARK    1  A    between atoms: N1_2  and  O1_3
REMARK    2  A    between atoms: N1_2  and  N2_5
REMARK       I    between atoms: N2_5  and  C2_7
REMARK       I    between atoms: C2_7  and  N4_11
REMARK    3  A    between atoms: N4_11  and  C3_13
ROOT
HETATM    1  N2  UNL     1      23.102 -13.064  -6.623  1.00  0.00    -0.107 N
ATOM      2  H2  UNL     1      23.785 -13.239  -5.887  1.00  0.00     0.208 HD
HETATM    3  C2  UNL     1      21.878 -12.399  -6.340  1.00  0.00     0.688 C
HETATM    4  N3  UNL     1      21.824 -11.136  -6.537  1.00  0.00    -0.234 N
ATOM      5  H31 UNL     1      20.945 -10.660  -6.334  1.00  0.00     0.174 HD
ATOM      6  H32 UNL     1      22.631 -10.620  -6.887  1.00  0.00     0.174 HD
HETATM    7  N4  UNL     1      20.753 -13.120  -5.853  1.00  0.00    -0.221 N
ATOM      8  H4  UNL     1      20.618 -14.102  -6.095  1.00  0.00     0.178 HD
ENDROOT
BRANCH   1   9
HETATM    9  N1  UNL     1      23.342 -13.470  -7.937  1.00  0.00    -0.171 N
HETATM   10  C1  UNL     1      24.449 -13.176  -8.514  1.00  0.00     0.178 C
BRANCH   9  11
HETATM   11  O1  UNL     1      22.354 -14.184  -8.562  1.00  0.00    -0.269 OA
ATOM     12  H1  UNL     1      22.091 -15.051  -8.275  1.00  0.00     0.247 HD
ENDBRANCH   9  11
ENDBRANCH   1   9
BRANCH   7  13
HETATM   13  C3  UNL     1      19.809 -12.435  -5.010  1.00  0.00     0.099 C
HETATM   14  C4  UNL     1      19.354 -13.303  -3.836  1.00  0.00     0.026 C
HETATM   15  C5  UNL     1      18.176 -12.427  -3.376  1.00  0.00     0.002 C
HETATM   16  C6  UNL     1      17.412 -12.334  -4.671  1.00  0.00     0.002 C
HETATM   17  C7  UNL     1      18.518 -12.121  -5.685  1.00  0.00     0.026 C
ENDBRANCH   7  13
TORSDOF 3
ENDMDL