MODEL 5
REMARK VINA RESULT: -5.903905430      2.769      8.027
REMARK  2 active torsions:
REMARK  status: ('A' for Active; 'I' for Inactive)
REMARK    1  A    between atoms: C2_4  and  N2_5
REMARK       I    between atoms: N2_5  and  C3_7
REMARK       I    between atoms: C3_7  and  N4_11
REMARK    2  A    between atoms: N4_11  and  C4_13
ROOT
HETATM    1  N2  UNL     1      24.876 -13.157  -8.445  1.00  0.00    -0.189 N
ATOM      2  H2  UNL     1      25.647 -13.432  -7.836  1.00  0.00     0.184 HD
HETATM    3  C3  UNL     1      25.191 -12.545  -9.702  1.00  0.00     0.672 C
HETATM    4  N3  UNL     1      24.246 -12.455 -10.550  1.00  0.00    -0.235 N
ATOM      5  H31 UNL     1      24.470 -12.020 -11.445  1.00  0.00     0.174 HD
ATOM      6  H32 UNL     1      23.295 -12.786 -10.387  1.00  0.00     0.174 HD
HETATM    7  N4  UNL     1      26.525 -12.081  -9.930  1.00  0.00    -0.222 N
ATOM      8  H4  UNL     1      27.280 -12.643  -9.537  1.00  0.00     0.178 HD
ENDROOT
BRANCH   1   9
HETATM    9  C2  UNL     1      23.568 -13.396  -8.006  1.00  0.00     0.193 C
HETATM   10  N1  UNL     1      23.094 -12.762  -6.995  1.00  0.00    -0.390 N
HETATM   11  C1  UNL     1      21.758 -12.975  -6.510  1.00  0.00     0.147 C
ATOM     12  H1  UNL     1      23.686 -12.082  -6.519  1.00  0.00     0.159 HD
ENDBRANCH   1   9
BRANCH   7  13
HETATM   13  C4  UNL     1      26.899 -10.932 -10.640  1.00  0.00     0.099 C
HETATM   14  C5  UNL     1      26.373  -9.619 -10.196  1.00  0.00     0.026 C
HETATM   15  C6  UNL     1      27.366  -8.971  -9.225  1.00  0.00     0.002 C
HETATM   16  C7  UNL     1      28.547  -8.474 -10.032  1.00  0.00     0.000 C
HETATM   17  C8  UNL     1      28.817  -9.450 -11.159  1.00  0.00     0.002 C
HETATM   18  C9  UNL     1      28.410 -10.819 -10.673  1.00  0.00     0.026 C
ENDBRANCH   7  13
TORSDOF 2
ENDMDL