MODEL 4
REMARK VINA RESULT: -4.744058275      1.582      2.093
REMARK  4 active torsions:
REMARK  status: ('A' for Active; 'I' for Inactive)
REMARK    1  A    between atoms: C1_2  and  C2_4
REMARK    2  A    between atoms: C2_4  and  C3_5
REMARK    3  A    between atoms: C3_5  and  O3_6
REMARK    4  A    between atoms: N1_8  and  O4_10
ROOT
HETATM    1  C2  UNL     1      26.118 -12.061 -11.109  1.00  0.00     0.114 C
HETATM    2  C4  UNL     1      27.450 -11.982 -10.347  1.00  0.00     0.029 C
HETATM    3  C5  UNL     1      28.507 -12.364 -11.362  1.00  0.00     0.002 C
HETATM    4  C6  UNL     1      28.452 -13.891 -11.470  1.00  0.00     0.000 C
HETATM    5  C7  UNL     1      27.050 -14.266 -11.888  1.00  0.00     0.002 C
HETATM    6  C8  UNL     1      26.217 -13.058 -12.244  1.00  0.00     0.029 C
ENDROOT
BRANCH   1   7
HETATM    7  C1  UNL     1      25.875 -10.687 -11.609  1.00  0.00     0.190 C
HETATM    8  O1  UNL     1      25.173  -9.910 -10.930  1.00  0.00    -0.647 OA
HETATM    9  O2  UNL     1      26.413 -10.241 -12.823  1.00  0.00    -0.647 OA
ENDBRANCH   1   7
BRANCH   1  10
HETATM   10  C3  UNL     1      25.015 -12.418 -10.190  1.00  0.00     0.155 C
HETATM   11  N1  UNL     1      25.190 -12.409  -8.924  1.00  0.00    -0.250 N
ATOM     12  H1  UNL     1      26.097 -12.154  -8.533  1.00  0.00     0.196 HD
BRANCH  10  13
HETATM   13  O3  UNL     1      23.778 -12.766 -10.690  1.00  0.00    -0.347 OA
ATOM     14  H3  UNL     1      22.989 -12.557 -10.204  1.00  0.00     0.219 HD
ENDBRANCH  10  13
BRANCH  11  15
HETATM   15  O4  UNL     1      24.152 -12.743  -8.101  1.00  0.00    -0.288 OA
ATOM     16  H4  UNL     1      23.952 -12.191  -7.354  1.00  0.00     0.244 HD
ENDBRANCH  11  15
ENDBRANCH   1  10
TORSDOF 4
ENDMDL