MODEL 4
REMARK VINA RESULT: -4.922721535      1.492      5.054
REMARK  3 active torsions:
REMARK  status: ('A' for Active; 'I' for Inactive)
REMARK    1  A    between atoms: C2_2  and  C4_5
REMARK    2  A    between atoms: C4_5  and  N3_9
REMARK    3  A    between atoms: N3_9  and  C5_11
ROOT
HETATM    1  C1  UNL     1      27.351 -13.663 -11.895  1.00  0.00     0.039 C
HETATM    2  C2  UNL     1      27.786 -12.893 -10.915  1.00  0.00     0.078 C
HETATM    3  C3  UNL     1      29.125 -13.110 -10.437  1.00  0.00     0.102 C
HETATM    4  N1  UNL     1      30.220 -13.285 -10.068  1.00  0.00    -0.191 NA
ENDROOT
BRANCH   2   5
HETATM    5  C4  UNL     1      26.938 -11.876 -10.352  1.00  0.00     0.116 C
HETATM    6  N2  UNL     1      25.882 -12.193  -9.713  1.00  0.00    -0.384 N
ATOM      7  H22 UNL     1      25.649 -13.181  -9.607  1.00  0.00     0.157 HD
ATOM      8  H21 UNL     1      25.281 -11.472  -9.314  1.00  0.00     0.157 HD
BRANCH   5   9
HETATM    9  N3  UNL     1      27.262 -10.506 -10.499  1.00  0.00    -0.348 N
ATOM     10  H3  UNL     1      27.347 -10.110 -11.435  1.00  0.00     0.163 HD
BRANCH   9  11
HETATM   11  C5  UNL     1      27.474  -9.656  -9.345  1.00  0.00     0.285 C
HETATM   12  C6  UNL     1      27.104  -8.244  -9.765  1.00  0.00     0.054 C
HETATM   13  C7  UNL     1      28.354  -7.666 -10.419  1.00  0.00     0.005 C
HETATM   14  C8  UNL     1      29.342  -7.425  -9.307  1.00  0.00     0.028 C
HETATM   15  C9  UNL     1      29.394  -8.584  -8.360  1.00  0.00     0.235 C
HETATM   16  N4  UNL     1      28.814  -9.792  -8.905  1.00  0.00    -0.054 N
ATOM     17  H42 UNL     1      28.891 -10.557  -8.235  1.00  0.00     0.279 HD
ATOM     18  H41 UNL     1      29.399 -10.158  -9.657  1.00  0.00     0.279 HD
ENDBRANCH   9  11
ENDBRANCH   5   9
ENDBRANCH   2   5
TORSDOF 3
ENDMDL