MODEL 1
REMARK VINA RESULT: -6.187619541      0.000      0.000
REMARK  2 active torsions:
REMARK  status: ('A' for Active; 'I' for Inactive)
REMARK    1  A    between atoms: C2_2  and  N1_3
REMARK       I    between atoms: N1_3  and  C3_5
REMARK       I    between atoms: C3_5  and  N3_9
REMARK    2  A    between atoms: N3_9  and  C4_11
ROOT
HETATM    1  N1  UNL     1      22.275 -13.332  -7.574  1.00  0.00    -0.227 N
ATOM      2  H1  UNL     1      21.546 -13.374  -8.286  1.00  0.00     0.177 HD
HETATM    3  C3  UNL     1      21.985 -12.698  -6.346  1.00  0.00     0.667 C
HETATM    4  N2  UNL     1      22.881 -11.976  -5.783  1.00  0.00    -0.235 N
ATOM      5  H21 UNL     1      22.672 -11.518  -4.896  1.00  0.00     0.174 HD
ATOM      6  H22 UNL     1      23.798 -11.870  -6.217  1.00  0.00     0.174 HD
HETATM    7  N3  UNL     1      20.728 -12.844  -5.750  1.00  0.00    -0.222 N
ATOM      8  H3  UNL     1      20.576 -13.649  -5.144  1.00  0.00     0.178 HD
ENDROOT
BRANCH   1   9
HETATM    9  C2  UNL     1      23.567 -13.925  -7.866  1.00  0.00     0.133 C
HETATM   10  C1  UNL     1      24.324 -12.977  -8.790  1.00  0.00     0.027 C
ENDBRANCH   1   9
BRANCH   7  11
HETATM   11  C4  UNL     1      19.628 -11.921  -5.942  1.00  0.00     0.099 C
HETATM   12  C5  UNL     1      19.989 -10.627  -5.317  1.00  0.00     0.026 C
HETATM   13  C6  UNL     1      18.902  -9.943  -4.561  1.00  0.00     0.002 C
HETATM   14  C7  UNL     1      18.123 -10.842  -3.645  1.00  0.00     0.000 C
HETATM   15  C8  UNL     1      18.370 -12.304  -3.924  1.00  0.00     0.002 C
HETATM   16  C9  UNL     1      18.320 -12.477  -5.426  1.00  0.00     0.026 C
ENDBRANCH   7  11
TORSDOF 2
ENDMDL