MODEL 5
REMARK VINA RESULT: -4.078612683      7.591      8.820
REMARK  2 active torsions:
REMARK  status: ('A' for Active; 'I' for Inactive)
REMARK    1  A    between atoms: C4_4  and  C5_5
REMARK    2  A    between atoms: C5_5  and  C6_9
ROOT
HETATM    1  C1  UNL     1      27.432  -8.715 -11.687  1.00  0.00     0.012 C
HETATM    2  C2  UNL     1      26.538  -8.773 -10.494  1.00  0.00     0.014 C
HETATM    3  C3  UNL     1      25.382  -9.742 -10.782  1.00  0.00     0.045 C
HETATM    4  C4  UNL     1      25.597 -10.909  -9.868  1.00  0.00     0.236 C
HETATM    5  N2  UNL     1      27.057 -10.849  -9.682  1.00  0.00    -0.061 N
ATOM      6  H21 UNL     1      27.624 -11.158 -10.472  1.00  0.00     0.278 HD
ATOM      7  H22 UNL     1      27.455 -11.527  -9.033  1.00  0.00     0.278 HD
HETATM    8  C7  UNL     1      27.190  -9.447  -9.307  1.00  0.00     0.186 C
HETATM    9  C8  UNL     1      28.614  -9.033  -9.106  1.00  0.00     0.040 C
ENDROOT
BRANCH   4  10
HETATM   10  C5  UNL     1      25.215 -12.211 -10.427  1.00  0.00     0.044 C
HETATM   11  N1  UNL     1      24.484 -13.009  -9.735  1.00  0.00    -0.400 N
ATOM     12  H12 UNL     1      24.184 -12.718  -8.805  1.00  0.00     0.156 HD
ATOM     13  H11 UNL     1      24.218 -13.914 -10.123  1.00  0.00     0.156 HD
BRANCH  10  14
HETATM   14  C6  UNL     1      25.639 -12.623 -11.744  1.00  0.00     0.107 C
HETATM   15  S1  UNL     1      26.719 -13.853 -11.904  1.00  0.00    -0.091 SA
ENDBRANCH  10  14
ENDBRANCH   4  10
TORSDOF 2
ENDMDL