MODEL 1
REMARK VINA RESULT: -5.926817814      0.000      0.000
REMARK  3 active torsions:
REMARK  status: ('A' for Active; 'I' for Inactive)
REMARK    1  A    between atoms: C2_2  and  C3_3
REMARK    2  A    between atoms: C2_2  and  C4_10
REMARK       I    between atoms: C3_3  and  N1_5
REMARK    3  A    between atoms: N1_5  and  N2_7
ROOT
HETATM    1  C1  UNL     1      23.106 -13.379  -5.248  1.00  0.00     0.020 C
HETATM    2  C2  UNL     1      22.740 -12.347  -6.290  1.00  0.00     0.079 C
ENDROOT
BRANCH   2   3
HETATM    3  C3  UNL     1      23.017 -12.984  -7.624  1.00  0.00     0.239 C
HETATM    4  O1  UNL     1      22.352 -13.963  -8.037  1.00  0.00    -0.271 OA
HETATM    5  N1  UNL     1      24.045 -12.486  -8.451  1.00  0.00    -0.276 N
ATOM      6  H1  UNL     1      24.607 -11.690  -8.148  1.00  0.00     0.189 HD
BRANCH   5   7
HETATM    7  N2  UNL     1      24.291 -13.086  -9.686  1.00  0.00    -0.343 N
ATOM      8  H22 UNL     1      23.847 -12.704 -10.521  1.00  0.00     0.176 HD
ATOM      9  H21 UNL     1      24.908 -13.896  -9.741  1.00  0.00     0.176 HD
ENDBRANCH   5   7
ENDBRANCH   2   3
BRANCH   2  10
HETATM   10  C4  UNL     1      21.239 -12.048  -6.169  1.00  0.00    -0.002 C
HETATM   11  C5  UNL     1      20.655 -12.782  -5.016  1.00  0.00     0.005 C
HETATM   12  C6  UNL     1      19.174 -13.048  -5.261  1.00  0.00     0.000 C
HETATM   13  C7  UNL     1      18.424 -11.969  -4.509  1.00  0.00     0.000 C
HETATM   14  C8  UNL     1      18.628 -10.677  -5.287  1.00  0.00     0.000 C
HETATM   15  C9  UNL     1      20.007 -10.126  -5.120  1.00  0.00     0.000 C
HETATM   16  C10 UNL     1      20.970 -10.589  -6.182  1.00  0.00     0.005 C
ENDBRANCH   2  10
TORSDOF 3
ENDMDL