MODEL 1
REMARK VINA RESULT: -6.656005195      0.000      0.000
REMARK  2 active torsions:
REMARK  status: ('A' for Active; 'I' for Inactive)
REMARK       I    between atoms: N1_2  and  C2_4
REMARK       I    between atoms: C2_4  and  N3_8
REMARK    1  A    between atoms: N3_8  and  N4_10
REMARK    2  A    between atoms: N4_10  and  C3_11
ROOT
HETATM    1  C1  UNL     1      24.804 -11.601  -8.933  1.00  0.00     0.165 C
HETATM    2  N1  UNL     1      24.734 -12.962  -8.436  1.00  0.00    -0.230 N
ATOM      3  H1  UNL     1      25.582 -13.528  -8.439  1.00  0.00     0.177 HD
HETATM    4  C2  UNL     1      23.528 -13.540  -7.946  1.00  0.00     0.682 C
HETATM    5  N2  UNL     1      22.784 -14.192  -8.761  1.00  0.00    -0.234 N
ATOM      6  H21 UNL     1      21.920 -14.606  -8.410  1.00  0.00     0.174 HD
ATOM      7  H22 UNL     1      23.016 -14.316  -9.747  1.00  0.00     0.174 HD
HETATM    8  N3  UNL     1      23.204 -13.366  -6.568  1.00  0.00    -0.137 N
ATOM      9  H3  UNL     1      23.285 -14.129  -5.896  1.00  0.00     0.201 HD
ENDROOT
BRANCH   8  10
HETATM   10  N4  UNL     1      22.770 -12.099  -6.189  1.00  0.00    -0.121 NA
BRANCH  10  11
HETATM   11  C3  UNL     1      21.327 -11.964  -6.264  1.00  0.00     0.100 C
HETATM   12  C4  UNL     1      20.978 -10.537  -5.997  1.00  0.00     0.023 C
HETATM   13  C5  UNL     1      19.730 -10.353  -5.189  1.00  0.00     0.002 C
HETATM   14  C6  UNL     1      18.718 -11.451  -5.387  1.00  0.00     0.000 C
HETATM   15  C7  UNL     1      19.260 -12.816  -5.115  1.00  0.00     0.002 C
HETATM   16  C8  UNL     1      20.747 -12.919  -5.250  1.00  0.00     0.023 C
ENDBRANCH  10  11
ENDBRANCH   8  10
TORSDOF 2
ENDMDL