MODEL 3
REMARK VINA RESULT: -4.789386331      1.088      1.458
REMARK  3 active torsions:
REMARK  status: ('A' for Active; 'I' for Inactive)
REMARK    1  A    between atoms: C2_2  and  C4_4
REMARK    2  A    between atoms: C8_8  and  N1_9
REMARK    3  A    between atoms: C8_8  and  C9_13
ROOT
HETATM    1  C4  UNL     1      27.157  -9.882 -10.841  1.00  0.00     0.016 C
HETATM    2  C5  UNL     1      28.537 -10.439 -10.658  1.00  0.00     0.009 C
HETATM    3  C6  UNL     1      28.536 -11.921 -10.372  1.00  0.00     0.004 C
HETATM    4  C7  UNL     1      27.325 -12.622 -10.930  1.00  0.00     0.046 C
HETATM    5  C8  UNL     1      26.013 -12.072 -10.436  1.00  0.00     0.178 C
HETATM    6  C10 UNL     1      26.099 -10.603 -10.098  1.00  0.00     0.055 C
ENDROOT
BRANCH   5   7
HETATM    7  N1  UNL     1      25.566 -12.756  -9.220  1.00  0.00    -0.064 N
ATOM      8  H13 UNL     1      25.069 -12.120  -8.596  1.00  0.00     0.275 HD
ATOM      9  H12 UNL     1      24.808 -13.409  -9.417  1.00  0.00     0.275 HD
ATOM     10  H11 UNL     1      26.340 -13.217  -8.742  1.00  0.00     0.275 HD
ENDBRANCH   5   7
BRANCH   5  11
HETATM   11  C9  UNL     1      25.022 -12.332 -11.494  1.00  0.00     0.123 C
HETATM   12  N2  UNL     1      23.787 -12.395 -11.180  1.00  0.00    -0.389 N
ATOM     13  H22 UNL     1      23.494 -12.268 -10.211  1.00  0.00     0.157 HD
ATOM     14  H21 UNL     1      23.101 -12.575 -11.912  1.00  0.00     0.157 HD
HETATM   15  N3  UNL     1      25.422 -12.506 -12.818  1.00  0.00    -0.085 NA
ENDBRANCH   5  11
BRANCH   1  16
HETATM   16  C2  UNL     1      27.161  -8.455 -10.443  1.00  0.00    -0.089 C
HETATM   17  C1  UNL     1      26.155  -7.657 -10.758  1.00  0.00     0.014 C
HETATM   18  C3  UNL     1      28.307  -7.881  -9.670  1.00  0.00     0.043 C
ENDBRANCH   1  16
TORSDOF 3
ENDMDL