MODEL 2
REMARK VINA RESULT: -7.204618830      2.822      7.322
REMARK  7 active torsions:
REMARK  status: ('A' for Active; 'I' for Inactive)
REMARK    1  A    between atoms: C1_2  and  C2_3
REMARK       I    between atoms: C1_2  and  N4_22
REMARK    2  A    between atoms: C2_3  and  S1_4
REMARK    3  A    between atoms: S1_4  and  C3_5
REMARK    4  A    between atoms: C4_10  and  N3_11
REMARK    5  A    between atoms: N3_11  and  C5_12
REMARK    6  A    between atoms: C11_18  and  O2_19
REMARK    7  A    between atoms: N4_22  and  C12_24
ROOT
HETATM    1  C3  UNL     1      19.181  21.406  15.084  1.00  0.00     0.135 A
HETATM    2  N1  UNL     1      18.366  21.315  16.076  1.00  0.00    -0.285 N
ATOM      3  H1  UNL     1      18.013  20.395  16.337  1.00  0.00     0.188 HD
HETATM    4  N2  UNL     1      18.008  22.262  16.702  1.00  0.00    -0.267 N
ATOM      5  H2  UNL     1      17.363  22.023  17.455  1.00  0.00     0.190 HD
HETATM    6  C4  UNL     1      18.263  23.550  16.632  1.00  0.00     0.234 A
HETATM    7  S2  UNL     1      19.452  23.042  15.059  1.00  0.00    -0.011 SA
ENDROOT
BRANCH   1   8
HETATM    8  S1  UNL     1      19.869  20.137  13.952  1.00  0.00    -0.070 SA
BRANCH   8   9
HETATM    9  C2  UNL     1      18.800  19.745  12.584  1.00  0.00     0.126 C
BRANCH   9  10
HETATM   10  C1  UNL     1      18.720  20.733  11.532  1.00  0.00     0.251 C
HETATM   11  O1  UNL     1      19.399  20.558  10.477  1.00  0.00    -0.268 OA
HETATM   12  N4  UNL     1      17.906  21.900  11.686  1.00  0.00    -0.331 N
ATOM     13  H4  UNL     1      17.353  22.027  12.533  1.00  0.00     0.168 HD
BRANCH  12  14
HETATM   14  C12 UNL     1      17.866  22.899  10.643  1.00  0.00     0.123 C
HETATM   15  C13 UNL     1      18.648  24.089  10.822  1.00  0.00     0.061 C
HETATM   16  C14 UNL     1      20.127  24.052  10.528  1.00  0.00     0.068 C
HETATM   17  O3  UNL     1      18.485  24.919  11.944  1.00  0.00    -0.354 OA
HETATM   18  C15 UNL     1      20.544  25.438  11.030  1.00  0.00     0.033 C
HETATM   19  C16 UNL     1      19.234  26.051  11.519  1.00  0.00     0.175 C
ENDBRANCH  12  14
ENDBRANCH   9  10
ENDBRANCH   8   9
ENDBRANCH   1   8
BRANCH   6  20
HETATM   20  N3  UNL     1      18.494  24.679  16.557  1.00  0.00    -0.415 NA
BRANCH  20  21
HETATM   21  C5  UNL     1      18.662  26.013  16.558  1.00  0.00     0.194 C
HETATM   22  C6  UNL     1      17.726  26.653  17.623  1.00  0.00     0.042 C
HETATM   23  C7  UNL     1      16.321  26.512  17.179  1.00  0.00     0.003 C
HETATM   24  C8  UNL     1      15.791  27.765  16.582  1.00  0.00     0.000 C
HETATM   25  C9  UNL     1      16.552  28.355  15.448  1.00  0.00     0.002 C
HETATM   26  C10 UNL     1      18.040  28.178  15.491  1.00  0.00     0.035 C
HETATM   27  C11 UNL     1      18.474  26.744  15.257  1.00  0.00     0.154 C
BRANCH  27  28
HETATM   28  O2  UNL     1      17.621  26.092  14.404  1.00  0.00    -0.392 OA
ATOM     29  H2  UNL     1      17.499  26.556  13.584  1.00  0.00     0.210 HD
ENDBRANCH  27  28
ENDBRANCH  20  21
ENDBRANCH   6  20
TORSDOF 7
ENDMDL