MODEL 4
REMARK VINA RESULT: -7.462110306      2.173      4.641
REMARK  9 active torsions:
REMARK  status: ('A' for Active; 'I' for Inactive)
REMARK    1  A    between atoms: C4_4  and  C5_5
REMARK    2  A    between atoms: C4_4  and  C18_23
REMARK    3  A    between atoms: C5_5  and  C6_6
REMARK    4  A    between atoms: C7_8  and  C8_9
REMARK    5  A    between atoms: C8_9  and  O2_10
REMARK    6  A    between atoms: C8_9  and  C9_12
REMARK    7  A    between atoms: C10_14  and  C11_15
REMARK    8  A    between atoms: C18_23  and  O5_24
REMARK    9  A    between atoms: C18_23  and  O6_26
ROOT
HETATM    1  C6  UNL     1      19.251  25.671  12.982  1.00  0.00     0.155 A
HETATM    2  O1  UNL     1      20.091  26.443  13.741  1.00  0.00    -0.373 OA
HETATM    3  C7  UNL     1      18.648  26.672  13.939  1.00  0.00     0.182 A
ENDROOT
BRANCH   3   4
HETATM    4  C8  UNL     1      18.127  26.237  15.268  1.00  0.00     0.181 C
BRANCH   4   5
HETATM    5  O2  UNL     1      17.033  27.047  15.594  1.00  0.00    -0.390 OA
ATOM      6  H2  UNL     1      17.361  27.835  16.010  1.00  0.00     0.210 HD
ENDBRANCH   4   5
BRANCH   4   7
HETATM    7  C9  UNL     1      19.158  26.207  16.343  1.00  0.00     0.185 A
HETATM    8  O3  UNL     1      18.464  26.012  17.660  1.00  0.00    -0.370 OA
HETATM    9  C10 UNL     1      19.385  25.075  17.262  1.00  0.00     0.182 A
BRANCH   9  10
HETATM   10  C11 UNL     1      18.981  23.666  16.978  1.00  0.00     0.154 C
HETATM   11  C12 UNL     1      19.878  22.651  17.650  1.00  0.00     0.042 C
HETATM   12  C13 UNL     1      20.118  21.664  16.527  1.00  0.00     0.018 C
HETATM   13  C14 UNL     1      21.453  20.994  16.631  1.00  0.00     0.013 C
HETATM   14  C15 UNL     1      20.035  22.590  15.317  1.00  0.00     0.057 C
HETATM   15  C16 UNL     1      21.276  23.406  15.149  1.00  0.00     0.046 C
HETATM   16  C17 UNL     1      19.819  21.777  14.067  1.00  0.00     0.046 C
HETATM   17  O4  UNL     1      18.953  23.368  15.626  1.00  0.00    -0.373 OA
ENDBRANCH   9  10
ENDBRANCH   4   7
ENDBRANCH   3   4
BRANCH   1  18
HETATM   18  C5  UNL     1      18.955  25.870  11.556  1.00  0.00     0.064 C
BRANCH  18  19
HETATM   19  C4  UNL     1      19.233  24.779  10.583  1.00  0.00     0.120 A
HETATM   20  C3  UNL     1      20.297  23.933  11.235  1.00  0.00     0.030 A
HETATM   21  C2  UNL     1      21.354  23.925  10.485  1.00  0.00     0.050 A
HETATM   22  C1  UNL     1      22.667  23.213  10.733  1.00  0.00     0.076 C
HETATM   23  O8  UNL     1      21.149  24.687   9.351  1.00  0.00    -0.283 OA
HETATM   24  C19 UNL     1      19.886  25.232   9.350  1.00  0.00     0.281 A
HETATM   25  O7  UNL     1      19.434  25.968   8.439  1.00  0.00    -0.263 OA
BRANCH  19  26
HETATM   26  C18 UNL     1      18.099  23.826  10.308  1.00  0.00     0.276 C
BRANCH  26  27
HETATM   27  O5  UNL     1      17.051  24.660   9.817  1.00  0.00    -0.370 OA
ATOM     28  H5  UNL     1      16.302  24.078   9.749  1.00  0.00     0.212 HD
ENDBRANCH  26  27
BRANCH  26  29
HETATM   29  O6  UNL     1      17.596  23.174  11.403  1.00  0.00    -0.370 OA
ATOM     30  H6  UNL     1      17.286  23.733  12.107  1.00  0.00     0.212 HD
ENDBRANCH  26  29
ENDBRANCH  19  26
ENDBRANCH  18  19
ENDBRANCH   1  18
TORSDOF 9
ENDMDL