MODEL 3
REMARK VINA RESULT: -6.380388633      3.144      5.968
REMARK  9 active torsions:
REMARK  status: ('A' for Active; 'I' for Inactive)
REMARK    1  A    between atoms: N1_2  and  C2_5
REMARK    2  A    between atoms: C2_5  and  C3_6
REMARK    3  A    between atoms: C6_9  and  O1_10
REMARK    4  A    between atoms: C8_12  and  O2_13
REMARK    5  A    between atoms: O2_13  and  C9_14
REMARK    6  A    between atoms: C14_19  and  C15_20
REMARK    7  A    between atoms: C15_20  and  O4_22
REMARK    8  A    between atoms: C17_24  and  O5_25
REMARK    9  A    between atoms: C18_27  and  O6_29
ROOT
HETATM    1  C3  UNL     1      20.768  24.303  14.495  1.00  0.00     0.151 C
HETATM    2  C4  UNL     1      19.556  23.460  14.168  1.00  0.00     0.054 C
HETATM    3  C5  UNL     1      20.103  22.681  12.950  1.00  0.00     0.077 C
HETATM    4  C6  UNL     1      19.378  21.379  12.798  1.00  0.00     0.193 C
HETATM    5  C8  UNL     1      18.886  21.088  11.424  1.00  0.00     0.074 C
HETATM    6  C13 UNL     1      18.461  22.081  10.677  1.00  0.00     0.025 C
HETATM    7  C14 UNL     1      18.509  23.438  11.281  1.00  0.00     0.140 C
HETATM    8  C17 UNL     1      19.940  23.637  11.806  1.00  0.00     0.152 C
HETATM    9  C18 UNL     1      21.515  22.497  13.395  1.00  0.00     0.171 C
HETATM   10  C19 UNL     1      22.523  22.340  12.282  1.00  0.00     0.080 C
HETATM   11  O7  UNL     1      21.869  23.524  14.255  1.00  0.00    -0.348 OA
ENDROOT
BRANCH   4  12
HETATM   12  O1  UNL     1      18.276  21.404  13.690  1.00  0.00    -0.383 OA
HETATM   13  C7  UNL     1      18.058  20.209  14.324  1.00  0.00     0.202 C
ENDBRANCH   4  12
BRANCH   8  14
HETATM   14  O5  UNL     1      20.763  23.454  10.735  1.00  0.00    -0.393 OA
ATOM     15  H5  UNL     1      21.203  22.615  10.675  1.00  0.00     0.210 HD
ENDBRANCH   8  14
BRANCH   9  16
HETATM   16  O6  UNL     1      21.582  21.319  14.139  1.00  0.00    -0.365 OA
ATOM     17  H6  UNL     1      20.847  21.311  14.742  1.00  0.00     0.213 HD
ENDBRANCH   9  16
BRANCH   1  18
HETATM   18  C2  UNL     1      20.719  24.814  15.924  1.00  0.00     0.263 C
BRANCH  18  19
HETATM   19  N1  UNL     1      19.627  25.776  16.002  1.00  0.00    -0.077 N
HETATM   20  C1  UNL     1      19.380  26.074  17.378  1.00  0.00     0.267 C
ATOM     21  H12 UNL     1      18.789  25.457  15.515  1.00  0.00     0.276 HD
ATOM     22  H11 UNL     1      19.802  26.613  15.446  1.00  0.00     0.276 HD
ENDBRANCH  18  19
ENDBRANCH   1  18
BRANCH   5  23
HETATM   23  O2  UNL     1      18.857  19.822  10.906  1.00  0.00    -0.343 OA
BRANCH  23  24
HETATM   24  C9  UNL     1      19.892  19.017  10.469  1.00  0.00     0.056 C
HETATM   25  C10 UNL     1      20.887  19.715   9.557  1.00  0.00     0.045 C
HETATM   26  C11 UNL     1      20.662  18.291  11.522  1.00  0.00     0.045 C
HETATM   27  C12 UNL     1      19.249  17.939   9.572  1.00  0.00     0.045 C
ENDBRANCH  23  24
ENDBRANCH   5  23
BRANCH   7  28
HETATM   28  C15 UNL     1      18.205  24.475  10.291  1.00  0.00     0.268 C
HETATM   29  O3  UNL     1      17.119  24.461   9.672  1.00  0.00    -0.264 OA
BRANCH  28  30
HETATM   30  O4  UNL     1      19.113  25.492  10.020  1.00  0.00    -0.326 OA
HETATM   31  C16 UNL     1      19.421  25.839   8.664  1.00  0.00     0.213 C
ENDBRANCH  28  30
ENDBRANCH   7  28
TORSDOF 9
ENDMDL