MODEL 5
REMARK VINA RESULT: -7.291653311      2.211      4.986
REMARK  8 active torsions:
REMARK  status: ('A' for Active; 'I' for Inactive)
REMARK    1  A    between atoms: O1_2  and  C2_3
REMARK       I    between atoms: C2_3  and  N1_5
REMARK    2  A    between atoms: N1_5  and  C3_7
REMARK    3  A    between atoms: C5_11  and  O3_12
REMARK    4  A    between atoms: C7_14  and  O4_15
REMARK    5  A    between atoms: C12_20  and  O5_21
REMARK    6  A    between atoms: O5_21  and  C13_22
REMARK    7  A    between atoms: C13_22  and  C14_23
REMARK    8  A    between atoms: C18_27  and  N3_28
ROOT
HETATM    1  C3  UNL     1      18.054  22.217  14.480  1.00  0.00     0.680 C
HETATM    2  N2  UNL     1      19.321  21.891  14.371  1.00  0.00    -0.218 N
ATOM      3  H2  UNL     1      19.630  21.132  13.764  1.00  0.00     0.178 HD
HETATM    4  C4  UNL     1      20.235  22.649  15.142  1.00  0.00     0.139 C
HETATM    5  C5  UNL     1      21.541  21.931  15.431  1.00  0.00     0.173 C
HETATM    6  C7  UNL     1      21.960  22.426  16.803  1.00  0.00     0.156 C
HETATM    7  C9  UNL     1      20.892  23.482  17.162  1.00  0.00     0.023 C
HETATM    8  C10 UNL     1      21.301  24.723  16.392  1.00  0.00     0.013 C
HETATM    9  C11 UNL     1      19.698  22.785  16.562  1.00  0.00     0.067 C
HETATM   10  C12 UNL     1      18.386  23.389  16.697  1.00  0.00     0.244 C
HETATM   11  N4  UNL     1      17.745  23.284  15.359  1.00  0.00    -0.199 N
ATOM     12  H4  UNL     1      17.071  23.994  15.068  1.00  0.00     0.180 HD
ENDROOT
BRANCH  10  13
HETATM   13  O5  UNL     1      18.239  24.639  17.208  1.00  0.00    -0.365 OA
BRANCH  13  14
HETATM   14  C13 UNL     1      17.208  25.397  16.749  1.00  0.00     0.175 C
BRANCH  14  15
HETATM   15  C14 UNL     1      17.464  26.787  16.322  1.00  0.00     0.011 C
HETATM   16  C15 UNL     1      17.659  26.997  14.843  1.00  0.00     0.007 C
HETATM   17  C16 UNL     1      17.167  28.415  14.541  1.00  0.00     0.002 C
HETATM   18  C17 UNL     1      15.666  28.370  14.527  1.00  0.00     0.033 C
HETATM   19  C18 UNL     1      15.229  27.559  15.724  1.00  0.00     0.184 C
HETATM   20  C19 UNL     1      16.272  27.627  16.807  1.00  0.00     0.039 C
BRANCH  19  21
HETATM   21  N3  UNL     1      13.937  28.033  16.187  1.00  0.00    -0.075 N
ATOM     22  H33 UNL     1      14.019  28.863  16.774  1.00  0.00     0.274 HD
ATOM     23  H32 UNL     1      13.384  28.441  15.433  1.00  0.00     0.274 HD
ATOM     24  H31 UNL     1      13.444  27.274  16.659  1.00  0.00     0.274 HD
ENDBRANCH  19  21
ENDBRANCH  14  15
ENDBRANCH  13  14
ENDBRANCH  10  13
BRANCH   1  25
HETATM   25  N1  UNL     1      17.091  21.504  13.738  1.00  0.00    -0.135 N
HETATM   26  C2  UNL     1      17.270  20.926  12.469  1.00  0.00     0.378 C
HETATM   27  O2  UNL     1      18.371  21.018  11.883  1.00  0.00    -0.238 OA
ATOM     28  H1  UNL     1      16.171  21.397  14.165  1.00  0.00     0.189 HD
BRANCH  26  29
HETATM   29  O1  UNL     1      16.215  20.237  11.841  1.00  0.00    -0.308 OA
HETATM   30  C1  UNL     1      15.943  20.483  10.472  1.00  0.00     0.215 C
ENDBRANCH  26  29
ENDBRANCH   1  25
BRANCH   5  31
HETATM   31  O3  UNL     1      22.515  22.181  14.496  1.00  0.00    -0.386 OA
HETATM   32  C6  UNL     1      22.951  20.944  13.982  1.00  0.00     0.202 C
ENDBRANCH   5  31
BRANCH   6  33
HETATM   33  O4  UNL     1      23.163  23.114  16.758  1.00  0.00    -0.388 OA
HETATM   34  C8  UNL     1      24.077  22.670  17.698  1.00  0.00     0.202 C
ENDBRANCH   6  33
TORSDOF 8
ENDMDL