MODEL 3
REMARK VINA RESULT: -7.661962318      0.892      1.396
REMARK  9 active torsions:
REMARK  status: ('A' for Active; 'I' for Inactive)
REMARK    1  A    between atoms: C2_2  and  O1_3
REMARK    2  A    between atoms: O1_3  and  C3_4
REMARK       I    between atoms: C3_4  and  N1_6
REMARK    3  A    between atoms: N1_6  and  C4_8
REMARK    4  A    between atoms: C5_11  and  C6_12
REMARK    5  A    between atoms: C6_12  and  C8_14
REMARK    6  A    between atoms: C8_14  and  N3_15
REMARK    7  A    between atoms: N3_15  and  N4_17
REMARK    8  A    between atoms: N4_17  and  C10_19
REMARK    9  A    between atoms: N5_24  and  O3_25
ROOT
HETATM    1  C6  UNL     1      19.424  23.501  16.528  1.00  0.00     0.066 C
HETATM    2  C7  UNL     1      20.108  22.843  17.741  1.00  0.00     0.019 C
ENDROOT
BRANCH   1   3
HETATM    3  C5  UNL     1      18.886  24.788  17.042  1.00  0.00     0.110 A
HETATM    4  N2  UNL     1      17.572  25.077  17.085  1.00  0.00    -0.308 N
HETATM    5  C4  UNL     1      17.453  26.311  17.598  1.00  0.00     0.253 A
ATOM      6  H2  UNL     1      16.809  24.471  16.783  1.00  0.00     0.170 HD
HETATM    7  O4  UNL     1      18.671  26.777  17.869  1.00  0.00    -0.199 OA
HETATM    8  N6  UNL     1      19.500  25.856  17.531  1.00  0.00    -0.245 N
ATOM      9  H6  UNL     1      20.512  25.938  17.627  1.00  0.00     0.196 HD
BRANCH   5  10
HETATM   10  N1  UNL     1      16.343  26.919  17.787  1.00  0.00    -0.266 N
HETATM   11  C3  UNL     1      15.634  27.517  16.729  1.00  0.00     0.367 C
HETATM   12  O2  UNL     1      14.399  27.213  16.596  1.00  0.00    -0.238 OA
ATOM     13  H1  UNL     1      15.961  26.972  18.731  1.00  0.00     0.174 HD
BRANCH  11  14
HETATM   14  O1  UNL     1      16.173  28.411  15.820  1.00  0.00    -0.304 OA
BRANCH  14  15
HETATM   15  C2  UNL     1      16.706  28.084  14.572  1.00  0.00     0.176 C
HETATM   16  C1  UNL     1      18.159  28.489  14.534  1.00  0.00     0.034 C
ENDBRANCH  14  15
ENDBRANCH  11  14
ENDBRANCH   5  10
ENDBRANCH   1   3
BRANCH   1  17
HETATM   17  C8  UNL     1      18.323  22.609  16.010  1.00  0.00     0.124 C
BRANCH  17  18
HETATM   18  N3  UNL     1      18.406  22.306  14.611  1.00  0.00    -0.239 NA
HETATM   19  C9  UNL     1      17.176  21.585  14.247  1.00  0.00     0.135 C
BRANCH  18  20
HETATM   20  N4  UNL     1      18.547  23.348  13.753  1.00  0.00    -0.348 N
ATOM     21  H4  UNL     1      17.900  24.134  13.799  1.00  0.00     0.174 HD
BRANCH  20  22
HETATM   22  C10 UNL     1      19.577  23.347  12.806  1.00  0.00     0.120 C
HETATM   23  C11 UNL     1      20.150  22.004  12.424  1.00  0.00     0.055 C
HETATM   24  C12 UNL     1      21.079  22.441  11.280  1.00  0.00     0.034 C
HETATM   25  C13 UNL     1      22.447  22.625  11.877  1.00  0.00     0.034 C
HETATM   26  C14 UNL     1      21.144  21.410  10.191  1.00  0.00     0.034 C
HETATM   27  N5  UNL     1      20.536  23.662  10.752  1.00  0.00    -0.180 NA
HETATM   28  C15 UNL     1      19.330  23.970  11.480  1.00  0.00     0.053 C
HETATM   29  C16 UNL     1      19.121  25.454  11.658  1.00  0.00     0.036 C
HETATM   30  C17 UNL     1      18.169  23.415  10.721  1.00  0.00     0.036 C
BRANCH  27  31
HETATM   31  O3  UNL     1      21.437  24.646  10.750  1.00  0.00    -0.311 OA
ATOM     32  H3  UNL     1      21.063  25.466  10.451  1.00  0.00     0.237 HD
ENDBRANCH  27  31
ENDBRANCH  20  22
ENDBRANCH  18  20
ENDBRANCH  17  18
ENDBRANCH   1  17
TORSDOF 9
ENDMDL