MODEL 4
REMARK VINA RESULT: -7.376389371      2.727      4.543
REMARK  8 active torsions:
REMARK  status: ('A' for Active; 'I' for Inactive)
REMARK    1  A    between atoms: C2_2  and  C3_3
REMARK    2  A    between atoms: C3_3  and  C4_4
REMARK    3  A    between atoms: C4_4  and  C5_5
REMARK    4  A    between atoms: C5_5  and  O1_6
REMARK    5  A    between atoms: O1_6  and  C6_7
REMARK    6  A    between atoms: C7_14  and  C8_15
REMARK       I    between atoms: C8_15  and  N4_17
REMARK    7  A    between atoms: C13_24  and  O3_25
REMARK    8  A    between atoms: C14_27  and  O4_28
ROOT
HETATM    1  C8  UNL     1      18.758  23.295  16.268  1.00  0.00     0.278 C
HETATM    2  O2  UNL     1      17.569  22.901  16.281  1.00  0.00    -0.265 OA
HETATM    3  N4  UNL     1      19.606  22.740  15.271  1.00  0.00    -0.319 N
ATOM      4  H4  UNL     1      20.032  21.827  15.436  1.00  0.00     0.169 HD
HETATM    5  C9  UNL     1      19.851  23.351  14.171  1.00  0.00     0.059 C
HETATM    6  C10 UNL     1      19.282  24.686  13.828  1.00  0.00     0.139 C
HETATM    7  S1  UNL     1      19.145  24.761  12.017  1.00  0.00    -0.156 SA
HETATM    8  C11 UNL     1      20.818  24.798  11.316  1.00  0.00     0.067 C
HETATM    9  C12 UNL     1      20.740  24.321   9.891  1.00  0.00     0.050 C
HETATM   10  C13 UNL     1      21.765  23.238   9.729  1.00  0.00     0.149 C
HETATM   11  C14 UNL     1      22.641  23.353  10.951  1.00  0.00     0.162 C
HETATM   12  C15 UNL     1      21.764  23.883  12.046  1.00  0.00     0.098 C
HETATM   13  S2  UNL     1      20.930  22.588  12.968  1.00  0.00    -0.107 SA
ENDROOT
BRANCH   1  14
HETATM   14  C7  UNL     1      19.257  24.272  17.223  1.00  0.00     0.170 A
HETATM   15  C6  UNL     1      18.717  25.555  17.438  1.00  0.00     0.193 A
HETATM   16  N1  UNL     1      19.457  26.142  18.395  1.00  0.00    -0.263 N
HETATM   17  N2  UNL     1      20.392  25.292  18.753  1.00  0.00    -0.240 N
ATOM     18  H1  UNL     1      19.318  27.079  18.774  1.00  0.00     0.190 HD
HETATM   19  N3  UNL     1      20.290  24.169  18.066  1.00  0.00    -0.277 N
ATOM     20  H2  UNL     1      21.099  25.473  19.465  1.00  0.00     0.208 HD
ATOM     21  H3  UNL     1      20.900  23.357  18.161  1.00  0.00     0.189 HD
BRANCH  15  22
HETATM   22  O1  UNL     1      17.637  25.990  16.738  1.00  0.00    -0.333 OA
BRANCH  22  23
HETATM   23  C5  UNL     1      16.487  26.644  16.975  1.00  0.00     0.177 C
BRANCH  23  24
HETATM   24  C4  UNL     1      16.128  27.897  16.275  1.00  0.00     0.027 C
BRANCH  24  25
HETATM   25  C3  UNL     1      16.430  28.043  14.838  1.00  0.00     0.002 C
BRANCH  25  26
HETATM   26  C2  UNL     1      17.628  29.034  14.759  1.00  0.00    -0.004 C
HETATM   27  C1  UNL     1      18.734  28.404  13.940  1.00  0.00     0.005 C
ENDBRANCH  25  26
ENDBRANCH  24  25
ENDBRANCH  23  24
ENDBRANCH  22  23
ENDBRANCH  15  22
ENDBRANCH   1  14
BRANCH  11  28
HETATM   28  O4  UNL     1      23.246  22.140  11.275  1.00  0.00    -0.392 OA
ATOM     29  H4  UNL     1      24.193  22.190  11.219  1.00  0.00     0.210 HD
ENDBRANCH  11  28
BRANCH  10  30
HETATM   30  O3  UNL     1      21.122  22.017   9.668  1.00  0.00    -0.393 OA
ATOM     31  H3  UNL     1      21.335  21.517  10.447  1.00  0.00     0.210 HD
ENDBRANCH  10  30
TORSDOF 8
ENDMDL