MODEL 2
REMARK VINA RESULT: -7.170301648      2.994      7.888
REMARK  12 active torsions:
REMARK  status: ('A' for Active; 'I' for Inactive)
REMARK    1  A    between atoms: C2_2  and  C3_3
REMARK    2  A    between atoms: C3_3  and  C4_4
REMARK    3  A    between atoms: C4_4  and  C5_5
REMARK    4  A    between atoms: C5_5  and  C6_6
REMARK    5  A    between atoms: C6_6  and  C7_7
REMARK    6  A    between atoms: C9_9  and  N1_10
REMARK    7  A    between atoms: C12_15  and  N3_16
REMARK    8  A    between atoms: N3_16  and  C13_18
REMARK    9  A    between atoms: C13_18  and  O1_19
REMARK   10  A    between atoms: C13_18  and  O2_21
REMARK   11  A    between atoms: C18_29  and  O3_30
REMARK   12  A    between atoms: C19_32  and  O4_33
ROOT
HETATM    1  N1  UNL     1      19.253  23.194  16.139  1.00  0.00    -0.320 N
HETATM    2  C10 UNL     1      18.127  23.366  15.415  1.00  0.00     0.185 A
HETATM    3  N2  UNL     1      17.416  24.409  15.880  1.00  0.00    -0.346 N
ATOM      4  H2  UNL     1      16.528  24.747  15.509  1.00  0.00     0.167 HD
HETATM    5  C11 UNL     1      18.085  24.923  16.920  1.00  0.00     0.122 A
HETATM    6  C12 UNL     1      17.809  26.013  17.773  1.00  0.00     0.137 A
HETATM    7  N4  UNL     1      18.676  26.299  18.743  1.00  0.00    -0.337 N
ATOM      8  H4  UNL     1      18.486  27.084  19.366  1.00  0.00     0.168 HD
HETATM    9  C16 UNL     1      19.799  25.574  18.923  1.00  0.00     0.183 A
HETATM   10  N5  UNL     1      20.041  24.542  18.098  1.00  0.00    -0.336 N
ATOM     11  H5  UNL     1      20.894  24.001  18.242  1.00  0.00     0.168 HD
HETATM   12  C17 UNL     1      19.212  24.179  17.081  1.00  0.00     0.141 A
ENDROOT
BRANCH   1  13
HETATM   13  C9  UNL     1      20.285  22.244  15.996  1.00  0.00     0.124 C
HETATM   14  C8  UNL     1      20.245  21.346  14.795  1.00  0.00     0.039 C
HETATM   15  C7  UNL     1      21.562  20.603  14.917  1.00  0.00     0.042 C
HETATM   16  C19 UNL     1      22.473  21.609  15.573  1.00  0.00     0.156 C
HETATM   17  C18 UNL     1      21.661  22.861  15.822  1.00  0.00     0.170 C
BRANCH  15  18
HETATM   18  C6  UNL     1      22.067  20.169  13.610  1.00  0.00    -0.011 C
BRANCH  18  19
HETATM   19  C5  UNL     1      21.499  20.662  12.488  1.00  0.00     0.047 C
BRANCH  19  20
HETATM   20  C4  UNL     1      22.070  21.721  11.761  1.00  0.00    -0.156 C
BRANCH  20  21
HETATM   21  C3  UNL     1      22.578  22.659  11.116  1.00  0.00     0.084 C
BRANCH  21  22
HETATM   22  C2  UNL     1      23.830  22.779  10.315  1.00  0.00     0.007 C
HETATM   23  C1  UNL     1      23.464  23.192   8.927  1.00  0.00     0.006 C
ENDBRANCH  21  22
ENDBRANCH  20  21
ENDBRANCH  19  20
ENDBRANCH  18  19
ENDBRANCH  15  18
BRANCH  16  24
HETATM   24  O4  UNL     1      23.622  21.852  14.845  1.00  0.00    -0.392 OA
ATOM     25  H4  UNL     1      24.145  21.070  14.705  1.00  0.00     0.210 HD
ENDBRANCH  16  24
BRANCH  17  26
HETATM   26  O3  UNL     1      21.780  23.620  14.659  1.00  0.00    -0.391 OA
ATOM     27  H3  UNL     1      20.962  23.711  14.185  1.00  0.00     0.210 HD
ENDBRANCH  17  26
ENDBRANCH   1  13
BRANCH   6  28
HETATM   28  N3  UNL     1      16.768  26.642  17.560  1.00  0.00    -0.326 N
ATOM     29  H3  UNL     1      16.084  26.375  18.269  1.00  0.00     0.166 HD
BRANCH  28  30
HETATM   30  C13 UNL     1      16.181  27.573  16.722  1.00  0.00     0.370 C
BRANCH  30  31
HETATM   31  O1  UNL     1      16.484  27.500  15.382  1.00  0.00    -0.349 OA
HETATM   32  C14 UNL     1      17.523  28.355  15.063  1.00  0.00     0.206 C
ENDBRANCH  30  31
BRANCH  30  33
HETATM   33  O2  UNL     1      14.768  27.229  16.744  1.00  0.00    -0.349 OA
HETATM   34  C15 UNL     1      14.071  28.294  16.241  1.00  0.00     0.206 C
ENDBRANCH  30  33
ENDBRANCH  28  30
ENDBRANCH   6  28
TORSDOF 12
ENDMDL