MODEL 2
REMARK VINA RESULT: -6.841872290      2.134      3.429
REMARK  8 active torsions:
REMARK  status: ('A' for Active; 'I' for Inactive)
REMARK    1  A    between atoms: C2_2  and  N1_3
REMARK    2  A    between atoms: C3_4  and  O1_5
REMARK    3  A    between atoms: C4_7  and  C5_8
REMARK    4  A    between atoms: C5_8  and  C6_9
REMARK    5  A    between atoms: C7_12  and  O4_13
REMARK    6  A    between atoms: C8_15  and  S1_16
REMARK    7  A    between atoms: S1_16  and  C9_17
REMARK    8  A    between atoms: C9_17  and  C10_18
REMARK       I    between atoms: C10_18  and  N2_20
ROOT
HETATM    1  N1  UNL     1      21.200  22.419  11.764  1.00  0.00    -0.320 N
HETATM    2  C3  UNL     1      21.094  23.626  11.116  1.00  0.00     0.152 A
HETATM    3  C4  UNL     1      19.842  24.140  11.326  1.00  0.00     0.039 A
HETATM    4  C7  UNL     1      19.196  23.218  12.114  1.00  0.00     0.110 A
HETATM    5  C8  UNL     1      20.063  22.147  12.380  1.00  0.00     0.112 A
ENDROOT
BRANCH   5   6
HETATM    6  S1  UNL     1      19.624  20.814  13.419  1.00  0.00    -0.076 SA
BRANCH   6   7
HETATM    7  C9  UNL     1      19.743  21.029  15.160  1.00  0.00     0.126 C
BRANCH   7   8
HETATM    8  C10 UNL     1      20.420  22.188  15.709  1.00  0.00     0.250 C
HETATM    9  O5  UNL     1      21.633  22.217  15.939  1.00  0.00    -0.268 OA
HETATM   10  N2  UNL     1      19.695  23.405  16.031  1.00  0.00    -0.340 N
HETATM   11  C11 UNL     1      18.263  23.451  15.791  1.00  0.00     0.163 C
HETATM   12  C15 UNL     1      20.375  24.542  16.575  1.00  0.00     0.117 C
HETATM   13  C12 UNL     1      17.655  24.610  16.558  1.00  0.00     0.331 C
HETATM   14  N3  UNL     1      18.302  25.849  16.204  1.00  0.00     0.013 N
HETATM   15  C13 UNL     1      17.724  26.874  17.088  1.00  0.00     0.356 C
HETATM   16  O6  UNL     1      17.879  26.166  14.953  1.00  0.00    -0.065 OA
HETATM   17  C14 UNL     1      19.719  25.857  16.331  1.00  0.00     0.336 C
HETATM   18  C16 UNL     1      20.678  24.396  18.051  1.00  0.00     0.034 C
ENDBRANCH   7   8
ENDBRANCH   6   7
ENDBRANCH   5   6
BRANCH   1  19
HETATM   19  C2  UNL     1      22.428  21.606  11.669  1.00  0.00     0.127 C
HETATM   20  C1  UNL     1      23.196  21.762  12.994  1.00  0.00     0.027 C
ENDBRANCH   1  19
BRANCH   4  21
HETATM   21  O4  UNL     1      17.892  23.380  12.545  1.00  0.00    -0.357 OA
ATOM     22  H4  UNL     1      17.167  22.872  12.199  1.00  0.00     0.217 HD
ENDBRANCH   4  21
BRANCH   2  23
HETATM   23  O1  UNL     1      22.093  24.234  10.366  1.00  0.00    -0.345 OA
ATOM     24  H1  UNL     1      22.790  24.781  10.711  1.00  0.00     0.219 HD
ENDBRANCH   2  23
BRANCH   3  25
HETATM   25  C5  UNL     1      19.343  25.430  10.789  1.00  0.00     0.159 C
BRANCH  25  26
HETATM   26  C6  UNL     1      18.557  25.282   9.563  1.00  0.00     0.177 C
HETATM   27  O2  UNL     1      18.981  25.676   8.453  1.00  0.00    -0.648 OA
HETATM   28  O3  UNL     1      17.303  24.684   9.646  1.00  0.00    -0.648 OA
ENDBRANCH  25  26
ENDBRANCH   3  25
TORSDOF 8
ENDMDL