MODEL 3
REMARK VINA RESULT: -6.936771907      2.271      4.344
REMARK  9 active torsions:
REMARK  status: ('A' for Active; 'I' for Inactive)
REMARK    1  A    between atoms: C2_2  and  C3_3
REMARK    2  A    between atoms: C2_2  and  N1_10
REMARK    3  A    between atoms: C3_3  and  S1_4
REMARK    4  A    between atoms: S1_4  and  C4_5
REMARK    5  A    between atoms: C4_5  and  C5_6
REMARK    6  A    between atoms: C5_6  and  C6_7
REMARK    7  A    between atoms: C7_11  and  O3_12
REMARK    8  A    between atoms: C10_16  and  O4_17
REMARK    9  A    between atoms: C17_26  and  C18_27
ROOT
HETATM    1  N1  UNL     1      18.527  22.447  12.282  1.00  0.00    -0.302 N
HETATM    2  C7  UNL     1      18.177  22.383  13.563  1.00  0.00     0.154 A
HETATM    3  C8  UNL     1      18.328  23.599  14.214  1.00  0.00     0.050 A
HETATM    4  C9  UNL     1      18.814  24.462  13.222  1.00  0.00     0.044 A
HETATM    5  C10 UNL     1      18.914  23.705  12.053  1.00  0.00     0.154 A
HETATM    6  C11 UNL     1      19.074  25.777  13.823  1.00  0.00     0.189 C
HETATM    7  C12 UNL     1      20.546  26.119  13.513  1.00  0.00     0.055 C
HETATM    8  C13 UNL     1      18.262  26.833  13.169  1.00  0.00     0.046 C
HETATM    9  C14 UNL     1      18.653  28.148  13.879  1.00  0.00     0.005 C
HETATM   10  C15 UNL     1      18.259  28.011  15.298  1.00  0.00     0.030 C
HETATM   11  C16 UNL     1      18.539  26.732  15.981  1.00  0.00     0.275 C
HETATM   12  N2  UNL     1      18.909  25.615  15.225  1.00  0.00     0.122 N
HETATM   13  C17 UNL     1      18.182  24.387  15.458  1.00  0.00     0.362 C
ENDROOT
BRANCH   1  14
HETATM   14  C2  UNL     1      18.541  21.320  11.344  1.00  0.00     0.099 C
HETATM   15  C1  UNL     1      17.317  21.219  10.538  1.00  0.00     0.033 C
BRANCH  14  16
HETATM   16  C3  UNL     1      19.847  21.169  10.683  1.00  0.00     0.099 C
BRANCH  16  17
HETATM   17  S1  UNL     1      21.260  20.935  11.756  1.00  0.00    -0.167 SA
BRANCH  17  18
HETATM   18  C4  UNL     1      22.311  22.316  12.026  1.00  0.00     0.084 C
BRANCH  18  19
HETATM   19  C5  UNL     1      23.499  22.424  11.140  1.00  0.00     0.123 C
BRANCH  19  20
HETATM   20  C6  UNL     1      23.091  22.784   9.756  1.00  0.00     0.173 C
HETATM   21  O1  UNL     1      23.704  22.257   8.789  1.00  0.00    -0.648 OA
HETATM   22  O2  UNL     1      22.073  23.668   9.541  1.00  0.00    -0.648 OA
ENDBRANCH  19  20
ENDBRANCH  18  19
ENDBRANCH  17  18
ENDBRANCH  16  17
ENDBRANCH  14  16
ENDBRANCH   1  14
BRANCH   2  23
HETATM   23  O3  UNL     1      17.711  21.237  14.194  1.00  0.00    -0.345 OA
ATOM     24  H3  UNL     1      17.933  20.987  15.083  1.00  0.00     0.219 HD
ENDBRANCH   2  23
BRANCH   5  25
HETATM   25  O4  UNL     1      19.358  24.248  10.849  1.00  0.00    -0.345 OA
ATOM     26  H4  UNL     1      19.075  25.060  10.444  1.00  0.00     0.219 HD
ENDBRANCH   5  25
BRANCH  13  27
HETATM   27  C18 UNL     1      18.620  23.664  16.671  1.00  0.00     0.212 C
HETATM   28  O5  UNL     1      19.473  24.188  17.417  1.00  0.00    -0.646 OA
HETATM   29  O6  UNL     1      18.092  22.442  16.969  1.00  0.00    -0.646 OA
ENDBRANCH  13  27
TORSDOF 9
ENDMDL