MODEL 4
REMARK VINA RESULT: -6.158522170      0.762      1.176
REMARK  6 active torsions:
REMARK  status: ('A' for Active; 'I' for Inactive)
REMARK    1  A    between atoms: O1_2  and  C2_3
REMARK    2  A    between atoms: C2_3  and  C3_4
REMARK    3  A    between atoms: C7_8  and  O2_9
REMARK    4  A    between atoms: O2_9  and  C8_10
REMARK    5  A    between atoms: C8_10  and  C9_12
REMARK    6  A    between atoms: C16_20  and  O5_21
ROOT
HETATM    1  C2  UNL     1       1.149  37.402  22.678  1.00  0.00     0.122 C
HETATM    2  C7  UNL     1       2.478  36.893  23.191  1.00  0.00     0.172 C
HETATM    3  C13 UNL     1       2.386  35.454  23.685  1.00  0.00     0.075 C
HETATM    4  C14 UNL     1       1.257  35.284  24.679  1.00  0.00     0.197 C
HETATM    5  O4  UNL     1       0.470  36.464  24.710  1.00  0.00    -0.367 OA
HETATM    6  C15 UNL     1       0.074  36.587  23.383  1.00  0.00     0.196 C
HETATM    7  C16 UNL     1      -0.143  35.225  22.837  1.00  0.00     0.222 C
HETATM    8  C17 UNL     1       0.280  34.374  24.017  1.00  0.00     0.186 C
HETATM    9  O6  UNL     1      -0.086  33.267  24.318  1.00  0.00    -0.292 OA
ENDROOT
BRANCH   2  10
HETATM   10  O2  UNL     1       3.110  37.620  24.191  1.00  0.00    -0.312 OA
BRANCH  10  11
HETATM   11  C8  UNL     1       4.481  37.631  24.408  1.00  0.00     0.267 C
HETATM   12  O3  UNL     1       5.155  38.161  23.459  1.00  0.00    -0.264 OA
BRANCH  11  13
HETATM   13  C9  UNL     1       5.179  37.105  25.579  1.00  0.00     0.037 C
HETATM   14  C10 UNL     1       4.433  37.217  26.870  1.00  0.00     0.025 C
HETATM   15  C11 UNL     1       5.605  35.654  25.394  1.00  0.00     0.025 C
HETATM   16  C12 UNL     1       6.476  37.881  25.756  1.00  0.00     0.025 C
ENDBRANCH  11  13
ENDBRANCH  10  11
ENDBRANCH   2  10
BRANCH   1  17
HETATM   17  O1  UNL     1       1.197  37.174  21.344  1.00  0.00    -0.379 OA
HETATM   18  C1  UNL     1       2.227  37.104  20.548  1.00  0.00     0.202 C
ENDBRANCH   1  17
BRANCH   1  19
HETATM   19  C3  UNL     1       0.893  38.847  22.941  1.00  0.00    -0.015 C
HETATM   20  C4  UNL     1      -0.318  39.310  22.115  1.00  0.00     0.018 C
HETATM   21  C5  UNL     1       2.047  39.775  22.657  1.00  0.00     0.018 C
HETATM   22  C6  UNL     1       0.536  39.159  24.378  1.00  0.00     0.018 C
ENDBRANCH   1  19
BRANCH   7  23
HETATM   23  O5  UNL     1      -1.490  34.902  22.656  1.00  0.00    -0.385 OA
ATOM     24  H5  UNL     1      -1.741  34.079  23.056  1.00  0.00     0.210 HD
ENDBRANCH   7  23
TORSDOF 6
ENDMDL