MODEL 4
REMARK VINA RESULT: -7.638129629      3.656      6.307
REMARK  3 active torsions:
REMARK  status: ('A' for Active; 'I' for Inactive)
REMARK    1  A    between atoms: O1_2  and  C2_3
REMARK    2  A    between atoms: C2_3  and  C3_5
REMARK    3  A    between atoms: C17_22  and  O5_23
ROOT
HETATM    1  C3  UNL     1       0.769  36.511  23.124  1.00  0.00     0.124 C
HETATM    2  C4  UNL     1      -0.330  35.561  23.557  1.00  0.00     0.052 C
HETATM    3  C5  UNL     1      -0.041  34.942  24.872  1.00  0.00     0.155 C
HETATM    4  O3  UNL     1      -0.360  33.589  24.960  1.00  0.00    -0.348 OA
HETATM    5  C6  UNL     1       0.571  33.027  25.821  1.00  0.00     0.158 C
HETATM    6  C7  UNL     1       1.171  31.755  25.261  1.00  0.00     0.078 C
HETATM    7  C8  UNL     1      -0.123  32.778  27.139  1.00  0.00     0.078 C
HETATM    8  O4  UNL     1       1.576  33.938  26.034  1.00  0.00    -0.347 OA
HETATM    9  C9  UNL     1       1.487  34.814  24.985  1.00  0.00     0.163 C
HETATM   10  C10 UNL     1       2.042  36.165  25.210  1.00  0.00     0.087 C
HETATM   11  C11 UNL     1       3.409  36.259  24.651  1.00  0.00     0.233 C
HETATM   12  C12 UNL     1       4.534  35.877  25.532  1.00  0.00     0.038 C
HETATM   13  C13 UNL     1       5.636  36.762  24.919  1.00  0.00     0.037 C
HETATM   14  C14 UNL     1       4.879  37.847  24.135  1.00  0.00     0.219 C
HETATM   15  C15 UNL     1       5.550  39.157  24.487  1.00  0.00     0.043 C
HETATM   16  N1  UNL     1       3.570  37.729  24.662  1.00  0.00     0.101 N
HETATM   17  C16 UNL     1       2.488  38.117  23.831  1.00  0.00     0.312 C
HETATM   18  C17 UNL     1       1.348  37.220  24.340  1.00  0.00     0.105 C
ENDROOT
BRANCH   1  19
HETATM   19  C2  UNL     1       0.317  37.470  22.096  1.00  0.00     0.265 C
HETATM   20  O2  UNL     1      -0.373  38.474  22.413  1.00  0.00    -0.265 OA
BRANCH  19  21
HETATM   21  O1  UNL     1       0.608  37.342  20.745  1.00  0.00    -0.326 OA
HETATM   22  C1  UNL     1       1.938  37.265  20.247  1.00  0.00     0.213 C
ENDBRANCH  19  21
ENDBRANCH   1  19
BRANCH  18  23
HETATM   23  O5  UNL     1       0.396  37.926  25.029  1.00  0.00    -0.387 OA
ATOM     24  H5  UNL     1       0.525  37.879  25.969  1.00  0.00     0.210 HD
ENDBRANCH  18  23
TORSDOF 3
ENDMDL