MODEL 1
REMARK VINA RESULT: -7.038739900      0.000      0.000
REMARK  4 active torsions:
REMARK  status: ('A' for Active; 'I' for Inactive)
REMARK    1  A    between atoms: C2_2  and  O2_4
REMARK    2  A    between atoms: O2_4  and  C3_5
REMARK    3  A    between atoms: C4_6  and  C5_7
REMARK    4  A    between atoms: C13_18  and  O6_19
ROOT
HETATM    1  C3  UNL     1       3.792  33.896  25.434  1.00  0.00     0.145 C
HETATM    2  C4  UNL     1       4.560  35.140  25.798  1.00  0.00     0.036 C
HETATM    3  C8  UNL     1       3.732  36.318  25.388  1.00  0.00     0.039 C
HETATM    4  C9  UNL     1       4.059  36.855  24.058  1.00  0.00     0.025 C
HETATM    5  C10 UNL     1       3.793  37.484  26.312  1.00  0.00     0.212 C
HETATM    6  O3  UNL     1       4.629  37.687  27.197  1.00  0.00    -0.288 OA
HETATM    7  C11 UNL     1       2.715  38.445  26.086  1.00  0.00     0.266 C
HETATM    8  O4  UNL     1       2.840  39.635  26.499  1.00  0.00    -0.280 OA
HETATM    9  C12 UNL     1       1.485  38.009  25.371  1.00  0.00     0.231 C
HETATM   10  O5  UNL     1       0.631  38.879  25.016  1.00  0.00    -0.286 OA
HETATM   11  C13 UNL     1       1.229  36.578  25.061  1.00  0.00     0.202 C
HETATM   12  C14 UNL     1       2.328  35.773  25.574  1.00  0.00     0.049 C
HETATM   13  C15 UNL     1       2.346  34.313  25.347  1.00  0.00    -0.013 C
HETATM   14  C16 UNL     1       1.579  33.552  26.432  1.00  0.00     0.018 C
HETATM   15  C17 UNL     1       1.637  33.833  24.119  1.00  0.00     0.018 C
ENDROOT
BRANCH   1  16
HETATM   16  O2  UNL     1       4.265  33.060  24.482  1.00  0.00    -0.315 OA
BRANCH  16  17
HETATM   17  C2  UNL     1       4.626  31.790  24.354  1.00  0.00     0.255 C
HETATM   18  C1  UNL     1       6.001  31.250  24.229  1.00  0.00     0.126 C
HETATM   19  O1  UNL     1       3.672  31.015  24.346  1.00  0.00    -0.266 OA
ENDBRANCH  16  17
ENDBRANCH   1  16
BRANCH   2  20
HETATM   20  C5  UNL     1       5.965  35.072  25.393  1.00  0.00    -0.015 C
HETATM   21  C6  UNL     1       6.694  34.193  26.395  1.00  0.00     0.010 C
HETATM   22  C7  UNL     1       6.749  36.311  25.228  1.00  0.00     0.010 C
ENDBRANCH   2  20
BRANCH  11  23
HETATM   23  O6  UNL     1       0.879  36.484  23.744  1.00  0.00    -0.387 OA
ATOM     24  H6  UNL     1       0.553  35.605  23.586  1.00  0.00     0.210 HD
ENDBRANCH  11  23
TORSDOF 4
ENDMDL