MODEL 5
REMARK VINA RESULT: -6.703182186      1.939      4.267
REMARK  4 active torsions:
REMARK  status: ('A' for Active; 'I' for Inactive)
REMARK    1  A    between atoms: C2_2  and  C3_3
REMARK    2  A    between atoms: C3_3  and  C4_5
REMARK    3  A    between atoms: C5_7  and  O3_8
REMARK    4  A    between atoms: C8_11  and  O4_12
ROOT
HETATM    1  C4  UNL     1       1.648  35.087  24.629  1.00  0.00     0.203 C
HETATM    2  O2  UNL     1       0.451  35.126  25.387  1.00  0.00    -0.348 OA
HETATM    3  C5  UNL     1      -0.559  35.343  24.449  1.00  0.00     0.262 C
HETATM    4  C7  UNL     1      -0.538  36.742  23.891  1.00  0.00     0.099 C
HETATM    5  C8  UNL     1       0.868  36.933  23.310  1.00  0.00     0.075 C
HETATM    6  C9  UNL     1       1.012  38.118  22.470  1.00  0.00     0.024 C
HETATM    7  C10 UNL     1       2.313  38.056  21.695  1.00  0.00     0.013 C
HETATM    8  C11 UNL     1       0.876  39.462  23.065  1.00  0.00     0.088 C
HETATM    9  C12 UNL     1       1.819  39.769  24.142  1.00  0.00     0.156 C
HETATM   10  O5  UNL     1       2.844  40.357  23.811  1.00  0.00    -0.295 OA
HETATM   11  C13 UNL     1       1.792  39.506  25.608  1.00  0.00     0.191 C
HETATM   12  C14 UNL     1       3.230  39.308  26.033  1.00  0.00     0.042 C
HETATM   13  C15 UNL     1       3.399  37.825  25.741  1.00  0.00     0.035 C
HETATM   14  C16 UNL     1       1.981  37.269  25.582  1.00  0.00     0.132 C
HETATM   15  O6  UNL     1       1.142  38.318  25.814  1.00  0.00    -0.372 OA
HETATM   16  C17 UNL     1       1.893  36.576  24.291  1.00  0.00     0.086 C
ENDROOT
BRANCH   1  17
HETATM   17  C3  UNL     1       2.751  34.493  25.374  1.00  0.00     0.155 C
HETATM   18  O1  UNL     1       2.583  34.095  26.502  1.00  0.00    -0.295 OA
BRANCH  17  19
HETATM   19  C2  UNL     1       4.102  34.351  24.790  1.00  0.00     0.076 C
HETATM   20  C1  UNL     1       4.726  33.004  25.083  1.00  0.00     0.013 C
ENDBRANCH  17  19
ENDBRANCH   1  17
BRANCH   3  21
HETATM   21  O3  UNL     1      -1.795  34.935  24.891  1.00  0.00    -0.366 OA
HETATM   22  C6  UNL     1      -1.775  33.830  25.715  1.00  0.00     0.204 C
ENDBRANCH   3  21
BRANCH   5  23
HETATM   23  O4  UNL     1       0.909  35.889  22.327  1.00  0.00    -0.389 OA
ATOM     24  H4  UNL     1       0.872  36.391  21.522  1.00  0.00     0.210 HD
ENDBRANCH   5  23
TORSDOF 4
ENDMDL