MODEL 2
REMARK VINA RESULT: -7.231136102      1.680      2.172
REMARK  5 active torsions:
REMARK  status: ('A' for Active; 'I' for Inactive)
REMARK    1  A    between atoms: C2_2  and  O2_4
REMARK    2  A    between atoms: O2_4  and  C3_5
REMARK    3  A    between atoms: C6_8  and  O3_9
REMARK    4  A    between atoms: C11_16  and  O5_17
REMARK    5  A    between atoms: O5_17  and  C12_18
ROOT
HETATM    1  C3  UNL     1       5.294  36.335  25.844  1.00  0.00     0.144 C
HETATM    2  C4  UNL     1       5.740  36.098  27.304  1.00  0.00     0.048 C
HETATM    3  C5  UNL     1       7.251  36.078  27.293  1.00  0.00     0.015 C
HETATM    4  C6  UNL     1       5.232  37.109  28.248  1.00  0.00     0.194 C
HETATM    5  C7  UNL     1       4.515  38.248  27.664  1.00  0.00     0.164 C
HETATM    6  O4  UNL     1       4.388  39.251  28.354  1.00  0.00    -0.294 OA
HETATM    7  C8  UNL     1       3.941  38.263  26.316  1.00  0.00     0.029 C
HETATM    8  C9  UNL     1       4.729  39.150  25.444  1.00  0.00     0.024 C
HETATM    9  C10 UNL     1       2.486  38.581  26.232  1.00  0.00     0.051 C
HETATM   10  C11 UNL     1       2.143  37.971  24.888  1.00  0.00     0.141 C
HETATM   11  C14 UNL     1       2.986  36.689  24.775  1.00  0.00    -0.014 C
HETATM   12  C15 UNL     1       1.964  35.562  25.020  1.00  0.00     0.018 C
HETATM   13  C16 UNL     1       3.482  36.474  23.399  1.00  0.00     0.018 C
HETATM   14  C17 UNL     1       3.914  36.787  25.882  1.00  0.00     0.042 C
ENDROOT
BRANCH   1  15
HETATM   15  O2  UNL     1       5.653  35.267  25.033  1.00  0.00    -0.315 OA
BRANCH  15  16
HETATM   16  C2  UNL     1       5.543  33.929  25.347  1.00  0.00     0.255 C
HETATM   17  C1  UNL     1       6.760  33.102  25.428  1.00  0.00     0.126 C
HETATM   18  O1  UNL     1       4.379  33.529  25.539  1.00  0.00    -0.266 OA
ENDBRANCH  15  16
ENDBRANCH   1  15
BRANCH   4  19
HETATM   19  O3  UNL     1       4.357  36.547  29.210  1.00  0.00    -0.388 OA
ATOM     20  H3  UNL     1       3.586  37.085  29.349  1.00  0.00     0.210 HD
ENDBRANCH   4  19
BRANCH  10  21
HETATM   21  O5  UNL     1       0.783  37.737  24.751  1.00  0.00    -0.316 OA
BRANCH  21  22
HETATM   22  C12 UNL     1       0.037  38.226  23.695  1.00  0.00     0.255 C
HETATM   23  C13 UNL     1      -0.120  37.480  22.413  1.00  0.00     0.126 C
HETATM   24  O6  UNL     1      -0.530  39.356  23.836  1.00  0.00    -0.266 OA
ENDBRANCH  21  22
ENDBRANCH  10  21
TORSDOF 5
ENDMDL