MODEL 3
REMARK VINA RESULT: -7.207922772      2.853      5.058
REMARK  4 active torsions:
REMARK  status: ('A' for Active; 'I' for Inactive)
REMARK    1  A    between atoms: C2_2  and  O2_4
REMARK    2  A    between atoms: O2_4  and  C3_5
REMARK    3  A    between atoms: C3_5  and  C4_6
REMARK    4  A    between atoms: C9_12  and  O4_13
ROOT
HETATM    1  C4  UNL     1       4.670  37.586  24.926  1.00  0.00     0.006 C
HETATM    2  C5  UNL     1       5.298  38.884  24.583  1.00  0.00     0.020 C
HETATM    3  C6  UNL     1       4.273  37.633  26.436  1.00  0.00     0.179 C
HETATM    4  O3  UNL     1       3.395  36.521  26.436  1.00  0.00    -0.384 OA
HETATM    5  C7  UNL     1       2.465  37.016  25.491  1.00  0.00     0.134 C
HETATM    6  C8  UNL     1       1.382  36.075  25.197  1.00  0.00     0.056 C
HETATM    7  C9  UNL     1       1.733  34.640  25.087  1.00  0.00     0.126 C
HETATM    8  C10 UNL     1       0.875  34.074  23.948  1.00  0.00     0.041 C
HETATM    9  C11 UNL     1      -0.147  35.157  23.724  1.00  0.00    -0.035 C
HETATM   10  C12 UNL     1      -1.204  35.144  24.793  1.00  0.00     0.015 C
HETATM   11  C13 UNL     1      -0.813  35.067  22.384  1.00  0.00     0.015 C
HETATM   12  C14 UNL     1       0.679  36.405  23.900  1.00  0.00     0.072 C
HETATM   13  C15 UNL     1       1.668  36.592  22.810  1.00  0.00     0.132 C
HETATM   14  O5  UNL     1       1.244  36.641  21.674  1.00  0.00    -0.298 OA
HETATM   15  C16 UNL     1       3.147  36.718  23.088  1.00  0.00     0.086 C
HETATM   16  C17 UNL     1       3.272  37.509  24.348  1.00  0.00     0.034 C
ENDROOT
BRANCH   1  17
HETATM   17  C3  UNL     1       5.461  36.355  24.789  1.00  0.00     0.190 C
BRANCH  17  18
HETATM   18  O2  UNL     1       6.794  36.305  25.078  1.00  0.00    -0.321 OA
BRANCH  18  19
HETATM   19  C2  UNL     1       7.542  35.594  25.934  1.00  0.00     0.254 C
HETATM   20  C1  UNL     1       7.509  35.824  27.441  1.00  0.00     0.126 C
HETATM   21  O1  UNL     1       8.299  34.702  25.480  1.00  0.00    -0.266 OA
ENDBRANCH  18  19
ENDBRANCH  17  18
ENDBRANCH   1  17
BRANCH   7  22
HETATM   22  O4  UNL     1       1.378  33.952  26.271  1.00  0.00    -0.395 OA
ATOM     23  H4  UNL     1       0.754  33.262  26.079  1.00  0.00     0.210 HD
ENDBRANCH   7  22
TORSDOF 4
ENDMDL