MODEL 5
REMARK VINA RESULT: -6.347931287      2.131      4.501
REMARK  4 active torsions:
REMARK  status: ('A' for Active; 'I' for Inactive)
REMARK    1  A    between atoms: C7_8  and  O2_9
REMARK    2  A    between atoms: C13_16  and  O4_17
REMARK    3  A    between atoms: C15_20  and  C16_21
REMARK    4  A    between atoms: C16_21  and  O6_23
ROOT
HETATM    1  C1  UNL     1      -0.313  34.845  23.005  1.00  0.00     0.052 C
HETATM    2  C2  UNL     1       0.053  36.105  23.005  1.00  0.00     0.100 C
HETATM    3  O1  UNL     1       0.486  36.595  24.230  1.00  0.00    -0.340 OA
HETATM    4  C3  UNL     1       1.338  37.736  24.495  1.00  0.00     0.068 C
HETATM    5  C4  UNL     1       2.488  37.060  25.280  1.00  0.00     0.047 C
HETATM    6  C5  UNL     1       0.715  38.683  25.419  1.00  0.00     0.047 C
HETATM    7  C6  UNL     1       1.940  38.168  23.226  1.00  0.00     0.070 C
HETATM    8  C7  UNL     1       3.263  38.863  23.257  1.00  0.00     0.129 C
HETATM    9  C9  UNL     1       3.885  38.697  21.874  1.00  0.00     0.035 C
HETATM   10  C10 UNL     1       3.102  37.936  20.891  1.00  0.00     0.041 C
HETATM   11  C11 UNL     1       1.618  38.133  20.858  1.00  0.00     0.079 C
HETATM   12  C12 UNL     1       1.152  38.791  19.624  1.00  0.00     0.047 C
HETATM   13  O3  UNL     1       1.083  36.827  20.958  1.00  0.00    -0.337 OA
HETATM   14  C13 UNL     1      -0.043  36.837  21.712  1.00  0.00     0.213 C
HETATM   15  C14 UNL     1      -0.323  38.279  22.094  1.00  0.00     0.099 C
HETATM   16  C15 UNL     1       1.119  38.759  22.152  1.00  0.00     0.093 C
ENDROOT
BRANCH  16  17
HETATM   17  C16 UNL     1       1.123  40.244  22.063  1.00  0.00     0.271 C
HETATM   18  O5  UNL     1       1.623  40.908  21.126  1.00  0.00    -0.264 OA
BRANCH  17  19
HETATM   19  O6  UNL     1       0.537  40.977  23.073  1.00  0.00    -0.326 OA
HETATM   20  C17 UNL     1      -0.230  42.151  22.904  1.00  0.00     0.213 C
ENDBRANCH  17  19
ENDBRANCH  16  17
BRANCH   8  21
HETATM   21  O2  UNL     1       3.274  40.195  23.526  1.00  0.00    -0.390 OA
HETATM   22  C8  UNL     1       4.013  40.450  24.675  1.00  0.00     0.202 C
ENDBRANCH   8  21
BRANCH  14  23
HETATM   23  O4  UNL     1      -1.150  36.393  20.985  1.00  0.00    -0.360 OA
ATOM     24  H4  UNL     1      -1.945  36.511  21.491  1.00  0.00     0.213 HD
ENDBRANCH  14  23
TORSDOF 4
ENDMDL