MODEL 5
REMARK VINA RESULT: -6.230968087      1.768      2.222
REMARK  8 active torsions:
REMARK  status: ('A' for Active; 'I' for Inactive)
REMARK    1  A    between atoms: C2_2  and  O2_4
REMARK    2  A    between atoms: O2_4  and  C3_5
REMARK    3  A    between atoms: C3_5  and  C4_6
REMARK    4  A    between atoms: C6_8  and  O3_9
REMARK    5  A    between atoms: C8_12  and  C9_13
REMARK    6  A    between atoms: C11_16  and  C16_23
REMARK    7  A    between atoms: C13_18  and  O5_19
REMARK    8  A    between atoms: O5_19  and  C14_20
ROOT
HETATM    1  C4  UNL     1       1.526  36.404  23.937  1.00  0.00     0.015 C
HETATM    2  C5  UNL     1       0.877  36.065  22.559  1.00  0.00     0.021 C
HETATM    3  C6  UNL     1       0.346  36.937  24.716  1.00  0.00     0.129 C
HETATM    4  C7  UNL     1       0.097  38.191  23.915  1.00  0.00     0.041 C
HETATM    5  C8  UNL     1       1.408  38.642  23.376  1.00  0.00     0.037 C
HETATM    6  C16 UNL     1       2.439  37.512  23.653  1.00  0.00     0.008 C
HETATM    7  C17 UNL     1       3.217  37.184  22.406  1.00  0.00     0.020 C
ENDROOT
BRANCH   1   8
HETATM    8  C3  UNL     1       2.040  35.116  24.437  1.00  0.00     0.191 C
BRANCH   8   9
HETATM    9  O2  UNL     1       1.694  34.773  25.759  1.00  0.00    -0.321 OA
BRANCH   9  10
HETATM   10  C2  UNL     1       1.333  33.452  25.990  1.00  0.00     0.254 C
HETATM   11  C1  UNL     1       1.682  32.351  25.058  1.00  0.00     0.126 C
HETATM   12  O1  UNL     1       0.685  33.140  27.021  1.00  0.00    -0.266 OA
ENDBRANCH   9  10
ENDBRANCH   8   9
ENDBRANCH   1   8
BRANCH   3  13
HETATM   13  O3  UNL     1      -0.798  36.132  24.583  1.00  0.00    -0.395 OA
ATOM     14  H3  UNL     1      -1.589  36.571  24.872  1.00  0.00     0.210 HD
ENDBRANCH   3  13
BRANCH   6  15
HETATM   15  C11 UNL     1       3.193  38.212  24.688  1.00  0.00     0.096 C
HETATM   16  O4  UNL     1       3.587  39.408  24.085  1.00  0.00    -0.363 OA
HETATM   17  C9  UNL     1       4.431  38.603  23.282  1.00  0.00     0.092 C
HETATM   18  C10 UNL     1       5.514  39.264  22.568  1.00  0.00     0.049 C
HETATM   19  C13 UNL     1       4.685  37.836  24.519  1.00  0.00     0.201 C
HETATM   20  C12 UNL     1       2.771  38.249  26.108  1.00  0.00     0.050 C
BRANCH  19  21
HETATM   21  O5  UNL     1       4.999  36.505  24.417  1.00  0.00    -0.310 OA
BRANCH  21  22
HETATM   22  C14 UNL     1       5.578  35.734  25.444  1.00  0.00     0.255 C
HETATM   23  C15 UNL     1       5.508  34.248  25.441  1.00  0.00     0.126 C
HETATM   24  O6  UNL     1       6.152  36.396  26.349  1.00  0.00    -0.266 OA
ENDBRANCH  21  22
ENDBRANCH  19  21
ENDBRANCH   6  15
TORSDOF 8
ENDMDL