MODEL 1
REMARK VINA RESULT: -9.438157212      0.000      0.000
REMARK  16 active torsions:
REMARK  status: ('A' for Active; 'I' for Inactive)
REMARK    1  A    between atoms: O1_2  and  C2_3
REMARK    2  A    between atoms: C2_3  and  C3_4
REMARK    3  A    between atoms: C3_4  and  N1_5
REMARK    4  A    between atoms: N1_5  and  C4_7
REMARK    5  A    between atoms: C5_10  and  N3_11
REMARK    6  A    between atoms: N3_11  and  C6_13
REMARK    7  A    between atoms: C6_13  and  C7_14
REMARK    8  A    between atoms: C7_14  and  N4_15
REMARK    9  A    between atoms: N4_15  and  C8_16
REMARK   10  A    between atoms: C8_16  and  C9_17
REMARK   11  A    between atoms: C9_17  and  O2_18
REMARK   12  A    between atoms: O2_18  and  C10_19
REMARK   13  A    between atoms: C10_19  and  C11_20
REMARK   14  A    between atoms: C11_20  and  C12_22
REMARK   15  A    between atoms: C20_35  and  N6_36
REMARK   16  A    between atoms: N6_36  and  C21_38
ROOT
HETATM    1  C4  UNL     1      21.650  28.656  13.711  1.00  0.00     0.707 A
HETATM    2  N2  UNL     1      21.478  29.291  14.907  1.00  0.00    -0.022 N
ATOM      3  H2  UNL     1      22.265  29.772  15.342  1.00  0.00     0.203 HD
HETATM    4  C5  UNL     1      20.293  29.287  15.508  1.00  0.00     0.707 A
HETATM    5  N5  UNL     1      19.256  28.647  14.930  1.00  0.00    -0.021 N
ATOM      6  H5  UNL     1      18.349  28.645  15.397  1.00  0.00     0.203 HD
HETATM    7  C20 UNL     1      19.390  28.012  13.756  1.00  0.00     0.711 A
HETATM    8  N7  UNL     1      20.600  28.038  13.178  1.00  0.00    -0.021 N
ATOM      9  H7  UNL     1      20.721  27.560  12.285  1.00  0.00     0.203 HD
ENDROOT
BRANCH   4  10
HETATM   10  N3  UNL     1      20.097  29.864  16.619  1.00  0.00    -0.223 N
ATOM     11  H3  UNL     1      19.929  29.283  17.441  1.00  0.00     0.177 HD
BRANCH  10  12
HETATM   12  C6  UNL     1      20.097  31.303  16.784  1.00  0.00     0.166 C
BRANCH  12  13
HETATM   13  C7  UNL     1      18.658  31.732  16.766  1.00  0.00     0.257 C
BRANCH  13  14
HETATM   14  N4  UNL     1      18.389  32.866  15.884  1.00  0.00    -0.063 N
HETATM   15  C13 UNL     1      17.324  32.487  14.994  1.00  0.00     0.237 C
HETATM   16  C14 UNL     1      16.087  32.068  15.738  1.00  0.00     0.029 C
HETATM   17  C15 UNL     1      15.608  33.220  16.567  1.00  0.00     0.012 C
HETATM   18  C16 UNL     1      16.585  34.278  16.862  1.00  0.00    -0.023 C
HETATM   19  C17 UNL     1      16.335  34.714  18.320  1.00  0.00     0.016 C
HETATM   20  C18 UNL     1      16.235  35.538  16.052  1.00  0.00     0.016 C
HETATM   21  C19 UNL     1      18.027  33.969  16.708  1.00  0.00     0.246 C
BRANCH  14  22
HETATM   22  C8  UNL     1      19.609  33.035  15.135  1.00  0.00     0.263 C
BRANCH  22  23
HETATM   23  C9  UNL     1      19.655  32.472  13.771  1.00  0.00     0.196 C
BRANCH  23  24
HETATM   24  O2  UNL     1      20.941  32.089  13.364  1.00  0.00    -0.382 OA
BRANCH  24  25
HETATM   25  C10 UNL     1      21.834  33.039  13.829  1.00  0.00     0.255 C
BRANCH  25  26
HETATM   26  C11 UNL     1      22.962  32.410  14.567  1.00  0.00     0.255 C
HETATM   27  O3  UNL     1      23.540  31.402  14.223  1.00  0.00    -0.286 OA
BRANCH  26  28
HETATM   28  C12 UNL     1      23.405  33.080  15.826  1.00  0.00     0.453 C
HETATM   29  F1  UNL     1      22.695  34.269  16.010  1.00  0.00    -0.163 F
HETATM   30  F2  UNL     1      24.737  33.407  15.718  1.00  0.00    -0.163 F
HETATM   31  F3  UNL     1      23.151  32.288  16.933  1.00  0.00    -0.163 F
ENDBRANCH  26  28
ENDBRANCH  25  26
ENDBRANCH  24  25
ENDBRANCH  23  24
ENDBRANCH  22  23
ENDBRANCH  14  22
ENDBRANCH  13  14
ENDBRANCH  12  13
ENDBRANCH  10  12
ENDBRANCH   4  10
BRANCH   1  32
HETATM   32  N1  UNL     1      22.803  28.684  13.156  1.00  0.00    -0.223 N
ATOM     33  H1  UNL     1      23.490  29.363  13.485  1.00  0.00     0.177 HD
BRANCH  32  34
HETATM   34  C3  UNL     1      23.168  27.792  12.082  1.00  0.00     0.164 C
BRANCH  34  35
HETATM   35  C2  UNL     1      24.591  27.275  12.262  1.00  0.00     0.187 C
BRANCH  35  36
HETATM   36  O1  UNL     1      24.730  25.960  11.899  1.00  0.00    -0.394 OA
HETATM   37  C1  UNL     1      24.016  25.602  10.766  1.00  0.00     0.201 C
ENDBRANCH  35  36
ENDBRANCH  34  35
ENDBRANCH  32  34
ENDBRANCH   1  32
BRANCH   7  38
HETATM   38  N6  UNL     1      18.358  27.423  13.261  1.00  0.00    -0.190 N
ATOM     39  H6  UNL     1      17.636  27.101  13.904  1.00  0.00     0.184 HD
BRANCH  38  40
HETATM   40  C21 UNL     1      18.164  27.196  11.879  1.00  0.00     0.061 A
HETATM   41  C22 UNL     1      17.758  28.274  11.119  1.00  0.00    -0.034 A
HETATM   42  C23 UNL     1      17.537  29.610  11.744  1.00  0.00     0.050 C
HETATM   43  C24 UNL     1      17.566  28.065   9.768  1.00  0.00     0.009 A
HETATM   44  C25 UNL     1      17.780  26.812   9.228  1.00  0.00     0.001 A
HETATM   45  C26 UNL     1      18.188  25.753  10.026  1.00  0.00     0.009 A
HETATM   46  C27 UNL     1      18.382  25.949  11.369  1.00  0.00    -0.034 A
HETATM   47  C28 UNL     1      18.819  24.791  12.195  1.00  0.00     0.050 C
ENDBRANCH  38  40
ENDBRANCH   7  38
TORSDOF 16
ENDMDL