MODEL 3
REMARK VINA RESULT: -9.161595812      4.270      9.136
REMARK  14 active torsions:
REMARK  status: ('A' for Active; 'I' for Inactive)
REMARK    1  A    between atoms: C1_4  and  C2_5
REMARK    2  A    between atoms: C1_4  and  N2_15
REMARK    3  A    between atoms: C5_8  and  C6_9
REMARK    4  A    between atoms: C11_18  and  C12_19
REMARK    5  A    between atoms: C11_18  and  N4_31
REMARK    6  A    between atoms: C12_19  and  C13_20
REMARK    7  A    between atoms: C13_20  and  C14_21
REMARK    8  A    between atoms: C14_21  and  C15_22
REMARK    9  A    between atoms: C15_22  and  N3_23
REMARK   10  A    between atoms: N3_23  and  S1_25
REMARK   11  A    between atoms: S1_25  and  C16_28
REMARK   12  A    between atoms: N4_31  and  S2_33
REMARK   13  A    between atoms: S2_33  and  C19_36
REMARK   14  A    between atoms: C19_36  and  C20_37
ROOT
HETATM    1  N2  UNL     1      19.412  30.006  14.301  1.00  0.00    -0.364 N
HETATM    2  C9  UNL     1      20.111  30.015  15.565  1.00  0.00     0.127 C
HETATM    3  C10 UNL     1      21.322  30.840  15.239  1.00  0.00     0.053 C
HETATM    4  C11 UNL     1      20.940  31.820  14.182  1.00  0.00     0.058 C
HETATM    5  C25 UNL     1      19.494  31.373  13.816  1.00  0.00     0.156 C
ENDROOT
BRANCH   4   6
HETATM    6  C12 UNL     1      21.664  31.451  12.907  1.00  0.00     0.033 C
BRANCH   6   7
HETATM    7  C13 UNL     1      22.546  30.263  13.003  1.00  0.00     0.004 C
BRANCH   7   8
HETATM    8  C14 UNL     1      22.487  29.378  11.747  1.00  0.00     0.020 C
BRANCH   8   9
HETATM    9  C15 UNL     1      23.780  28.605  11.573  1.00  0.00     0.132 C
BRANCH   9  10
HETATM   10  N3  UNL     1      23.851  27.702  10.474  1.00  0.00    -0.319 N
ATOM     11  H3  UNL     1      23.932  27.989   9.498  1.00  0.00     0.172 HD
BRANCH  10  12
HETATM   12  S1  UNL     1      23.781  26.057  11.006  1.00  0.00     0.230 S
HETATM   13  O1  UNL     1      24.935  25.732  11.873  1.00  0.00    -0.206 OA
HETATM   14  O2  UNL     1      22.531  25.797  11.813  1.00  0.00    -0.206 OA
BRANCH  12  15
HETATM   15  C16 UNL     1      23.737  24.951   9.605  1.00  0.00     0.129 A
HETATM   16  C17 UNL     1      23.656  25.706   8.293  1.00  0.00     0.023 A
HETATM   17  C18 UNL     1      22.433  25.041   8.780  1.00  0.00     0.023 A
ENDBRANCH  12  15
ENDBRANCH  10  12
ENDBRANCH   9  10
ENDBRANCH   8   9
ENDBRANCH   7   8
ENDBRANCH   6   7
ENDBRANCH   4   6
BRANCH   4  18
HETATM   18  N4  UNL     1      20.862  33.140  14.616  1.00  0.00    -0.308 N
ATOM     19  H4  UNL     1      20.937  33.858  13.897  1.00  0.00     0.173 HD
BRANCH  18  20
HETATM   20  S2  UNL     1      20.663  33.669  16.160  1.00  0.00     0.227 S
HETATM   21  O3  UNL     1      21.822  33.698  17.114  1.00  0.00    -0.206 OA
HETATM   22  O4  UNL     1      20.507  35.240  15.956  1.00  0.00    -0.206 OA
BRANCH  20  23
HETATM   23  C19 UNL     1      19.216  33.268  17.041  1.00  0.00     0.167 C
BRANCH  23  24
HETATM   24  C20 UNL     1      17.964  34.082  16.871  1.00  0.00     0.005 C
HETATM   25  C21 UNL     1      17.431  34.580  18.149  1.00  0.00     0.032 C
HETATM   26  C22 UNL     1      15.966  34.817  18.140  1.00  0.00     0.168 C
HETATM   27  O5  UNL     1      15.175  34.113  17.300  1.00  0.00    -0.391 OA
HETATM   28  C23 UNL     1      15.721  33.049  16.639  1.00  0.00     0.168 C
HETATM   29  C24 UNL     1      17.005  33.433  15.952  1.00  0.00     0.032 C
ENDBRANCH  23  24
ENDBRANCH  20  23
ENDBRANCH  18  20
ENDBRANCH   4  18
BRANCH   1  30
HETATM   30  C1  UNL     1      18.775  28.868  13.755  1.00  0.00     0.107 C
HETATM   31  N1  UNL     1      18.218  28.056  14.616  1.00  0.00    -0.385 N
ATOM     32  H12 UNL     1      17.758  27.235  14.222  1.00  0.00     0.157 HD
ATOM     33  H11 UNL     1      18.213  28.395  15.578  1.00  0.00     0.157 HD
BRANCH  30  34
HETATM   34  C2  UNL     1      18.782  28.388  12.389  1.00  0.00     0.007 A
HETATM   35  C3  UNL     1      19.533  27.389  11.888  1.00  0.00     0.016 A
HETATM   36  C4  UNL     1      19.369  26.852  10.606  1.00  0.00     0.017 A
HETATM   37  C5  UNL     1      18.381  27.365   9.777  1.00  0.00     0.048 A
HETATM   38  C7  UNL     1      17.608  28.393  10.281  1.00  0.00     0.017 A
HETATM   39  C8  UNL     1      17.782  28.899  11.536  1.00  0.00     0.016 A
BRANCH  37  40
HETATM   40  C6  UNL     1      18.161  26.798   8.417  1.00  0.00     0.417 C
HETATM   41  F1  UNL     1      18.103  27.843   7.483  1.00  0.00    -0.166 F
HETATM   42  F2  UNL     1      16.959  26.145   8.368  1.00  0.00    -0.166 F
HETATM   43  F3  UNL     1      19.193  25.948   8.049  1.00  0.00    -0.166 F
ENDBRANCH  37  40
ENDBRANCH  30  34
ENDBRANCH   1  30
TORSDOF 14
ENDMDL