MODEL 4
REMARK VINA RESULT: -8.314282584      2.170      4.268
REMARK  14 active torsions:
REMARK  status: ('A' for Active; 'I' for Inactive)
REMARK    1  A    between atoms: C2_2  and  C4_4
REMARK    2  A    between atoms: N2_14  and  C13_15
REMARK    3  A    between atoms: C13_15  and  C14_16
REMARK    4  A    between atoms: C14_16  and  C15_17
REMARK    5  A    between atoms: C15_17  and  C16_18
REMARK    6  A    between atoms: C16_18  and  C17_19
REMARK    7  A    between atoms: C17_19  and  N3_20
REMARK    8  A    between atoms: N4_23  and  C20_24
REMARK    9  A    between atoms: C20_24  and  C21_25
REMARK   10  A    between atoms: C21_25  and  O1_26
REMARK   11  A    between atoms: C21_25  and  C22_28
REMARK   12  A    between atoms: C22_28  and  N5_29
REMARK   13  A    between atoms: N5_29  and  S1_31
REMARK   14  A    between atoms: C23_35  and  C24_36
ROOT
HETATM    1  N3  UNL     1      20.828  32.574  15.089  1.00  0.00    -0.348 N
HETATM    2  C18 UNL     1      21.305  31.608  16.091  1.00  0.00     0.156 C
HETATM    3  C19 UNL     1      20.273  30.513  16.156  1.00  0.00     0.293 C
HETATM    4  N4  UNL     1      20.156  29.846  14.895  1.00  0.00     0.115 N
HETATM    5  C23 UNL     1      19.704  30.697  13.831  1.00  0.00     0.420 C
HETATM    6  C25 UNL     1      20.023  32.112  14.005  1.00  0.00     0.262 C
HETATM    7  O5  UNL     1      19.593  32.973  13.195  1.00  0.00    -0.271 OA
ENDROOT
BRANCH   1   8
HETATM    8  C17 UNL     1      21.171  33.954  15.193  1.00  0.00     0.126 C
BRANCH   8   9
HETATM    9  C16 UNL     1      20.501  34.691  16.329  1.00  0.00     0.020 C
BRANCH   9  10
HETATM   10  C15 UNL     1      21.402  35.720  16.966  1.00  0.00     0.003 C
BRANCH  10  11
HETATM   11  C14 UNL     1      20.678  36.277  18.183  1.00  0.00     0.030 C
BRANCH  11  12
HETATM   12  C13 UNL     1      19.732  37.390  17.838  1.00  0.00     0.273 C
BRANCH  12  13
HETATM   13  N2  UNL     1      18.672  37.566  18.812  1.00  0.00     0.097 N
HETATM   14  C4  UNL     1      17.747  38.552  18.323  1.00  0.00     0.243 C
HETATM   15  C5  UNL     1      17.131  38.078  17.067  1.00  0.00     0.153 C
HETATM   16  N1  UNL     1      16.623  36.753  17.042  1.00  0.00    -0.404 N
HETATM   17  C6  UNL     1      16.387  36.375  15.688  1.00  0.00     0.117 C
HETATM   18  C11 UNL     1      17.215  35.805  17.889  1.00  0.00     0.107 C
HETATM   19  C7  UNL     1      16.229  34.923  15.415  1.00  0.00     0.019 C
HETATM   20  C8  UNL     1      15.231  34.236  16.288  1.00  0.00     0.002 C
HETATM   21  C9  UNL     1      15.824  33.751  17.591  1.00  0.00     0.002 C
HETATM   22  C10 UNL     1      16.096  34.930  18.476  1.00  0.00     0.027 C
HETATM   23  C12 UNL     1      17.979  36.337  19.059  1.00  0.00     0.297 C
BRANCH  14  24
HETATM   24  C2  UNL     1      16.756  38.991  19.373  1.00  0.00     0.012 C
HETATM   25  C1  UNL     1      15.514  39.574  18.742  1.00  0.00     0.012 C
HETATM   26  C3  UNL     1      17.383  40.061  20.242  1.00  0.00     0.012 C
ENDBRANCH  14  24
ENDBRANCH  12  13
ENDBRANCH  11  12
ENDBRANCH  10  11
ENDBRANCH   9  10
ENDBRANCH   8   9
ENDBRANCH   1   8
BRANCH   5  27
HETATM   27  C24 UNL     1      18.247  30.432  13.581  1.00  0.00     0.427 C
HETATM   28  F1  UNL     1      17.952  30.336  12.236  1.00  0.00    -0.168 F
HETATM   29  F2  UNL     1      17.830  29.249  14.157  1.00  0.00    -0.168 F
HETATM   30  F3  UNL     1      17.435  31.428  14.089  1.00  0.00    -0.168 F
ENDBRANCH   5  27
BRANCH   4  31
HETATM   31  C20 UNL     1      21.278  29.031  14.524  1.00  0.00     0.307 C
BRANCH  31  32
HETATM   32  C21 UNL     1      21.218  28.643  13.063  1.00  0.00     0.165 C
BRANCH  32  33
HETATM   33  O1  UNL     1      20.276  27.605  12.906  1.00  0.00    -0.392 OA
ATOM     34  H1  UNL     1      20.699  26.776  13.096  1.00  0.00     0.210 HD
ENDBRANCH  32  33
BRANCH  32  35
HETATM   35  C22 UNL     1      22.572  28.078  12.618  1.00  0.00     0.168 C
BRANCH  35  36
HETATM   36  N5  UNL     1      22.356  27.617  11.241  1.00  0.00    -0.298 N
ATOM     37  H5  UNL     1      22.014  28.180  10.462  1.00  0.00     0.174 HD
BRANCH  36  38
HETATM   38  S1  UNL     1      22.786  25.951  11.185  1.00  0.00     0.204 S
HETATM   39  O2  UNL     1      21.761  25.116  11.900  1.00  0.00    -0.578 OA
HETATM   40  O3  UNL     1      22.819  25.497   9.751  1.00  0.00    -0.578 OA
HETATM   41  O4  UNL     1      24.321  25.764  11.882  1.00  0.00    -0.578 OA
ENDBRANCH  36  38
ENDBRANCH  35  36
ENDBRANCH  32  35
ENDBRANCH  31  32
ENDBRANCH   4  31
TORSDOF 14
ENDMDL