MODEL 2
REMARK VINA RESULT: -7.629994543      1.223      1.461
REMARK  14 active torsions:
REMARK  status: ('A' for Active; 'I' for Inactive)
REMARK    1  A    between atoms: C2_2  and  C3_3
REMARK    2  A    between atoms: C3_3  and  C4_4
REMARK    3  A    between atoms: C4_4  and  C5_5
REMARK    4  A    between atoms: C5_5  and  C6_6
REMARK    5  A    between atoms: C6_6  and  C7_7
REMARK    6  A    between atoms: C7_7  and  C8_8
REMARK    7  A    between atoms: C8_8  and  C9_9
REMARK    8  A    between atoms: C9_9  and  C10_10
REMARK    9  A    between atoms: C12_13  and  C13_14
REMARK       I    between atoms: C13_14  and  N1_16
REMARK   10  A    between atoms: N1_16  and  S1_18
REMARK   11  A    between atoms: S1_18  and  C14_21
REMARK   12  A    between atoms: C18_25  and  C19_26
REMARK   13  A    between atoms: C20_29  and  O7_30
REMARK   14  A    between atoms: C24_35  and  C25_36
ROOT
HETATM    1  C10 UNL     1      18.281  29.711  12.388  1.00  0.00     0.079 C
HETATM    2  C11 UNL     1      17.497  28.607  11.783  1.00  0.00     0.168 C
HETATM    3  O1  UNL     1      17.725  28.649  10.404  1.00  0.00    -0.367 OA
HETATM    4  C12 UNL     1      18.975  28.257  10.011  1.00  0.00     0.220 C
HETATM    5  C17 UNL     1      19.604  27.274  10.966  1.00  0.00     0.051 C
HETATM    6  C18 UNL     1      18.451  26.316  11.313  1.00  0.00     0.131 C
HETATM    7  C20 UNL     1      18.097  27.347  12.381  1.00  0.00     0.105 C
HETATM    8  C21 UNL     1      19.563  27.699  12.413  1.00  0.00     0.071 C
HETATM    9  C22 UNL     1      19.679  29.144  12.689  1.00  0.00     0.178 C
HETATM   10  C23 UNL     1      20.817  29.867  11.993  1.00  0.00     0.088 C
HETATM   11  C24 UNL     1      21.527  29.844  13.332  1.00  0.00     0.332 C
HETATM   12  N2  UNL     1      20.221  29.601  13.922  1.00  0.00     0.108 N
HETATM   13  C26 UNL     1      20.346  28.714  15.023  1.00  0.00     0.311 C
ENDROOT
BRANCH   4  14
HETATM   14  C13 UNL     1      18.798  27.485   8.724  1.00  0.00     0.260 C
HETATM   15  O2  UNL     1      17.966  27.819   7.849  1.00  0.00    -0.270 OA
HETATM   16  N1  UNL     1      19.594  26.327   8.467  1.00  0.00    -0.252 N
ATOM     17  H1  UNL     1      20.279  26.036   9.165  1.00  0.00     0.181 HD
BRANCH  16  18
HETATM   18  S1  UNL     1      19.439  25.415   7.034  1.00  0.00     0.237 S
HETATM   19  O3  UNL     1      20.024  26.226   5.887  1.00  0.00    -0.205 OA
HETATM   20  O4  UNL     1      20.193  24.112   7.085  1.00  0.00    -0.205 OA
BRANCH  18  21
HETATM   21  C14 UNL     1      17.748  25.071   6.631  1.00  0.00     0.130 A
HETATM   22  C15 UNL     1      16.912  24.476   7.784  1.00  0.00     0.023 A
HETATM   23  C16 UNL     1      17.312  23.654   6.563  1.00  0.00     0.023 A
ENDBRANCH  18  21
ENDBRANCH  16  18
ENDBRANCH   4  14
BRANCH   6  24
HETATM   24  C19 UNL     1      18.947  25.070  11.894  1.00  0.00     0.180 C
HETATM   25  O5  UNL     1      18.291  24.278  12.593  1.00  0.00    -0.648 OA
HETATM   26  O6  UNL     1      20.293  24.739  11.636  1.00  0.00    -0.648 OA
ENDBRANCH   6  24
BRANCH   1  27
HETATM   27  C9  UNL     1      17.728  30.433  13.548  1.00  0.00    -0.021 C
BRANCH  27  28
HETATM   28  C8  UNL     1      17.913  31.868  13.738  1.00  0.00    -0.030 C
BRANCH  28  29
HETATM   29  C7  UNL     1      18.495  32.454  14.952  1.00  0.00     0.027 C
BRANCH  29  30
HETATM   30  C6  UNL     1      17.650  32.281  16.199  1.00  0.00     0.004 C
BRANCH  30  31
HETATM   31  C5  UNL     1      16.195  32.518  15.952  1.00  0.00     0.000 C
BRANCH  31  32
HETATM   32  C4  UNL     1      15.642  33.734  16.633  1.00  0.00     0.000 C
BRANCH  32  33
HETATM   33  C3  UNL     1      16.021  35.012  15.893  1.00  0.00    -0.000 C
BRANCH  33  34
HETATM   34  C2  UNL     1      15.741  36.200  16.786  1.00  0.00    -0.005 C
HETATM   35  C1  UNL     1      14.627  35.771  17.737  1.00  0.00     0.005 C
ENDBRANCH  33  34
ENDBRANCH  32  33
ENDBRANCH  31  32
ENDBRANCH  30  31
ENDBRANCH  29  30
ENDBRANCH  28  29
ENDBRANCH  27  28
ENDBRANCH   1  27
BRANCH   7  36
HETATM   36  O7  UNL     1      17.502  26.865  13.495  1.00  0.00    -0.386 OA
ATOM     37  H7  UNL     1      17.502  25.922  13.601  1.00  0.00     0.210 HD
ENDBRANCH   7  36
BRANCH  11  38
HETATM   38  C25 UNL     1      22.129  31.124  13.789  1.00  0.00     0.418 C
HETATM   39  F1  UNL     1      23.488  31.151  13.484  1.00  0.00    -0.169 F
HETATM   40  F2  UNL     1      21.590  32.229  13.141  1.00  0.00    -0.169 F
HETATM   41  F3  UNL     1      22.039  31.361  15.144  1.00  0.00    -0.169 F
ENDBRANCH  11  38
TORSDOF 14
ENDMDL