MODEL 5
REMARK VINA RESULT: -8.411407766      3.989      9.456
REMARK  12 active torsions:
REMARK  status: ('A' for Active; 'I' for Inactive)
REMARK    1  A    between atoms: C1_2  and  C2_4
REMARK    2  A    between atoms: C2_4  and  C3_5
REMARK    3  A    between atoms: C2_4  and  N3_15
REMARK    4  A    between atoms: C3_5  and  C4_6
REMARK    5  A    between atoms: N3_15  and  C8_17
REMARK    6  A    between atoms: C8_17  and  C9_18
REMARK    7  A    between atoms: C9_18  and  O2_19
REMARK    8  A    between atoms: O2_19  and  C10_20
REMARK    9  A    between atoms: C17_27  and  C18_28
REMARK   10  A    between atoms: N4_31  and  S1_32
REMARK   11  A    between atoms: S1_32  and  C21_35
REMARK   12  A    between atoms: C21_35  and  C22_36
ROOT
HETATM    1  C10 UNL     1      17.930  29.170  12.962  1.00  0.00     0.069 A
HETATM    2  C11 UNL     1      18.543  28.443  13.960  1.00  0.00     0.039 A
HETATM    3  C12 UNL     1      18.903  29.076  15.129  1.00  0.00     0.040 A
HETATM    4  C13 UNL     1      18.654  30.420  15.301  1.00  0.00     0.075 A
HETATM    5  C14 UNL     1      18.037  31.163  14.308  1.00  0.00    -0.022 A
HETATM    6  C15 UNL     1      17.673  30.550  13.141  1.00  0.00     0.046 A
HETATM    7  C16 UNL     1      17.770  32.611  14.501  1.00  0.00     0.048 C
HETATM    8  C17 UNL     1      17.578  32.859  15.958  1.00  0.00     0.019 C
HETATM    9  C25 UNL     1      18.845  32.470  16.666  1.00  0.00     0.181 C
HETATM   10  O5  UNL     1      19.014  31.077  16.482  1.00  0.00    -0.350 OA
ENDROOT
BRANCH   1  11
HETATM   11  O2  UNL     1      17.553  28.609  11.784  1.00  0.00    -0.350 OA
BRANCH  11  12
HETATM   12  C9  UNL     1      18.172  28.054  10.718  1.00  0.00     0.195 C
BRANCH  12  13
HETATM   13  C8  UNL     1      19.237  26.989  11.030  1.00  0.00     0.141 C
BRANCH  13  14
HETATM   14  N3  UNL     1      20.485  27.566  10.716  1.00  0.00    -0.407 N
ATOM     15  H3  UNL     1      20.700  27.814   9.751  1.00  0.00     0.154 HD
BRANCH  14  16
HETATM   16  C2  UNL     1      21.436  27.803  11.726  1.00  0.00     0.168 C
BRANCH  16  17
HETATM   17  C1  UNL     1      22.455  26.741  11.886  1.00  0.00     0.253 C
HETATM   18  N1  UNL     1      23.825  27.138  12.095  1.00  0.00    -0.060 NA
HETATM   19  O1  UNL     1      22.206  25.542  11.854  1.00  0.00    -0.275 OA
ENDBRANCH  16  17
BRANCH  16  20
HETATM   20  C3  UNL     1      22.090  29.144  11.760  1.00  0.00     0.067 C
BRANCH  20  21
HETATM   21  C4  UNL     1      21.568  30.105  12.772  1.00  0.00     0.195 C
HETATM   22  C5  UNL     1      22.427  29.910  14.033  1.00  0.00     0.041 C
HETATM   23  C6  UNL     1      22.092  31.157  14.820  1.00  0.00     0.113 C
HETATM   24  C7  UNL     1      21.907  32.201  13.748  1.00  0.00     0.403 C
HETATM   25  F1  UNL     1      20.808  32.995  14.065  1.00  0.00    -0.174 F
HETATM   26  F2  UNL     1      23.030  33.024  13.624  1.00  0.00    -0.174 F
HETATM   27  N2  UNL     1      21.727  31.487  12.505  1.00  0.00    -0.005 N
ATOM     28  H22 UNL     1      22.483  31.668  11.844  1.00  0.00     0.284 HD
ATOM     29  H21 UNL     1      20.957  31.864  11.952  1.00  0.00     0.284 HD
ENDBRANCH  20  21
ENDBRANCH  16  20
ENDBRANCH  14  16
ENDBRANCH  13  14
ENDBRANCH  12  13
ENDBRANCH  11  12
ENDBRANCH   1  11
BRANCH   8  30
HETATM   30  C18 UNL     1      17.074  34.207  16.329  1.00  0.00     0.001 C
HETATM   31  C19 UNL     1      16.075  34.111  17.464  1.00  0.00     0.051 C
HETATM   32  C20 UNL     1      15.539  35.461  17.852  1.00  0.00     0.081 C
HETATM   33  N4  UNL     1      15.855  36.536  17.011  1.00  0.00    -0.270 N
HETATM   34  C23 UNL     1      16.086  36.324  15.641  1.00  0.00     0.081 C
HETATM   35  C24 UNL     1      16.357  34.914  15.206  1.00  0.00     0.051 C
BRANCH  33  36
HETATM   36  S1  UNL     1      16.476  37.941  17.712  1.00  0.00     0.236 S
HETATM   37  O3  UNL     1      17.051  38.880  16.695  1.00  0.00    -0.205 OA
HETATM   38  O4  UNL     1      15.374  38.712  18.424  1.00  0.00    -0.205 OA
BRANCH  36  39
HETATM   39  C21 UNL     1      17.723  37.625  18.949  1.00  0.00     0.178 C
BRANCH  39  40
HETATM   40  C22 UNL     1      18.858  36.841  18.354  1.00  0.00     0.131 C
HETATM   41 CL1  UNL     1      19.115  35.295  19.162  1.00  0.00    -0.129 Cl
ENDBRANCH  39  40
ENDBRANCH  36  39
ENDBRANCH  33  36
ENDBRANCH   8  30
TORSDOF 12
ENDMDL