MODEL 1
REMARK VINA RESULT: -8.355932288      0.000      0.000
REMARK  12 active torsions:
REMARK  status: ('A' for Active; 'I' for Inactive)
REMARK    1  A    between atoms: C2_2  and  C3_3
REMARK    2  A    between atoms: C3_3  and  C4_4
REMARK    3  A    between atoms: C4_4  and  N1_5
REMARK       I    between atoms: N1_5  and  C5_7
REMARK    4  A    between atoms: C5_7  and  C6_9
REMARK    5  A    between atoms: C6_9  and  N2_10
REMARK    6  A    between atoms: N3_13  and  C9_14
REMARK    7  A    between atoms: C11_19  and  N5_20
REMARK    8  A    between atoms: C12_22  and  C13_23
REMARK    9  A    between atoms: C13_23  and  C14_24
REMARK   10  A    between atoms: C20_33  and  N7_34
REMARK   11  A    between atoms: C21_36  and  C22_37
REMARK   12  A    between atoms: C22_37  and  C23_38
ROOT
HETATM    1  C9  UNL     1      20.605  30.050  14.095  1.00  0.00     0.115 A
HETATM    2  C10 UNL     1      20.057  28.850  13.704  1.00  0.00     0.149 A
HETATM    3 CL1  UNL     1      18.341  28.508  14.063  1.00  0.00    -0.061 Cl
HETATM    4  N4  UNL     1      20.796  27.943  13.059  1.00  0.00    -0.178 N
ATOM      5  H4  UNL     1      20.366  27.061  12.778  1.00  0.00     0.185 HD
HETATM    6  C11 UNL     1      22.092  28.161  12.769  1.00  0.00     0.684 A
HETATM    7  N6  UNL     1      22.620  29.352  13.163  1.00  0.00    -0.174 N
ATOM      8  H6  UNL     1      23.601  29.532  12.951  1.00  0.00     0.186 HD
HETATM    9  C20 UNL     1      21.922  30.321  13.824  1.00  0.00     0.150 A
ENDROOT
BRANCH   1  10
HETATM   10  N3  UNL     1      19.725  30.968  14.791  1.00  0.00    -0.372 N
HETATM   11  C8  UNL     1      18.971  31.861  13.937  1.00  0.00     0.143 C
HETATM   12  C7  UNL     1      17.913  32.623  14.661  1.00  0.00     0.142 C
HETATM   13  N2  UNL     1      18.079  32.682  16.067  1.00  0.00    -0.382 N
HETATM   14  C25 UNL     1      18.386  31.461  16.719  1.00  0.00     0.142 C
HETATM   15  C24 UNL     1      19.698  30.926  16.213  1.00  0.00     0.143 C
BRANCH  13  16
HETATM   16  C6  UNL     1      17.311  33.618  16.779  1.00  0.00     0.160 C
BRANCH  16  17
HETATM   17  C5  UNL     1      18.034  34.739  17.403  1.00  0.00     0.256 C
HETATM   18  N1  UNL     1      18.778  34.564  18.584  1.00  0.00    -0.356 N
ATOM     19  H1  UNL     1      18.804  33.630  18.994  1.00  0.00     0.162 HD
HETATM   20  O1  UNL     1      17.989  35.872  16.878  1.00  0.00    -0.267 OA
BRANCH  18  21
HETATM   21  C4  UNL     1      19.505  35.607  19.257  1.00  0.00     0.123 C
BRANCH  21  22
HETATM   22  C3  UNL     1      20.934  35.687  18.826  1.00  0.00     0.019 C
BRANCH  22  23
HETATM   23  C2  UNL     1      21.235  36.977  18.085  1.00  0.00    -0.003 C
HETATM   24  C1  UNL     1      22.721  37.225  17.992  1.00  0.00     0.005 C
ENDBRANCH  22  23
ENDBRANCH  21  22
ENDBRANCH  18  21
ENDBRANCH  16  17
ENDBRANCH  13  16
ENDBRANCH   1  10
BRANCH   9  25
HETATM   25  N7  UNL     1      22.452  31.381  14.146  1.00  0.00    -0.353 N
HETATM   26  C21 UNL     1      22.720  32.691  14.001  1.00  0.00     0.065 C
ATOM     27  H7  UNL     1      22.978  31.130  14.983  1.00  0.00     0.166 HD
BRANCH  26  28
HETATM   28  C22 UNL     1      23.603  33.308  15.099  1.00  0.00     0.080 C
BRANCH  28  29
HETATM   29  C23 UNL     1      22.737  33.928  16.174  1.00  0.00     0.183 C
HETATM   30 CL3  UNL     1      22.614  32.741  17.494  1.00  0.00    -0.108 Cl
HETATM   31 CL4  UNL     1      21.112  34.297  15.606  1.00  0.00    -0.108 Cl
ENDBRANCH  28  29
ENDBRANCH  26  28
ENDBRANCH   9  25
BRANCH   6  32
HETATM   32  N5  UNL     1      22.790  27.335  12.170  1.00  0.00    -0.205 N
HETATM   33  C12 UNL     1      22.929  26.191  11.473  1.00  0.00     0.083 C
ATOM     34  H5  UNL     1      23.737  27.708  12.236  1.00  0.00     0.183 HD
BRANCH  33  35
HETATM   35  C13 UNL     1      21.672  25.374  11.290  1.00  0.00     0.083 C
BRANCH  35  36
HETATM   36  C14 UNL     1      21.185  25.418   9.891  1.00  0.00    -0.053 A
HETATM   37  C15 UNL     1      21.912  25.066   8.806  1.00  0.00     0.009 A
HETATM   38  C16 UNL     1      21.454  25.110   7.514  1.00  0.00     0.024 A
HETATM   39  C17 UNL     1      20.156  25.546   7.308  1.00  0.00     0.034 A
HETATM   40 CL2  UNL     1      19.503  25.630   5.690  1.00  0.00    -0.084 Cl
HETATM   41  C18 UNL     1      19.375  25.916   8.379  1.00  0.00     0.024 A
HETATM   42  C19 UNL     1      19.888  25.853   9.676  1.00  0.00     0.009 A
ENDBRANCH  35  36
ENDBRANCH  33  35
ENDBRANCH   6  32
TORSDOF 12
ENDMDL