MODEL 2
REMARK VINA RESULT: -9.162492501      0.320      1.580
REMARK  13 active torsions:
REMARK  status: ('A' for Active; 'I' for Inactive)
REMARK    1  A    between atoms: C1_2  and  C2_4
REMARK    2  A    between atoms: C2_4  and  C3_5
REMARK    3  A    between atoms: C3_5  and  N2_6
REMARK    4  A    between atoms: C3_5  and  C19_36
REMARK    5  A    between atoms: N2_6  and  C4_8
REMARK    6  A    between atoms: C4_8  and  C5_9
REMARK    7  A    between atoms: C5_9  and  C6_10
REMARK    8  A    between atoms: C6_10  and  C7_11
REMARK    9  A    between atoms: C7_11  and  C8_12
REMARK   10  A    between atoms: C8_12  and  N3_13
REMARK   11  A    between atoms: C10_18  and  O2_19
REMARK   12  A    between atoms: C10_18  and  N6_21
REMARK   13  A    between atoms: N7_24  and  C13_25
ROOT
HETATM    1  C4  UNL     1      21.527  29.284  14.131  1.00  0.00     0.057 C
HETATM    2  C10 UNL     1      20.517  29.619  15.097  1.00  0.00     0.161 C
ENDROOT
BRANCH   1   3
HETATM    3  N2  UNL     1      21.335  28.127  13.364  1.00  0.00    -0.381 N
ATOM      4  H2  UNL     1      21.065  27.292  13.885  1.00  0.00     0.160 HD
BRANCH   3   5
HETATM    5  C3  UNL     1      21.462  27.965  11.993  1.00  0.00     0.123 C
BRANCH   5   6
HETATM    6  C2  UNL     1      22.210  26.704  11.637  1.00  0.00     0.129 C
BRANCH   6   7
HETATM    7  C1  UNL     1      23.667  26.759  11.798  1.00  0.00     0.233 C
HETATM    8  N1  UNL     1      24.376  25.561  11.429  1.00  0.00    -0.062 NA
HETATM    9  O1  UNL     1      24.259  27.754  12.218  1.00  0.00    -0.277 OA
ENDBRANCH   6   7
ENDBRANCH   5   6
BRANCH   5  10
HETATM   10  C19 UNL     1      20.097  27.785  11.356  1.00  0.00    -0.032 A
HETATM   11  C20 UNL     1      19.078  28.629  11.679  1.00  0.00     0.033 A
HETATM   12  C21 UNL     1      17.826  28.518  11.090  1.00  0.00     0.036 A
HETATM   13 CL2  UNL     1      16.546  29.604  11.528  1.00  0.00    -0.084 Cl
HETATM   14  C22 UNL     1      17.612  27.536  10.162  1.00  0.00     0.047 A
HETATM   15  C23 UNL     1      18.635  26.660   9.815  1.00  0.00     0.036 A
HETATM   16 CL3  UNL     1      18.318  25.427   8.621  1.00  0.00    -0.084 Cl
HETATM   17  C24 UNL     1      19.900  26.801  10.435  1.00  0.00     0.033 A
ENDBRANCH   5  10
ENDBRANCH   3   5
ENDBRANCH   1   3
BRANCH   1  18
HETATM   18  C5  UNL     1      22.354  30.258  13.401  1.00  0.00     0.061 C
BRANCH  18  19
HETATM   19  C6  UNL     1      22.337  31.682  13.799  1.00  0.00     0.008 C
BRANCH  19  20
HETATM   20  C7  UNL     1      23.276  31.917  14.973  1.00  0.00     0.020 C
BRANCH  20  21
HETATM   21  C8  UNL     1      23.484  33.374  15.291  1.00  0.00     0.122 C
BRANCH  21  22
HETATM   22  N3  UNL     1      22.851  33.662  16.538  1.00  0.00    -0.367 N
HETATM   23  C9  UNL     1      21.898  34.443  16.748  1.00  0.00     0.196 C
HETATM   24  N4  UNL     1      21.271  35.201  15.698  1.00  0.00    -0.067 NA
HETATM   25  N5  UNL     1      21.378  34.644  18.073  1.00  0.00    -0.067 NA
ATOM     26  H3  UNL     1      23.219  33.172  17.354  1.00  0.00     0.161 HD
ENDBRANCH  21  22
ENDBRANCH  20  21
ENDBRANCH  19  20
ENDBRANCH  18  19
ENDBRANCH   1  18
BRANCH   2  27
HETATM   27  O2  UNL     1      20.295  28.635  15.986  1.00  0.00    -0.345 OA
ATOM     28  H2  UNL     1      19.673  27.988  15.675  1.00  0.00     0.219 HD
ENDBRANCH   2  27
BRANCH   2  29
HETATM   29  N6  UNL     1      19.683  30.704  15.358  1.00  0.00    -0.357 N
HETATM   30  C11 UNL     1      18.775  31.347  14.483  1.00  0.00     0.145 C
HETATM   31  C12 UNL     1      18.793  32.865  14.632  1.00  0.00     0.161 C
HETATM   32  N7  UNL     1      18.398  33.208  15.993  1.00  0.00    -0.214 N
HETATM   33  C17 UNL     1      18.612  32.215  17.002  1.00  0.00     0.161 C
HETATM   34  C18 UNL     1      19.761  31.320  16.706  1.00  0.00     0.145 C
BRANCH  32  35
HETATM   35  C13 UNL     1      17.832  34.457  16.293  1.00  0.00     0.680 A
HETATM   36  N8  UNL     1      18.431  35.221  17.248  1.00  0.00    -0.200 N
HETATM   37  C14 UNL     1      17.919  36.422  17.567  1.00  0.00     0.131 A
ATOM     38  H8  UNL     1      19.268  34.882  17.721  1.00  0.00     0.183 HD
HETATM   39  C15 UNL     1      16.792  36.871  16.924  1.00  0.00     0.065 A
HETATM   40 CL1  UNL     1      16.107  38.441  17.328  1.00  0.00    -0.081 Cl
HETATM   41  C16 UNL     1      16.202  36.059  15.947  1.00  0.00     0.131 A
HETATM   42  N9  UNL     1      16.736  34.872  15.654  1.00  0.00    -0.200 N
ATOM     43  H9  UNL     1      16.306  34.281  14.942  1.00  0.00     0.183 HD
ENDBRANCH  32  35
ENDBRANCH   2  29
TORSDOF 13
ENDMDL