MODEL 3
REMARK VINA RESULT: -8.548187721      1.174      2.057
REMARK  14 active torsions:
REMARK  status: ('A' for Active; 'I' for Inactive)
REMARK    1  A    between atoms: O1_2  and  C2_3
REMARK       I    between atoms: N1_5  and  C4_6
REMARK    2  A    between atoms: C4_6  and  C5_8
REMARK    3  A    between atoms: C5_8  and  C6_9
REMARK    4  A    between atoms: C6_9  and  C7_10
REMARK    5  A    between atoms: C6_9  and  N2_14
REMARK    6  A    between atoms: C7_10  and  C8_11
REMARK    7  A    between atoms: N2_14  and  C9_16
REMARK    8  A    between atoms: C9_16  and  C10_17
REMARK    9  A    between atoms: C9_16  and  C23_32
REMARK   10  A    between atoms: C10_17  and  C11_18
REMARK   11  A    between atoms: C10_17  and  N3_25
REMARK   12  A    between atoms: C11_18  and  C12_19
REMARK   13  A    between atoms: C25_37  and  O6_38
REMARK   14  A    between atoms: C27_40  and  O7_41
ROOT
HETATM    1  N2  UNL     1      20.041  29.613  14.794  1.00  0.00    -0.403 N
ATOM      2  H2  UNL     1      20.442  28.858  15.350  1.00  0.00     0.154 HD
ENDROOT
BRANCH   1   3
HETATM    3  C6  UNL     1      20.411  30.934  15.077  1.00  0.00     0.096 C
BRANCH   3   4
HETATM    4  C5  UNL     1      20.489  31.315  16.525  1.00  0.00     0.128 C
BRANCH   4   5
HETATM    5  C4  UNL     1      20.720  32.751  16.673  1.00  0.00     0.221 C
HETATM    6  N1  UNL     1      19.677  33.697  16.648  1.00  0.00    -0.347 N
HETATM    7  C3  UNL     1      19.953  35.141  16.763  1.00  0.00     0.160 C
HETATM    8  C24 UNL     1      18.270  33.377  16.518  1.00  0.00     0.160 C
HETATM    9  C2  UNL     1      19.284  35.765  17.958  1.00  0.00     0.170 C
HETATM   10  C27 UNL     1      18.196  34.867  18.482  1.00  0.00     0.179 C
HETATM   11  C25 UNL     1      17.386  34.309  17.343  1.00  0.00     0.170 C
HETATM   12  O2  UNL     1      21.895  33.228  16.833  1.00  0.00    -0.273 OA
BRANCH   9  13
HETATM   13  O1  UNL     1      18.704  36.981  17.619  1.00  0.00    -0.386 OA
HETATM   14  C1  UNL     1      19.529  38.076  17.849  1.00  0.00     0.202 C
ENDBRANCH   9  13
BRANCH  10  15
HETATM   15  O7  UNL     1      17.383  35.524  19.406  1.00  0.00    -0.390 OA
ATOM     16  H7  UNL     1      17.862  35.761  20.192  1.00  0.00     0.210 HD
ENDBRANCH  10  15
BRANCH  11  17
HETATM   17  O6  UNL     1      16.807  35.284  16.565  1.00  0.00    -0.386 OA
HETATM   18  C26 UNL     1      15.566  34.869  16.090  1.00  0.00     0.202 C
ENDBRANCH  11  17
ENDBRANCH   4   5
ENDBRANCH   3   4
BRANCH   3  19
HETATM   19  C7  UNL     1      21.869  31.067  14.577  1.00  0.00     0.138 C
BRANCH  19  20
HETATM   20  C8  UNL     1      22.007  31.974  13.428  1.00  0.00     0.174 C
HETATM   21  O3  UNL     1      21.784  31.595  12.279  1.00  0.00    -0.648 OA
HETATM   22  O4  UNL     1      22.398  33.284  13.650  1.00  0.00    -0.648 OA
ENDBRANCH  19  20
ENDBRANCH   3  19
ENDBRANCH   1   3
BRANCH   1  23
HETATM   23  C9  UNL     1      19.132  29.296  13.763  1.00  0.00     0.208 C
BRANCH  23  24
HETATM   24  C10 UNL     1      19.849  28.495  12.714  1.00  0.00     0.118 C
BRANCH  24  25
HETATM   25  C11 UNL     1      21.171  27.933  13.040  1.00  0.00     0.032 C
BRANCH  25  26
HETATM   26  C12 UNL     1      22.104  27.839  11.814  1.00  0.00    -0.013 C
HETATM   27  C13 UNL     1      22.349  26.391  11.583  1.00  0.00     0.005 C
HETATM   28  C14 UNL     1      23.607  25.981  10.935  1.00  0.00     0.000 C
HETATM   29  C15 UNL     1      24.709  26.975  10.845  1.00  0.00     0.000 C
HETATM   30  C16 UNL     1      24.275  28.403  10.879  1.00  0.00     0.000 C
HETATM   31  C17 UNL     1      23.403  28.542  12.122  1.00  0.00     0.005 C
ENDBRANCH  25  26
ENDBRANCH  24  25
BRANCH  24  32
HETATM   32  N3  UNL     1      19.031  27.517  12.044  1.00  0.00    -0.345 N
HETATM   33  C18 UNL     1      18.207  26.430  12.607  1.00  0.00     0.127 C
HETATM   34  C19 UNL     1      18.300  25.302  11.644  1.00  0.00     0.033 C
HETATM   35  C20 UNL     1      18.710  25.897  10.344  1.00  0.00     0.075 C
HETATM   36  C21 UNL     1      17.599  25.736   9.330  1.00  0.00     0.020 C
HETATM   37  C22 UNL     1      18.824  27.358  10.638  1.00  0.00     0.224 C
HETATM   38  O5  UNL     1      18.738  28.234   9.743  1.00  0.00    -0.273 OA
ENDBRANCH  24  32
ENDBRANCH  23  24
BRANCH  23  39
HETATM   39  C23 UNL     1      18.375  30.493  13.346  1.00  0.00     0.409 C
HETATM   40  F1  UNL     1      19.055  31.353  12.481  1.00  0.00    -0.169 F
HETATM   41  F2  UNL     1      17.664  31.164  14.286  1.00  0.00    -0.169 F
HETATM   42  F3  UNL     1      17.352  30.014  12.482  1.00  0.00    -0.169 F
ENDBRANCH  23  39
ENDBRANCH   1  23
TORSDOF 14
ENDMDL