MODEL 3
REMARK VINA RESULT: -9.326888815      1.185      1.648
REMARK  14 active torsions:
REMARK  status: ('A' for Active; 'I' for Inactive)
REMARK    1  A    between atoms: C2_2  and  C4_4
REMARK       I    between atoms: C4_4  and  N1_6
REMARK       I    between atoms: N1_6  and  C5_8
REMARK    2  A    between atoms: C5_8  and  C6_10
REMARK       I    between atoms: C6_10  and  N2_12
REMARK    3  A    between atoms: N2_12  and  C7_14
REMARK    4  A    between atoms: C7_14  and  C8_15
REMARK    5  A    between atoms: C7_14  and  C26_42
REMARK       I    between atoms: C8_15  and  N3_17
REMARK    6  A    between atoms: N3_17  and  C9_19
REMARK    7  A    between atoms: C9_19  and  C10_20
REMARK    8  A    between atoms: C9_19  and  C13_23
REMARK    9  A    between atoms: C13_23  and  C14_24
REMARK   10  A    between atoms: C13_23  and  N4_32
REMARK   11  A    between atoms: C14_24  and  O6_26
REMARK   12  A    between atoms: O6_26  and  C15_27
REMARK   13  A    between atoms: C15_27  and  C16_28
REMARK   14  A    between atoms: C22_35  and  C23_36
ROOT
HETATM    1  C9  UNL     1      20.009  30.492  13.857  1.00  0.00     0.120 C
ENDROOT
BRANCH   1   2
HETATM    2  N3  UNL     1      19.688  29.468  12.926  1.00  0.00    -0.352 N
HETATM    3  C8  UNL     1      18.845  28.384  12.849  1.00  0.00     0.241 C
HETATM    4  O4  UNL     1      18.109  28.021  13.769  1.00  0.00    -0.271 OA
ATOM      5  H3  UNL     1      20.238  29.566  12.072  1.00  0.00     0.163 HD
BRANCH   3   6
HETATM    6  C7  UNL     1      18.692  27.483  11.652  1.00  0.00     0.180 C
BRANCH   6   7
HETATM    7  N2  UNL     1      19.947  27.089  11.108  1.00  0.00    -0.339 N
HETATM    8  C6  UNL     1      20.428  25.769  11.101  1.00  0.00     0.310 C
HETATM    9  O3  UNL     1      19.767  24.832  11.608  1.00  0.00    -0.262 OA
ATOM     10  H2  UNL     1      20.537  27.813  10.697  1.00  0.00     0.163 HD
BRANCH   8  11
HETATM   11  C5  UNL     1      21.710  25.461  10.492  1.00  0.00     0.316 C
HETATM   12  N1  UNL     1      21.874  25.375   9.075  1.00  0.00    -0.289 N
HETATM   13  C4  UNL     1      23.141  25.146   8.481  1.00  0.00     0.228 C
ATOM     14  H1  UNL     1      21.057  25.481   8.474  1.00  0.00     0.172 HD
HETATM   15  O1  UNL     1      24.137  25.012   9.222  1.00  0.00    -0.273 OA
HETATM   16  O2  UNL     1      22.724  25.261  11.211  1.00  0.00    -0.262 OA
BRANCH  13  17
HETATM   17  C2  UNL     1      23.308  25.060   7.016  1.00  0.00     0.070 C
HETATM   18  C1  UNL     1      21.903  24.981   6.419  1.00  0.00     0.019 C
HETATM   19  C3  UNL     1      24.139  23.851   6.682  1.00  0.00     0.019 C
ENDBRANCH  13  17
ENDBRANCH   8  11
ENDBRANCH   6   7
BRANCH   6  20
HETATM   20  C26 UNL     1      17.720  27.855  10.621  1.00  0.00     0.009 C
HETATM   21  C27 UNL     1      18.233  27.739   9.183  1.00  0.00     0.012 C
HETATM   22  C28 UNL     1      16.872  29.053  10.847  1.00  0.00     0.012 C
ENDBRANCH   6  20
ENDBRANCH   3   6
ENDBRANCH   1   2
BRANCH   1  23
HETATM   23  C10 UNL     1      21.484  30.533  14.087  1.00  0.00     0.003 C
HETATM   24  C11 UNL     1      22.130  31.697  13.319  1.00  0.00     0.011 C
HETATM   25  C12 UNL     1      22.163  29.231  13.674  1.00  0.00     0.011 C
ENDBRANCH   1  23
BRANCH   1  26
HETATM   26  C13 UNL     1      19.154  30.620  15.089  1.00  0.00     0.210 C
BRANCH  26  27
HETATM   27  C14 UNL     1      19.931  31.004  16.307  1.00  0.00     0.284 C
HETATM   28  O5  UNL     1      20.107  30.267  17.309  1.00  0.00    -0.263 OA
BRANCH  27  29
HETATM   29  O6  UNL     1      20.555  32.262  16.433  1.00  0.00    -0.319 OA
BRANCH  29  30
HETATM   30  C15 UNL     1      21.770  32.376  17.132  1.00  0.00     0.183 C
BRANCH  30  31
HETATM   31  C16 UNL     1      22.387  33.734  16.866  1.00  0.00     0.010 C
HETATM   32  C17 UNL     1      21.663  34.576  15.845  1.00  0.00     0.007 C
HETATM   33  C18 UNL     1      21.057  35.424  16.948  1.00  0.00     0.001 C
HETATM   34  C19 UNL     1      22.011  34.767  17.924  1.00  0.00     0.007 C
ENDBRANCH  30  31
ENDBRANCH  29  30
ENDBRANCH  27  29
ENDBRANCH  26  27
BRANCH  26  35
HETATM   35  N4  UNL     1      18.226  31.728  14.996  1.00  0.00    -0.358 N
HETATM   36  C20 UNL     1      17.492  31.869  16.180  1.00  0.00     0.065 C
HETATM   37  C21 UNL     1      16.481  33.000  16.132  1.00  0.00     0.058 C
HETATM   38  C22 UNL     1      17.213  34.303  15.876  1.00  0.00     0.103 C
HETATM   39  C24 UNL     1      18.191  34.204  14.765  1.00  0.00     0.058 C
HETATM   40  C25 UNL     1      18.525  32.839  14.257  1.00  0.00     0.065 C
BRANCH  38  41
HETATM   41  C23 UNL     1      16.175  35.375  15.596  1.00  0.00     0.392 C
HETATM   42  F1  UNL     1      14.938  34.783  15.791  1.00  0.00    -0.171 F
HETATM   43  F2  UNL     1      16.338  36.496  16.353  1.00  0.00    -0.171 F
HETATM   44  F3  UNL     1      16.297  35.714  14.263  1.00  0.00    -0.171 F
ENDBRANCH  38  41
ENDBRANCH  26  35
ENDBRANCH   1  26
TORSDOF 14
ENDMDL