MODEL 5
REMARK VINA RESULT: -6.703599580      2.068      2.601
REMARK  15 active torsions:
REMARK  status: ('A' for Active; 'I' for Inactive)
REMARK    1  A    between atoms: C2_2  and  N1_3
REMARK    2  A    between atoms: N1_3  and  C3_4
REMARK    3  A    between atoms: N1_3  and  S1_35
REMARK    4  A    between atoms: C3_4  and  C4_5
REMARK    5  A    between atoms: C8_9  and  C10_11
REMARK       I    between atoms: N2_13  and  C12_14
REMARK    6  A    between atoms: C12_14  and  C13_16
REMARK    7  A    between atoms: C13_16  and  C14_17
REMARK    8  A    between atoms: C13_16  and  N6_26
REMARK    9  A    between atoms: C14_17  and  C15_18
REMARK   10  A    between atoms: C15_18  and  C16_19
REMARK   11  A    between atoms: C16_19  and  C17_20
REMARK   12  A    between atoms: C17_20  and  N3_21
REMARK       I    between atoms: N6_26  and  C19_28
REMARK   13  A    between atoms: C19_28  and  O3_30
REMARK   14  A    between atoms: O3_30  and  C20_31
REMARK   15  A    between atoms: S1_35  and  C24_38
ROOT
HETATM    1  C4  UNL     1      19.118  34.610  16.371  1.00  0.00     0.107 C
HETATM    2  C5  UNL     1      18.926  36.100  16.527  1.00  0.00     0.033 C
HETATM    3  C6  UNL     1      17.685  36.112  17.388  1.00  0.00     0.011 C
HETATM    4  C7  UNL     1      17.065  37.480  17.449  1.00  0.00     0.012 C
HETATM    5  C8  UNL     1      16.841  35.033  16.834  1.00  0.00     0.035 C
HETATM    6  C9  UNL     1      15.972  35.487  15.679  1.00  0.00     0.039 C
HETATM    7  N2  UNL     1      17.777  34.073  16.282  1.00  0.00    -0.335 N
HETATM    8  C12 UNL     1      17.438  32.824  15.717  1.00  0.00     0.243 C
HETATM    9  O1  UNL     1      16.195  32.509  15.697  1.00  0.00    -0.271 OA
ENDROOT
BRANCH   8  10
HETATM   10  C13 UNL     1      18.409  31.848  15.141  1.00  0.00     0.179 C
BRANCH  10  11
HETATM   11  C14 UNL     1      18.665  30.776  16.221  1.00  0.00     0.035 C
BRANCH  11  12
HETATM   12  C15 UNL     1      20.118  30.431  16.319  1.00  0.00     0.004 C
BRANCH  12  13
HETATM   13  C16 UNL     1      20.360  29.199  15.495  1.00  0.00     0.020 C
BRANCH  13  14
HETATM   14  C17 UNL     1      21.542  29.397  14.566  1.00  0.00     0.122 C
BRANCH  14  15
HETATM   15  N3  UNL     1      21.616  28.224  13.726  1.00  0.00    -0.367 N
HETATM   16  C18 UNL     1      22.412  28.085  12.745  1.00  0.00     0.196 C
HETATM   17  N4  UNL     1      22.386  26.879  11.996  1.00  0.00    -0.067 NA
HETATM   18  N5  UNL     1      23.326  29.109  12.382  1.00  0.00    -0.067 NA
ATOM     19  H3  UNL     1      20.983  27.451  13.936  1.00  0.00     0.161 HD
ENDBRANCH  14  15
ENDBRANCH  13  14
ENDBRANCH  12  13
ENDBRANCH  11  12
ENDBRANCH  10  11
BRANCH  10  20
HETATM   20  N6  UNL     1      17.733  31.068  14.080  1.00  0.00    -0.324 N
HETATM   21  C19 UNL     1      18.365  30.783  12.846  1.00  0.00     0.362 C
HETATM   22  O2  UNL     1      19.517  31.156  12.557  1.00  0.00    -0.238 OA
ATOM     23  H6  UNL     1      16.785  30.727  14.244  1.00  0.00     0.165 HD
BRANCH  21  24
HETATM   24  O3  UNL     1      17.667  30.053  11.916  1.00  0.00    -0.294 OA
BRANCH  24  25
HETATM   25  C20 UNL     1      17.933  28.682  11.647  1.00  0.00     0.061 C
HETATM   26  C21 UNL     1      16.860  28.223  10.673  1.00  0.00     0.046 C
HETATM   27  C22 UNL     1      17.750  27.845  12.905  1.00  0.00     0.046 C
HETATM   28  C23 UNL     1      19.278  28.459  11.038  1.00  0.00     0.046 C
ENDBRANCH  24  25
ENDBRANCH  21  24
ENDBRANCH  10  20
ENDBRANCH   8  10
BRANCH   1  29
HETATM   29  C3  UNL     1      19.919  34.055  17.506  1.00  0.00     0.160 C
BRANCH  29  30
HETATM   30  N1  UNL     1      21.297  33.841  17.229  1.00  0.00    -0.302 N
BRANCH  30  31
HETATM   31  C2  UNL     1      22.176  34.279  18.252  1.00  0.00     0.131 C
HETATM   32  C1  UNL     1      22.044  35.752  18.575  1.00  0.00     0.027 C
ENDBRANCH  30  31
BRANCH  30  33
HETATM   33  S1  UNL     1      21.841  33.785  15.657  1.00  0.00     0.331 S
HETATM   34  O4  UNL     1      22.269  35.174  15.152  1.00  0.00    -0.196 OA
HETATM   35  O5  UNL     1      20.838  33.334  14.621  1.00  0.00    -0.196 OA
BRANCH  33  36
HETATM   36  C24 UNL     1      23.307  32.799  15.491  1.00  0.00     0.517 C
HETATM   37  F1  UNL     1      23.429  32.327  14.179  1.00  0.00    -0.155 F
HETATM   38  F2  UNL     1      24.437  33.566  15.767  1.00  0.00    -0.155 F
HETATM   39  F3  UNL     1      23.324  31.721  16.337  1.00  0.00    -0.155 F
ENDBRANCH  33  36
ENDBRANCH  30  33
ENDBRANCH  29  30
ENDBRANCH   1  29
BRANCH   5  40
HETATM   40  C10 UNL     1      16.034  34.426  17.959  1.00  0.00     0.027 C
HETATM   41  C11 UNL     1      14.607  34.915  17.935  1.00  0.00     0.007 C
ENDBRANCH   5  40
TORSDOF 15
ENDMDL