MODEL 3
REMARK VINA RESULT: -8.623395170      5.093      8.582
REMARK  15 active torsions:
REMARK  status: ('A' for Active; 'I' for Inactive)
REMARK    1  A    between atoms: C5_7  and  C6_8
REMARK    2  A    between atoms: C7_12  and  C8_13
REMARK    3  A    between atoms: C9_16  and  N2_17
REMARK    4  A    between atoms: N2_17  and  C10_19
REMARK    5  A    between atoms: C10_19  and  C11_20
REMARK    6  A    between atoms: C11_20  and  C12_21
REMARK    7  A    between atoms: C12_21  and  N3_22
REMARK    8  A    between atoms: C17_30  and  N5_31
REMARK    9  A    between atoms: N5_31  and  C18_33
REMARK   10  A    between atoms: C18_33  and  C19_34
REMARK   11  A    between atoms: C19_34  and  C20_35
REMARK   12  A    between atoms: C20_35  and  C21_36
REMARK   13  A    between atoms: C21_36  and  C22_37
REMARK   14  A    between atoms: C22_37  and  C23_38
REMARK   15  A    between atoms: C23_38  and  C24_39
ROOT
HETATM    1  C8  UNL     1      19.093  27.345  10.518  1.00  0.00     0.150 A
HETATM    2  N1  UNL     1      18.316  28.274  11.176  1.00  0.00    -0.175 N
ATOM      3  H1  UNL     1      17.302  28.180  11.124  1.00  0.00     0.186 HD
HETATM    4  C9  UNL     1      18.818  29.282  11.873  1.00  0.00     0.694 A
HETATM    5  N4  UNL     1      20.145  29.449  11.971  1.00  0.00    -0.022 N
ATOM      6  H4  UNL     1      20.549  30.220  12.503  1.00  0.00     0.203 HD
HETATM    7  C17 UNL     1      20.911  28.559  11.343  1.00  0.00     0.694 A
HETATM    8  N6  UNL     1      20.385  27.520  10.628  1.00  0.00    -0.175 N
ATOM      9  H6  UNL     1      21.016  26.865  10.167  1.00  0.00     0.186 HD
ENDROOT
BRANCH   1  10
HETATM   10  C7  UNL     1      18.334  26.398   9.734  1.00  0.00     0.063 A
HETATM   11  C1  UNL     1      17.988  26.860   8.445  1.00  0.00     0.132 A
HETATM   12  F1  UNL     1      18.267  28.154   8.074  1.00  0.00    -0.205 F
HETATM   13  C2  UNL     1      17.373  26.088   7.513  1.00  0.00     0.067 A
HETATM   14  C3  UNL     1      17.067  24.799   7.814  1.00  0.00     0.037 A
HETATM   15 CL1  UNL     1      16.265  23.767   6.619  1.00  0.00    -0.084 Cl
HETATM   16  C4  UNL     1      17.391  24.333   9.046  1.00  0.00     0.041 A
HETATM   17  C5  UNL     1      18.034  25.116  10.044  1.00  0.00     0.066 A
BRANCH  17  18
HETATM   18  C6  UNL     1      18.278  24.428  11.317  1.00  0.00     0.418 C
HETATM   19  F2  UNL     1      18.188  25.169  12.454  1.00  0.00    -0.166 F
HETATM   20  F3  UNL     1      19.530  23.775  11.215  1.00  0.00    -0.166 F
HETATM   21  F4  UNL     1      17.368  23.382  11.470  1.00  0.00    -0.166 F
ENDBRANCH  17  18
ENDBRANCH   1  10
BRANCH   4  22
HETATM   22  N2  UNL     1      17.994  30.115  12.462  1.00  0.00    -0.225 N
ATOM     23  H2  UNL     1      17.236  30.515  11.909  1.00  0.00     0.177 HD
BRANCH  22  24
HETATM   24  C10 UNL     1      18.100  30.498  13.856  1.00  0.00     0.143 C
BRANCH  24  25
HETATM   25  C11 UNL     1      18.073  31.986  14.036  1.00  0.00     0.065 C
BRANCH  25  26
HETATM   26  C12 UNL     1      19.382  32.661  13.957  1.00  0.00     0.065 C
BRANCH  26  27
HETATM   27  N3  UNL     1      20.529  32.130  14.512  1.00  0.00    -0.370 N
HETATM   28  C13 UNL     1      20.695  31.856  15.866  1.00  0.00     0.089 C
HETATM   29  C14 UNL     1      22.006  32.299  16.470  1.00  0.00     0.212 C
HETATM   30  O1  UNL     1      23.082  32.089  15.620  1.00  0.00    -0.385 OA
HETATM   31  C15 UNL     1      22.753  31.322  14.515  1.00  0.00     0.188 C
HETATM   32  C16 UNL     1      21.709  32.031  13.697  1.00  0.00     0.153 C
ENDBRANCH  26  27
ENDBRANCH  25  26
ENDBRANCH  24  25
ENDBRANCH  22  24
ENDBRANCH   4  22
BRANCH   7  33
HETATM   33  N5  UNL     1      22.185  28.727  11.444  1.00  0.00    -0.226 N
ATOM     34  H5  UNL     1      22.638  29.332  10.759  1.00  0.00     0.177 HD
BRANCH  33  35
HETATM   35  C18 UNL     1      23.003  28.127  12.443  1.00  0.00     0.138 C
BRANCH  35  36
HETATM   36  C19 UNL     1      24.473  28.231  12.080  1.00  0.00     0.020 C
BRANCH  36  37
HETATM   37  C20 UNL     1      25.111  26.880  12.124  1.00  0.00     0.002 C
BRANCH  37  38
HETATM   38  C21 UNL     1      24.552  25.944  11.065  1.00  0.00     0.000 C
BRANCH  38  39
HETATM   39  C22 UNL     1      24.805  26.470   9.688  1.00  0.00     0.001 C
BRANCH  39  40
HETATM   40  C23 UNL     1      23.721  26.074   8.740  1.00  0.00     0.011 C
BRANCH  40  41
HETATM   41  C24 UNL     1      22.761  25.120   9.395  1.00  0.00     0.085 C
HETATM   42 BR1  UNL     1      21.341  24.679   8.144  1.00  0.00    -0.097 Br
ENDBRANCH  40  41
ENDBRANCH  39  40
ENDBRANCH  38  39
ENDBRANCH  37  38
ENDBRANCH  36  37
ENDBRANCH  35  36
ENDBRANCH  33  35
ENDBRANCH   7  33
TORSDOF 15
ENDMDL