MODEL 1
REMARK VINA RESULT: -8.639672475      0.000      0.000
REMARK  14 active torsions:
REMARK  status: ('A' for Active; 'I' for Inactive)
REMARK    1  A    between atoms: C7_9  and  N2_10
REMARK    2  A    between atoms: N2_10  and  C8_11
REMARK    3  A    between atoms: C8_11  and  C9_12
REMARK    4  A    between atoms: C9_12  and  N3_13
REMARK    5  A    between atoms: N3_13  and  C11_15
REMARK    6  A    between atoms: C11_15  and  C12_16
REMARK    7  A    between atoms: C12_16  and  N4_17
REMARK    8  A    between atoms: N4_17  and  C14_19
REMARK    9  A    between atoms: C14_19  and  C15_20
REMARK   10  A    between atoms: C15_20  and  C16_21
REMARK   11  A    between atoms: C16_21  and  N5_22
REMARK       I    between atoms: N5_22  and  C17_24
REMARK   12  A    between atoms: C17_24  and  C18_26
REMARK   13  A    between atoms: C18_26  and  C19_27
REMARK   14  A    between atoms: C23_35  and  C24_36
ROOT
HETATM    1  C1  UNL     1      15.140  34.678  18.382  1.00  0.00     0.068 C
HETATM    2  C2  UNL     1      16.328  34.298  17.565  1.00  0.00     0.010 A
HETATM    3  C3  UNL     1      17.603  34.728  17.776  1.00  0.00     0.056 A
HETATM    4  C4  UNL     1      18.448  34.171  16.832  1.00  0.00     0.065 A
HETATM    5  N1  UNL     1      19.776  34.320  16.661  1.00  0.00    -0.357 N
ATOM      6  H1  UNL     1      20.311  34.918  17.290  1.00  0.00     0.166 HD
HETATM    7  C5  UNL     1      20.390  33.678  15.661  1.00  0.00     0.020 A
HETATM    8  C6  UNL     1      19.664  32.872  14.818  1.00  0.00     0.008 A
HETATM    9  C7  UNL     1      18.276  32.691  14.967  1.00  0.00     0.143 A
HETATM   10  C20 UNL     1      17.648  33.376  16.022  1.00  0.00     0.103 A
HETATM   11  N6  UNL     1      16.395  33.477  16.490  1.00  0.00    -0.351 N
HETATM   12  C21 UNL     1      15.219  32.828  15.953  1.00  0.00     0.156 C
HETATM   13  C22 UNL     1      20.276  32.150  13.670  1.00  0.00     0.057 C
HETATM   14  C23 UNL     1      21.104  31.039  14.263  1.00  0.00     0.098 C
HETATM   15  C25 UNL     1      21.780  31.362  15.524  1.00  0.00     0.022 C
HETATM   16  C26 UNL     1      22.539  32.576  15.763  1.00  0.00    -0.042 C
HETATM   17  C27 UNL     1      23.893  32.665  15.079  1.00  0.00     0.015 C
HETATM   18  C28 UNL     1      22.887  32.554  17.275  1.00  0.00     0.015 C
HETATM   19  C29 UNL     1      21.878  33.908  15.591  1.00  0.00     0.066 C
ENDROOT
BRANCH   9  20
HETATM   20  N2  UNL     1      17.699  31.931  14.243  1.00  0.00    -0.417 NA
BRANCH  20  21
HETATM   21  C8  UNL     1      17.167  30.882  13.599  1.00  0.00     0.185 C
BRANCH  21  22
HETATM   22  C9  UNL     1      17.943  30.161  12.510  1.00  0.00     0.331 C
BRANCH  22  23
HETATM   23  N3  UNL     1      17.688  28.738  12.523  1.00  0.00     0.094 N
HETATM   24  C10 UNL     1      18.193  28.189  13.788  1.00  0.00     0.310 C
BRANCH  23  25
HETATM   25  C11 UNL     1      18.395  28.038  11.466  1.00  0.00     0.317 C
BRANCH  25  26
HETATM   26  C12 UNL     1      19.213  26.911  12.059  1.00  0.00     0.092 C
BRANCH  26  27
HETATM   27  N4  UNL     1      19.158  25.713  11.347  1.00  0.00    -0.376 N
HETATM   28  C13 UNL     1      17.928  25.206  10.897  1.00  0.00     0.154 C
BRANCH  27  29
HETATM   29  C14 UNL     1      20.317  24.989  11.039  1.00  0.00     0.064 C
BRANCH  29  30
HETATM   30  C15 UNL     1      20.486  24.630   9.575  1.00  0.00     0.064 C
BRANCH  30  31
HETATM   31  C16 UNL     1      21.788  25.109   8.990  1.00  0.00     0.128 C
BRANCH  31  32
HETATM   32  N5  UNL     1      22.294  26.279   9.697  1.00  0.00    -0.361 N
HETATM   33  C17 UNL     1      23.651  26.673   9.613  1.00  0.00     0.226 C
HETATM   34  O1  UNL     1      24.421  25.964   8.892  1.00  0.00    -0.273 OA
ATOM     35  H5  UNL     1      21.653  26.830  10.267  1.00  0.00     0.162 HD
BRANCH  33  36
HETATM   36  C18 UNL     1      24.189  27.853  10.320  1.00  0.00     0.220 C
BRANCH  36  37
HETATM   37  C19 UNL     1      24.548  27.553  11.746  1.00  0.00     0.396 C
HETATM   38  F1  UNL     1      25.382  26.445  11.810  1.00  0.00    -0.171 F
HETATM   39  F2  UNL     1      23.432  27.300  12.520  1.00  0.00    -0.171 F
HETATM   40  F3  UNL     1      25.285  28.609  12.281  1.00  0.00    -0.171 F
ENDBRANCH  36  37
ENDBRANCH  33  36
ENDBRANCH  31  32
ENDBRANCH  30  31
ENDBRANCH  29  30
ENDBRANCH  27  29
ENDBRANCH  26  27
ENDBRANCH  25  26
ENDBRANCH  23  25
ENDBRANCH  22  23
ENDBRANCH  21  22
ENDBRANCH  20  21
ENDBRANCH   9  20
BRANCH  14  41
HETATM   41  C24 UNL     1      21.925  30.391  13.180  1.00  0.00     0.391 C
HETATM   42  F4  UNL     1      23.213  30.119  13.592  1.00  0.00    -0.171 F
HETATM   43  F5  UNL     1      21.869  31.027  11.967  1.00  0.00    -0.171 F
HETATM   44  F6  UNL     1      21.339  29.132  12.956  1.00  0.00    -0.171 F
ENDBRANCH  14  41
TORSDOF 14
ENDMDL