MODEL 1
REMARK VINA RESULT: -9.467698230      0.000      0.000
REMARK  13 active torsions:
REMARK  status: ('A' for Active; 'I' for Inactive)
REMARK    1  A    between atoms: C2_2  and  N1_3
REMARK    2  A    between atoms: N2_9  and  C8_10
REMARK    3  A    between atoms: C8_10  and  C9_11
REMARK    4  A    between atoms: C9_11  and  C10_12
REMARK    5  A    between atoms: C10_12  and  C11_13
REMARK    6  A    between atoms: C11_13  and  O1_14
REMARK    7  A    between atoms: O1_14  and  C12_15
REMARK    8  A    between atoms: C12_15  and  C13_17
REMARK    9  A    between atoms: C15_19  and  C16_20
REMARK   10  A    between atoms: C18_25  and  C19_26
REMARK   11  A    between atoms: C23_33  and  C24_34
REMARK   12  A    between atoms: C24_34  and  N3_35
REMARK       I    between atoms: N3_35  and  C25_37
REMARK   13  A    between atoms: C25_37  and  C26_39
ROOT
HETATM    1  C1  UNL     1      20.062  29.116  14.584  1.00  0.00     0.041 C
HETATM    2  C2  UNL     1      20.291  30.600  14.527  1.00  0.00     0.062 C
HETATM    3  C7  UNL     1      20.859  30.992  15.870  1.00  0.00     0.303 C
HETATM    4  N2  UNL     1      21.638  32.231  15.759  1.00  0.00     0.090 N
HETATM    5  C21 UNL     1      22.916  31.927  15.166  1.00  0.00     0.273 C
HETATM    6  C22 UNL     1      22.677  30.765  14.173  1.00  0.00     0.042 C
HETATM    7  C23 UNL     1      21.382  30.981  13.499  1.00  0.00     0.055 C
ENDROOT
BRANCH   4   8
HETATM    8  C8  UNL     1      21.894  32.667  17.135  1.00  0.00     0.272 C
BRANCH   8   9
HETATM    9  C9  UNL     1      22.091  34.157  17.171  1.00  0.00     0.032 C
BRANCH   9  10
HETATM   10  C10 UNL     1      20.836  34.862  16.745  1.00  0.00     0.028 C
BRANCH  10  11
HETATM   11  C11 UNL     1      20.901  36.310  17.065  1.00  0.00     0.179 C
BRANCH  11  12
HETATM   12  O1  UNL     1      20.605  36.635  18.405  1.00  0.00    -0.318 OA
BRANCH  12  13
HETATM   13  C12 UNL     1      19.525  36.127  19.064  1.00  0.00     0.293 C
HETATM   14  O2  UNL     1      19.696  35.391  20.061  1.00  0.00    -0.259 OA
BRANCH  13  15
HETATM   15  C13 UNL     1      18.167  36.447  18.596  1.00  0.00     0.041 A
HETATM   16  C14 UNL     1      17.254  35.491  18.228  1.00  0.00     0.033 A
HETATM   17  C15 UNL     1      15.993  35.807  17.790  1.00  0.00     0.049 A
HETATM   18  C17 UNL     1      15.645  37.150  17.725  1.00  0.00     0.032 A
HETATM   19  C18 UNL     1      16.510  38.149  18.079  1.00  0.00     0.049 A
HETATM   20  C20 UNL     1      17.765  37.763  18.512  1.00  0.00     0.033 A
BRANCH  17  21
HETATM   21  C16 UNL     1      15.012  34.773  17.408  1.00  0.00     0.417 C
HETATM   22  F1  UNL     1      14.994  34.698  16.027  1.00  0.00    -0.166 F
HETATM   23  F2  UNL     1      13.731  35.203  17.784  1.00  0.00    -0.166 F
HETATM   24  F3  UNL     1      15.332  33.578  17.998  1.00  0.00    -0.166 F
ENDBRANCH  17  21
BRANCH  19  25
HETATM   25  C19 UNL     1      16.188  39.579  18.015  1.00  0.00     0.417 C
HETATM   26  F4  UNL     1      16.210  39.971  16.699  1.00  0.00    -0.166 F
HETATM   27  F5  UNL     1      14.871  39.762  18.444  1.00  0.00    -0.166 F
HETATM   28  F6  UNL     1      17.083  40.305  18.769  1.00  0.00    -0.166 F
ENDBRANCH  19  25
ENDBRANCH  13  15
ENDBRANCH  12  13
ENDBRANCH  11  12
ENDBRANCH  10  11
ENDBRANCH   9  10
ENDBRANCH   8   9
ENDBRANCH   4   8
BRANCH   2  29
HETATM   29  N1  UNL     1      19.077  31.259  14.383  1.00  0.00    -0.382 N
HETATM   30  C3  UNL     1      17.980  31.000  15.200  1.00  0.00     0.059 C
HETATM   31  C4  UNL     1      17.171  32.275  15.212  1.00  0.00     0.046 C
HETATM   32  C5  UNL     1      18.121  33.325  14.737  1.00  0.00     0.025 C
HETATM   33  C6  UNL     1      18.982  32.512  13.751  1.00  0.00     0.123 C
ENDBRANCH   2  29
BRANCH   7  34
HETATM   34  C24 UNL     1      21.178  30.298  12.234  1.00  0.00     0.071 C
BRANCH  34  35
HETATM   35  N3  UNL     1      22.226  29.635  11.588  1.00  0.00    -0.340 N
HETATM   36  C25 UNL     1      22.442  28.396  10.999  1.00  0.00     0.227 C
HETATM   37  O3  UNL     1      21.603  27.493  10.886  1.00  0.00    -0.273 OA
ATOM     38  H3  UNL     1      23.059  30.221  11.535  1.00  0.00     0.167 HD
BRANCH  36  39
HETATM   39  C26 UNL     1      23.843  28.153  10.448  1.00  0.00     0.105 C
HETATM   40  C27 UNL     1      24.850  28.202  11.564  1.00  0.00     0.043 C
HETATM   41  C28 UNL     1      24.996  26.775  12.032  1.00  0.00     0.233 C
HETATM   42  N4  UNL     1      23.944  26.031  11.348  1.00  0.00    -0.074 N
HETATM   43  C29 UNL     1      23.853  26.691  10.039  1.00  0.00     0.246 C
ATOM     44  H42 UNL     1      24.100  25.023  11.302  1.00  0.00     0.277 HD
ATOM     45  H41 UNL     1      23.063  25.980  11.857  1.00  0.00     0.277 HD
ENDBRANCH  36  39
ENDBRANCH  34  35
ENDBRANCH   7  34
TORSDOF 13
ENDMDL