MODEL 4
REMARK VINA RESULT: -9.509798811      1.513      2.028
REMARK  13 active torsions:
REMARK  status: ('A' for Active; 'I' for Inactive)
REMARK    1  A    between atoms: C3_4  and  N2_5
REMARK    2  A    between atoms: N2_5  and  C4_7
REMARK    3  A    between atoms: C5_8  and  C6_9
REMARK    4  A    between atoms: C6_9  and  C7_10
REMARK    5  A    between atoms: N6_20  and  C10_21
REMARK    6  A    between atoms: C10_21  and  C11_22
REMARK    7  A    between atoms: C11_22  and  C12_23
REMARK    8  A    between atoms: C12_23  and  C13_24
REMARK    9  A    between atoms: C13_24  and  C14_25
REMARK   10  A    between atoms: C14_25  and  N7_26
REMARK   11  A    between atoms: C18_30  and  C19_31
REMARK   12  A    between atoms: C21_33  and  C22_34
REMARK   13  A    between atoms: C24_39  and  C25_40
ROOT
HETATM    1  C12 UNL     1      15.779  32.725  16.485  1.00  0.00     0.007 C
ENDROOT
BRANCH   1   2
HETATM    2  C11 UNL     1      15.854  34.104  15.901  1.00  0.00     0.022 C
BRANCH   2   3
HETATM    3  C10 UNL     1      15.098  35.170  16.599  1.00  0.00     0.146 C
BRANCH   3   4
HETATM    4  N6  UNL     1      15.830  36.101  17.403  1.00  0.00    -0.279 N
HETATM    5  N1  UNL     1      16.208  37.440  17.137  1.00  0.00    -0.228 NA
HETATM    6  C1  UNL     1      15.557  38.378  18.076  1.00  0.00     0.136 C
HETATM    7  C2  UNL     1      17.597  37.414  17.623  1.00  0.00     0.148 C
HETATM    8  C3  UNL     1      17.382  36.762  19.025  1.00  0.00     0.190 C
HETATM    9  C9  UNL     1      16.356  35.781  18.709  1.00  0.00     0.258 C
HETATM   10  O1  UNL     1      15.951  34.824  19.376  1.00  0.00    -0.270 OA
BRANCH   8  11
HETATM   11  N2  UNL     1      18.632  36.300  19.401  1.00  0.00    -0.385 N
ATOM     12  H2  UNL     1      18.632  35.513  20.051  1.00  0.00     0.159 HD
BRANCH  11  13
HETATM   13  C4  UNL     1      19.856  36.747  19.028  1.00  0.00     0.080 C
HETATM   14  C5  UNL     1      20.970  36.068  18.402  1.00  0.00    -0.003 C
BRANCH  14  15
HETATM   15  C6  UNL     1      21.065  35.382  17.130  1.00  0.00     0.106 C
BRANCH  15  16
HETATM   16  C7  UNL     1      21.733  34.089  17.007  1.00  0.00     0.100 A
HETATM   17  N3  UNL     1      22.509  33.563  16.071  1.00  0.00    -0.340 N
HETATM   18  C8  UNL     1      22.895  32.325  16.407  1.00  0.00     0.198 A
ATOM     19  H3  UNL     1      22.777  34.037  15.209  1.00  0.00     0.168 HD
HETATM   20  N4  UNL     1      22.343  32.059  17.599  1.00  0.00    -0.295 N
HETATM   21  N5  UNL     1      21.653  33.106  17.959  1.00  0.00    -0.288 N
ATOM     22  H4  UNL     1      22.445  31.194  18.129  1.00  0.00     0.187 HD
ATOM     23  H5  UNL     1      21.125  33.182  18.829  1.00  0.00     0.188 HD
ENDBRANCH  15  16
ENDBRANCH  14  15
ENDBRANCH  11  13
ENDBRANCH   8  11
ENDBRANCH   3   4
ENDBRANCH   2   3
ENDBRANCH   1   2
BRANCH   1  24
HETATM   24  C13 UNL     1      16.804  31.826  15.773  1.00  0.00     0.044 C
BRANCH  24  25
HETATM   25  C14 UNL     1      18.117  31.830  16.474  1.00  0.00     0.063 C
BRANCH  25  26
HETATM   26  N7  UNL     1      19.245  31.626  15.668  1.00  0.00    -0.373 N
HETATM   27  C15 UNL     1      19.838  30.347  15.711  1.00  0.00     0.131 C
HETATM   28  C16 UNL     1      20.080  29.657  14.406  1.00  0.00     0.055 C
HETATM   29  C17 UNL     1      19.947  30.455  13.185  1.00  0.00    -0.073 C
HETATM   30  C18 UNL     1      20.446  30.034  12.054  1.00  0.00     0.014 C
HETATM   31  C27 UNL     1      19.194  31.754  13.239  1.00  0.00     0.079 C
HETATM   32  C28 UNL     1      19.485  32.449  14.561  1.00  0.00     0.067 C
BRANCH  30  33
HETATM   33  C19 UNL     1      21.142  28.805  11.855  1.00  0.00    -0.034 A
HETATM   34  C20 UNL     1      22.538  28.702  11.884  1.00  0.00     0.027 A
HETATM   35  C21 UNL     1      23.202  27.525  11.676  1.00  0.00     0.049 A
HETATM   36  C23 UNL     1      22.486  26.382  11.427  1.00  0.00     0.032 A
HETATM   37  C24 UNL     1      21.088  26.422  11.387  1.00  0.00     0.049 A
HETATM   38  C26 UNL     1      20.465  27.626  11.600  1.00  0.00     0.027 A
BRANCH  35  39
HETATM   39  C22 UNL     1      24.687  27.413  11.704  1.00  0.00     0.417 C
HETATM   40  F1  UNL     1      25.216  28.609  12.209  1.00  0.00    -0.166 F
HETATM   41  F2  UNL     1      25.044  26.420  12.586  1.00  0.00    -0.166 F
HETATM   42  F3  UNL     1      25.229  27.174  10.450  1.00  0.00    -0.166 F
ENDBRANCH  35  39
BRANCH  37  43
HETATM   43  C25 UNL     1      20.303  25.191  11.128  1.00  0.00     0.417 C
HETATM   44  F4  UNL     1      20.666  24.202  12.020  1.00  0.00    -0.166 F
HETATM   45  F5  UNL     1      20.579  24.793   9.836  1.00  0.00    -0.166 F
HETATM   46  F6  UNL     1      18.953  25.449  11.177  1.00  0.00    -0.166 F
ENDBRANCH  37  43
ENDBRANCH  30  33
ENDBRANCH  25  26
ENDBRANCH  24  25
ENDBRANCH   1  24
TORSDOF 13
ENDMDL