MODEL 1
REMARK VINA RESULT: -9.298415012      0.000      0.000
REMARK  16 active torsions:
REMARK  status: ('A' for Active; 'I' for Inactive)
REMARK    1  A    between atoms: C1_2  and  C2_3
REMARK       I    between atoms: C1_2  and  N2_17
REMARK    2  A    between atoms: C2_3  and  C3_4
REMARK    3  A    between atoms: C3_4  and  C4_5
REMARK    4  A    between atoms: C4_5  and  C5_6
REMARK    5  A    between atoms: C5_6  and  N1_7
REMARK    6  A    between atoms: N2_17  and  C13_19
REMARK    7  A    between atoms: C13_19  and  C14_20
REMARK    8  A    between atoms: C14_20  and  C15_21
REMARK    9  A    between atoms: C15_21  and  C16_22
REMARK   10  A    between atoms: C16_22  and  C17_23
REMARK   11  A    between atoms: C20_26  and  C21_27
REMARK   12  A    between atoms: C21_27  and  O4_28
REMARK   13  A    between atoms: C21_27  and  C22_30
REMARK   14  A    between atoms: C21_27  and  C23_34
REMARK   15  A    between atoms: C24_38  and  C25_39
REMARK   16  A    between atoms: C26_40  and  C27_41
ROOT
HETATM    1  C17 UNL     1      21.490  31.918  13.642  1.00  0.00    -0.057 A
HETATM    2  C18 UNL     1      20.133  31.843  13.546  1.00  0.00     0.008 A
HETATM    3  C19 UNL     1      19.451  30.696  13.178  1.00  0.00     0.013 A
HETATM    4  C20 UNL     1      20.141  29.555  12.889  1.00  0.00     0.013 A
HETATM    5  C24 UNL     1      21.550  29.571  12.966  1.00  0.00     0.028 A
HETATM    6  C30 UNL     1      22.174  30.739  13.339  1.00  0.00     0.028 A
ENDROOT
BRANCH   1   7
HETATM    7  C16 UNL     1      22.232  33.141  14.024  1.00  0.00     0.038 C
BRANCH   7   8
HETATM    8  C15 UNL     1      23.344  32.851  14.992  1.00  0.00     0.006 C
BRANCH   8   9
HETATM    9  C14 UNL     1      23.004  33.208  16.398  1.00  0.00     0.020 C
BRANCH   9  10
HETATM   10  C13 UNL     1      22.233  32.085  17.055  1.00  0.00     0.122 C
BRANCH  10  11
HETATM   11  N2  UNL     1      20.833  32.440  17.185  1.00  0.00    -0.361 N
HETATM   12  C1  UNL     1      19.854  31.454  16.933  1.00  0.00     0.217 C
HETATM   13  O1  UNL     1      20.200  30.306  16.604  1.00  0.00    -0.274 OA
ATOM     14  H2  UNL     1      20.561  33.385  17.454  1.00  0.00     0.162 HD
BRANCH  12  15
HETATM   15  C2  UNL     1      18.440  31.829  17.072  1.00  0.00     0.103 C
BRANCH  15  16
HETATM   16  C3  UNL     1      17.511  31.286  16.054  1.00  0.00     0.011 C
BRANCH  16  17
HETATM   17  C4  UNL     1      16.580  32.268  15.411  1.00  0.00     0.020 C
BRANCH  17  18
HETATM   18  C5  UNL     1      15.569  32.804  16.438  1.00  0.00     0.117 C
BRANCH  18  19
HETATM   19  N1  UNL     1      15.516  34.216  16.432  1.00  0.00    -0.412 N
HETATM   20  C6  UNL     1      14.860  34.875  17.492  1.00  0.00     0.122 C
HETATM   21  C7  UNL     1      15.749  34.973  18.703  1.00  0.00     0.088 C
HETATM   22  C8  UNL     1      17.118  35.463  18.437  1.00  0.00     0.167 C
HETATM   23  C9  UNL     1      17.594  35.420  17.037  1.00  0.00     0.088 C
HETATM   24  O2  UNL     1      17.336  36.724  19.038  1.00  0.00    -0.353 OA
HETATM   25  O3  UNL     1      18.000  34.674  19.215  1.00  0.00    -0.353 OA
HETATM   26  C10 UNL     1      16.663  34.924  16.003  1.00  0.00     0.122 C
HETATM   27  C11 UNL     1      18.717  36.855  19.135  1.00  0.00     0.197 C
HETATM   28  C12 UNL     1      19.169  35.422  19.314  1.00  0.00     0.197 C
ENDBRANCH  18  19
ENDBRANCH  17  18
ENDBRANCH  16  17
ENDBRANCH  15  16
ENDBRANCH  12  15
ENDBRANCH  10  11
ENDBRANCH   9  10
ENDBRANCH   8   9
ENDBRANCH   7   8
ENDBRANCH   1   7
BRANCH   5  29
HETATM   29  C25 UNL     1      22.369  28.459  12.557  1.00  0.00    -0.066 C
HETATM   30  C26 UNL     1      23.105  27.530  12.230  1.00  0.00    -0.096 C
BRANCH  30  31
HETATM   31  C27 UNL     1      23.999  26.444  11.835  1.00  0.00     0.065 A
HETATM   32  C28 UNL     1      25.455  26.845  11.716  1.00  0.00     0.018 A
HETATM   33  C29 UNL     1      24.666  26.496  10.512  1.00  0.00     0.018 A
ENDBRANCH  30  31
ENDBRANCH   5  29
BRANCH   4  34
HETATM   34  C21 UNL     1      19.523  28.269  12.589  1.00  0.00     0.283 C
BRANCH  34  35
HETATM   35  O4  UNL     1      20.471  27.222  12.507  1.00  0.00    -0.370 OA
ATOM     36  H4  UNL     1      20.423  26.632  13.249  1.00  0.00     0.211 HD
ENDBRANCH  34  35
BRANCH  34  37
HETATM   37  C22 UNL     1      18.319  27.910  13.371  1.00  0.00     0.431 C
HETATM   38  F1  UNL     1      17.242  28.754  13.097  1.00  0.00    -0.167 F
HETATM   39  F2  UNL     1      18.631  28.125  14.747  1.00  0.00    -0.167 F
HETATM   40  F3  UNL     1      17.848  26.643  13.345  1.00  0.00    -0.167 F
ENDBRANCH  34  37
BRANCH  34  41
HETATM   41  C23 UNL     1      19.085  28.325  11.076  1.00  0.00     0.431 C
HETATM   42  F4  UNL     1      20.227  28.284  10.348  1.00  0.00    -0.167 F
HETATM   43  F5  UNL     1      18.497  27.041  10.905  1.00  0.00    -0.167 F
HETATM   44  F6  UNL     1      18.224  29.283  10.776  1.00  0.00    -0.167 F
ENDBRANCH  34  41
ENDBRANCH   4  34
TORSDOF 16
ENDMDL