MODEL 4
REMARK VINA RESULT: -9.114446196      4.343      7.052
REMARK  12 active torsions:
REMARK  status: ('A' for Active; 'I' for Inactive)
REMARK    1  A    between atoms: C1_2  and  C2_3
REMARK       I    between atoms: C1_2  and  N3_12
REMARK    2  A    between atoms: C2_3  and  C3_4
REMARK    3  A    between atoms: N3_12  and  C6_14
REMARK    4  A    between atoms: C6_14  and  C7_15
REMARK    5  A    between atoms: C7_15  and  C8_16
REMARK    6  A    between atoms: C8_16  and  C9_17
REMARK    7  A    between atoms: C9_17  and  C10_18
REMARK    8  A    between atoms: C10_18  and  C11_19
REMARK    9  A    between atoms: C11_19  and  C12_20
REMARK   10  A    between atoms: N4_23  and  C14_24
REMARK   11  A    between atoms: C16_28  and  C17_29
REMARK   12  A    between atoms: C21_37  and  C22_38
REMARK       I    between atoms: C22_38  and  N6_40
ROOT
HETATM    1  C12 UNL     1      20.395  31.847  15.015  1.00  0.00     0.093 C
HETATM    2  C13 UNL     1      19.758  33.223  15.347  1.00  0.00     0.230 C
HETATM    3  O2  UNL     1      20.157  34.331  14.879  1.00  0.00    -0.273 OA
HETATM    4  N4  UNL     1      18.701  32.952  16.235  1.00  0.00    -0.301 N
HETATM    5  C20 UNL     1      18.666  31.506  16.506  1.00  0.00     0.148 C
HETATM    6  C21 UNL     1      19.179  31.041  15.149  1.00  0.00     0.109 C
ENDROOT
BRANCH   1   7
HETATM    7  C11 UNL     1      21.542  31.791  15.943  1.00  0.00     0.015 C
BRANCH   7   8
HETATM    8  C10 UNL     1      22.869  31.411  15.430  1.00  0.00     0.001 C
BRANCH   8   9
HETATM    9  C9  UNL     1      22.970  31.095  13.959  1.00  0.00     0.000 C
BRANCH   9  10
HETATM   10  C8  UNL     1      22.696  29.675  13.670  1.00  0.00     0.002 C
BRANCH  10  11
HETATM   11  C7  UNL     1      21.954  29.454  12.350  1.00  0.00     0.020 C
BRANCH  11  12
HETATM   12  C6  UNL     1      22.782  28.682  11.382  1.00  0.00     0.122 C
BRANCH  12  13
HETATM   13  N3  UNL     1      21.954  27.746  10.650  1.00  0.00    -0.361 N
HETATM   14  C1  UNL     1      22.075  26.334  10.894  1.00  0.00     0.223 C
HETATM   15  O1  UNL     1      22.877  25.950  11.776  1.00  0.00    -0.273 OA
ATOM     16  H3  UNL     1      21.284  28.088   9.960  1.00  0.00     0.162 HD
BRANCH  14  17
HETATM   17  C2  UNL     1      21.281  25.380  10.126  1.00  0.00     0.163 C
BRANCH  17  18
HETATM   18  C3  UNL     1      20.288  24.672  10.941  1.00  0.00     0.057 A
HETATM   19  N1  UNL     1      20.579  24.043  12.100  1.00  0.00    -0.303 N
HETATM   20  N2  UNL     1      19.459  23.571  12.570  1.00  0.00    -0.310 N
ATOM     21  H1  UNL     1      21.501  23.955  12.527  1.00  0.00     0.186 HD
HETATM   22  C4  UNL     1      18.411  23.844  11.781  1.00  0.00     0.133 A
ATOM     23  H2  UNL     1      19.389  23.050  13.445  1.00  0.00     0.186 HD
HETATM   24  C5  UNL     1      18.943  24.558  10.716  1.00  0.00     0.075 A
HETATM   25 CL1  UNL     1      18.033  25.183   9.359  1.00  0.00    -0.081 Cl
ENDBRANCH  17  18
ENDBRANCH  14  17
ENDBRANCH  12  13
ENDBRANCH  11  12
ENDBRANCH  10  11
ENDBRANCH   9  10
ENDBRANCH   8   9
ENDBRANCH   7   8
ENDBRANCH   1   7
BRANCH   6  26
HETATM   26  C22 UNL     1      19.075  29.651  14.841  1.00  0.00     0.226 C
HETATM   27  O3  UNL     1      19.624  28.745  15.504  1.00  0.00    -0.273 OA
HETATM   28  N6  UNL     1      18.322  29.192  13.729  1.00  0.00    -0.352 N
HETATM   29  C23 UNL     1      17.616  30.002  12.764  1.00  0.00     0.126 C
HETATM   30  C26 UNL     1      18.123  27.800  13.281  1.00  0.00     0.126 C
HETATM   31  C24 UNL     1      17.612  29.206  11.470  1.00  0.00     0.021 C
HETATM   32  C25 UNL     1      18.471  27.992  11.795  1.00  0.00     0.021 C
ENDBRANCH   6  26
BRANCH   4  33
HETATM   33  C14 UNL     1      17.824  33.921  16.752  1.00  0.00     0.132 A
HETATM   34  N5  UNL     1      18.331  34.952  17.460  1.00  0.00    -0.350 N
HETATM   35  C15 UNL     1      17.486  35.932  17.920  1.00  0.00     0.106 A
ATOM     36  H5  UNL     1      19.331  35.004  17.651  1.00  0.00     0.166 HD
HETATM   37  C16 UNL     1      16.123  35.879  17.670  1.00  0.00     0.065 A
HETATM   38  C18 UNL     1      15.585  34.839  16.950  1.00  0.00     0.045 A
HETATM   39  C19 UNL     1      16.467  33.857  16.494  1.00  0.00     0.079 A
HETATM   40 CL2  UNL     1      15.808  32.549  15.568  1.00  0.00    -0.080 Cl
BRANCH  37  41
HETATM   41  C17 UNL     1      15.303  37.006  18.179  1.00  0.00     0.418 C
HETATM   42  F1  UNL     1      15.542  38.150  17.489  1.00  0.00    -0.166 F
HETATM   43  F2  UNL     1      15.698  37.206  19.516  1.00  0.00    -0.166 F
HETATM   44  F3  UNL     1      13.978  36.610  18.185  1.00  0.00    -0.166 F
ENDBRANCH  37  41
ENDBRANCH   4  33
TORSDOF 12
ENDMDL