MODEL 1
REMARK VINA RESULT: -8.296373971      0.000      0.000
REMARK  13 active torsions:
REMARK  status: ('A' for Active; 'I' for Inactive)
REMARK    1  A    between atoms: C2_2  and  C3_3
REMARK    2  A    between atoms: C3_3  and  C4_4
REMARK    3  A    between atoms: C4_4  and  N1_5
REMARK       I    between atoms: N1_5  and  C5_7
REMARK       I    between atoms: C5_7  and  N2_9
REMARK    4  A    between atoms: C7_11  and  C8_12
REMARK    5  A    between atoms: N3_14  and  C10_15
REMARK    6  A    between atoms: C13_20  and  C14_21
REMARK       I    between atoms: C14_21  and  N5_23
REMARK    7  A    between atoms: N5_23  and  C15_25
REMARK    8  A    between atoms: C15_25  and  C16_26
REMARK    9  A    between atoms: C16_26  and  N6_27
REMARK   10  A    between atoms: C21_32  and  C22_33
REMARK   11  A    between atoms: C22_33  and  C23_34
REMARK   12  A    between atoms: C23_34  and  C24_35
REMARK   13  A    between atoms: C26_41  and  C27_42
ROOT
HETATM    1  C10 UNL     1      20.189  28.093  11.956  1.00  0.00     0.121 A
HETATM    2  N4  UNL     1      19.126  28.073  11.078  1.00  0.00    -0.344 N
ATOM      3  H4  UNL     1      18.380  28.750  11.238  1.00  0.00     0.167 HD
HETATM    4  C11 UNL     1      18.986  27.266  10.060  1.00  0.00     0.023 A
HETATM    5  C12 UNL     1      17.801  27.293   9.150  1.00  0.00     0.069 C
HETATM    6  C13 UNL     1      19.996  26.311   9.804  1.00  0.00     0.060 A
HETATM    7  C19 UNL     1      21.067  26.310  10.661  1.00  0.00    -0.034 A
HETATM    8  C20 UNL     1      22.193  25.367  10.445  1.00  0.00     0.050 C
HETATM    9  C21 UNL     1      21.192  27.202  11.760  1.00  0.00    -0.006 A
ENDROOT
BRANCH   1  10
HETATM   10  N3  UNL     1      20.095  29.023  13.022  1.00  0.00    -0.271 N
HETATM   11  C7  UNL     1      19.336  28.881  14.223  1.00  0.00     0.017 C
HETATM   12  C6  UNL     1      20.135  29.419  15.389  1.00  0.00     0.181 C
HETATM   13  N2  UNL     1      20.153  30.887  15.152  1.00  0.00    -0.307 N
HETATM   14  C5  UNL     1      19.490  31.696  16.094  1.00  0.00     0.319 C
HETATM   15  C26 UNL     1      20.836  31.303  13.979  1.00  0.00     0.289 C
HETATM   16  N1  UNL     1      19.364  33.082  15.950  1.00  0.00    -0.343 N
HETATM   17  O1  UNL     1      19.000  31.118  17.092  1.00  0.00    -0.247 OA
ATOM     18  H1  UNL     1      19.765  33.468  15.095  1.00  0.00     0.164 HD
HETATM   19  C25 UNL     1      20.744  30.302  12.874  1.00  0.00     0.261 C
HETATM   20  O3  UNL     1      21.264  30.621  11.775  1.00  0.00    -0.270 OA
BRANCH  11  21
HETATM   21  C8  UNL     1      18.569  27.652  14.473  1.00  0.00     0.050 C
HETATM   22  C9  UNL     1      17.235  27.498  13.840  1.00  0.00     0.011 C
ENDBRANCH  11  21
BRANCH  16  23
HETATM   23  C4  UNL     1      18.763  34.032  16.818  1.00  0.00     0.124 C
BRANCH  23  24
HETATM   24  C3  UNL     1      17.363  34.433  16.659  1.00  0.00     0.019 C
BRANCH  24  25
HETATM   25  C2  UNL     1      16.499  33.796  15.628  1.00  0.00    -0.003 C
HETATM   26  C1  UNL     1      15.737  32.599  16.265  1.00  0.00     0.005 C
ENDBRANCH  24  25
ENDBRANCH  23  24
ENDBRANCH  16  23
BRANCH  15  27
HETATM   27  C27 UNL     1      22.258  31.662  14.245  1.00  0.00     0.416 C
HETATM   28  F4  UNL     1      22.508  32.879  13.606  1.00  0.00    -0.168 F
HETATM   29  F5  UNL     1      22.568  31.898  15.571  1.00  0.00    -0.168 F
HETATM   30  F6  UNL     1      23.095  30.684  13.806  1.00  0.00    -0.168 F
ENDBRANCH  15  27
ENDBRANCH   1  10
BRANCH   9  31
HETATM   31  C22 UNL     1      22.433  27.068  12.554  1.00  0.00     0.052 C
BRANCH  31  32
HETATM   32  C23 UNL     1      23.504  28.044  12.219  1.00  0.00     0.122 C
BRANCH  32  33
HETATM   33  C24 UNL     1      24.822  27.323  11.903  1.00  0.00     0.388 C
HETATM   34  F1  UNL     1      25.111  27.414  10.567  1.00  0.00    -0.171 F
HETATM   35  F2  UNL     1      24.727  25.994  12.258  1.00  0.00    -0.171 F
HETATM   36  F3  UNL     1      25.835  27.873  12.660  1.00  0.00    -0.171 F
ENDBRANCH  32  33
ENDBRANCH  31  32
ENDBRANCH   9  31
BRANCH   6  37
HETATM   37  C14 UNL     1      19.828  25.465   8.640  1.00  0.00     0.254 C
HETATM   38  O2  UNL     1      19.267  24.336   8.826  1.00  0.00    -0.268 OA
HETATM   39  N5  UNL     1      20.218  25.750   7.338  1.00  0.00    -0.352 N
ATOM     40  H5  UNL     1      20.682  26.640   7.156  1.00  0.00     0.163 HD
BRANCH  39  41
HETATM   41  C15 UNL     1      19.998  24.840   6.219  1.00  0.00     0.167 C
BRANCH  41  42
HETATM   42  C16 UNL     1      21.205  24.158   5.705  1.00  0.00     0.076 C
BRANCH  42  43
HETATM   43  N6  UNL     1      22.395  24.274   6.449  1.00  0.00    -0.400 N
HETATM   44  C17 UNL     1      22.806  23.207   7.276  1.00  0.00     0.148 C
HETATM   45  C18 UNL     1      23.485  24.905   5.729  1.00  0.00     0.148 C
ENDBRANCH  42  43
ENDBRANCH  41  42
ENDBRANCH  39  41
ENDBRANCH   6  37
TORSDOF 13
ENDMDL