MODEL 4
REMARK VINA RESULT: -9.384384575      6.236     12.313
REMARK  13 active torsions:
REMARK  status: ('A' for Active; 'I' for Inactive)
REMARK    1  A    between atoms: C2_2  and  C3_3
REMARK    2  A    between atoms: C4_4  and  C5_5
REMARK       I    between atoms: C5_5  and  N1_7
REMARK    3  A    between atoms: N1_7  and  C6_9
REMARK    4  A    between atoms: C6_9  and  C7_10
REMARK    5  A    between atoms: C7_10  and  N2_11
REMARK    6  A    between atoms: C10_14  and  C11_15
REMARK    7  A    between atoms: C13_20  and  C14_21
REMARK    8  A    between atoms: N3_28  and  C18_29
REMARK       I    between atoms: N4_33  and  C22_34
REMARK    9  A    between atoms: C22_34  and  C23_36
REMARK   10  A    between atoms: C23_36  and  C24_37
REMARK   11  A    between atoms: C24_37  and  N5_38
REMARK   12  A    between atoms: N5_38  and  C25_41
REMARK   13  A    between atoms: C25_41  and  C26_42
ROOT
HETATM    1  C3  UNL     1      20.232  33.780  16.244  1.00  0.00     0.027 A
HETATM    2  C4  UNL     1      20.932  34.614  17.057  1.00  0.00     0.056 A
HETATM    3  C15 UNL     1      22.271  34.209  16.894  1.00  0.00     0.043 A
HETATM    4  C16 UNL     1      22.335  33.166  16.002  1.00  0.00     0.009 A
HETATM    5  C17 UNL     1      23.567  32.466  15.559  1.00  0.00     0.068 C
HETATM    6  N3  UNL     1      21.099  32.900  15.602  1.00  0.00    -0.347 N
ENDROOT
BRANCH   2   7
HETATM    7  C5  UNL     1      20.600  35.743  17.915  1.00  0.00     0.257 C
HETATM    8  O1  UNL     1      20.821  35.598  19.175  1.00  0.00    -0.267 OA
HETATM    9  N1  UNL     1      20.082  36.953  17.507  1.00  0.00    -0.332 N
ATOM     10  H1  UNL     1      19.924  37.018  16.502  1.00  0.00     0.168 HD
BRANCH   9  11
HETATM   11  C6  UNL     1      19.729  38.122  18.221  1.00  0.00     0.102 C
BRANCH  11  12
HETATM   12  C7  UNL     1      18.465  38.257  18.938  1.00  0.00     0.077 C
BRANCH  12  13
HETATM   13  N2  UNL     1      17.396  39.050  18.472  1.00  0.00    -0.279 NA
HETATM   14  C8  UNL     1      17.015  38.792  17.096  1.00  0.00     0.096 C
HETATM   15  C9  UNL     1      16.590  37.370  16.878  1.00  0.00     0.028 C
HETATM   16  C10 UNL     1      15.249  37.227  17.575  1.00  0.00     0.096 C
HETATM   17  C12 UNL     1      15.043  38.240  18.637  1.00  0.00     0.042 C
HETATM   18  C13 UNL     1      16.245  38.786  19.312  1.00  0.00     0.171 C
BRANCH  16  19
HETATM   19  C11 UNL     1      14.969  35.815  17.977  1.00  0.00     0.391 C
HETATM   20  F1  UNL     1      13.612  35.524  17.946  1.00  0.00    -0.171 F
HETATM   21  F2  UNL     1      15.546  34.933  17.061  1.00  0.00    -0.171 F
HETATM   22  F3  UNL     1      15.445  35.475  19.220  1.00  0.00    -0.171 F
ENDBRANCH  16  19
BRANCH  18  23
HETATM   23  C14 UNL     1      15.792  40.076  20.013  1.00  0.00     0.403 C
HETATM   24  F4  UNL     1      14.493  40.305  19.621  1.00  0.00    -0.169 F
HETATM   25  F5  UNL     1      15.768  39.788  21.379  1.00  0.00    -0.169 F
HETATM   26  F6  UNL     1      16.656  41.092  19.745  1.00  0.00    -0.169 F
ENDBRANCH  18  23
ENDBRANCH  12  13
ENDBRANCH  11  12
ENDBRANCH   9  11
ENDBRANCH   2   7
BRANCH   1  27
HETATM   27  C2  UNL     1      18.751  33.806  16.090  1.00  0.00     0.054 C
HETATM   28  C1  UNL     1      18.099  32.880  17.124  1.00  0.00     0.011 C
ENDBRANCH   1  27
BRANCH   6  29
HETATM   29  C18 UNL     1      20.611  31.928  14.691  1.00  0.00     0.108 C
HETATM   30  C19 UNL     1      20.824  32.418  13.273  1.00  0.00     0.029 C
HETATM   31  C20 UNL     1      19.969  31.718  12.271  1.00  0.00     0.022 C
HETATM   32  C21 UNL     1      19.394  30.468  12.908  1.00  0.00     0.126 C
HETATM   33  N4  UNL     1      20.480  29.841  13.615  1.00  0.00    -0.350 N
HETATM   34  C22 UNL     1      20.960  28.587  13.166  1.00  0.00     0.221 C
HETATM   35  C29 UNL     1      21.095  30.536  14.788  1.00  0.00     0.151 C
HETATM   36  O2  UNL     1      21.917  28.072  13.842  1.00  0.00    -0.273 OA
BRANCH  34  37
HETATM   37  C23 UNL     1      20.400  27.909  11.993  1.00  0.00     0.130 C
BRANCH  37  38
HETATM   38  C24 UNL     1      21.436  27.704  10.915  1.00  0.00     0.241 C
BRANCH  38  39
HETATM   39  N5  UNL     1      22.291  28.820  10.722  1.00  0.00    -0.074 N
ATOM     40  H52 UNL     1      21.907  29.457  10.024  1.00  0.00     0.277 HD
ATOM     41  H51 UNL     1      22.277  29.435  11.536  1.00  0.00     0.277 HD
BRANCH  39  42
HETATM   42  C25 UNL     1      23.630  28.445  10.390  1.00  0.00     0.237 C
BRANCH  42  43
HETATM   43  C26 UNL     1      24.189  27.223  11.021  1.00  0.00     0.011 A
HETATM   44  C27 UNL     1      25.051  27.330  12.243  1.00  0.00     0.007 A
HETATM   45  C28 UNL     1      25.655  26.917  10.950  1.00  0.00     0.007 A
ENDBRANCH  42  43
ENDBRANCH  39  42
ENDBRANCH  38  39
ENDBRANCH  37  38
ENDBRANCH  34  37
ENDBRANCH   6  29
TORSDOF 13
ENDMDL