MODEL 4
REMARK VINA RESULT: -8.281447074      1.081      1.977
REMARK  17 active torsions:
REMARK  status: ('A' for Active; 'I' for Inactive)
REMARK    1  A    between atoms: C2_2  and  C3_3
REMARK    2  A    between atoms: C3_3  and  N1_4
REMARK    3  A    between atoms: N1_4  and  C4_6
REMARK    4  A    between atoms: C5_9  and  N3_10
REMARK    5  A    between atoms: N4_13  and  C8_14
REMARK    6  A    between atoms: C8_14  and  O1_15
REMARK    7  A    between atoms: C8_14  and  C9_17
REMARK    8  A    between atoms: C9_17  and  C10_18
REMARK    9  A    between atoms: C18_29  and  C19_30
REMARK   10  A    between atoms: C20_34  and  N6_35
REMARK   11  A    between atoms: N6_35  and  C21_37
REMARK   12  A    between atoms: C21_37  and  C22_38
REMARK   13  A    between atoms: C22_38  and  C23_39
REMARK   14  A    between atoms: C23_39  and  C24_40
REMARK   15  A    between atoms: C24_40  and  C25_41
REMARK   16  A    between atoms: C25_41  and  C26_42
REMARK   17  A    between atoms: C26_42  and  C27_43
ROOT
HETATM    1  C4  UNL     1      18.714  31.376  16.286  1.00  0.00     0.681 A
HETATM    2  N2  UNL     1      19.289  30.695  15.278  1.00  0.00    -0.176 N
ATOM      3  H2  UNL     1      18.726  30.031  14.747  1.00  0.00     0.186 HD
HETATM    4  C5  UNL     1      20.604  30.865  14.945  1.00  0.00     0.138 A
HETATM    5  C18 UNL     1      21.391  31.739  15.633  1.00  0.00     0.136 A
HETATM    6  C20 UNL     1      20.804  32.451  16.684  1.00  0.00     0.136 A
HETATM    7  N7  UNL     1      19.524  32.242  16.954  1.00  0.00    -0.176 N
ATOM      8  H7  UNL     1      19.112  32.772  17.723  1.00  0.00     0.186 HD
ENDROOT
BRANCH   4   9
HETATM    9  N3  UNL     1      21.010  30.053  13.823  1.00  0.00    -0.363 N
HETATM   10  C6  UNL     1      21.271  28.653  14.096  1.00  0.00     0.144 C
HETATM   11  C7  UNL     1      22.435  28.213  13.152  1.00  0.00     0.144 C
HETATM   12  N4  UNL     1      21.922  28.529  11.860  1.00  0.00    -0.360 N
HETATM   13  C16 UNL     1      22.034  29.941  11.556  1.00  0.00     0.144 C
HETATM   14  C17 UNL     1      21.117  30.677  12.535  1.00  0.00     0.144 C
BRANCH  12  15
HETATM   15  C8  UNL     1      21.430  27.623  10.921  1.00  0.00     0.143 C
BRANCH  15  16
HETATM   16  O1  UNL     1      22.321  27.109  10.103  1.00  0.00    -0.347 OA
ATOM     17  H1  UNL     1      22.081  26.285   9.698  1.00  0.00     0.219 HD
ENDBRANCH  15  16
BRANCH  15  18
HETATM   18  C9  UNL     1      20.069  27.146  10.699  1.00  0.00     0.101 C
HETATM   19  C13 UNL     1      19.815  26.000  11.770  1.00  0.00     0.049 C
HETATM   20  C14 UNL     1      20.104  24.703  11.042  1.00  0.00     0.106 C
HETATM   21  C15 UNL     1      20.032  25.028   9.607  1.00  0.00     0.218 C
HETATM   22  O2  UNL     1      20.161  24.206   8.673  1.00  0.00    -0.274 OA
HETATM   23  N5  UNL     1      19.795  26.402   9.526  1.00  0.00    -0.344 N
ATOM     24  H5  UNL     1      19.447  26.842   8.675  1.00  0.00     0.163 HD
BRANCH  18  25
HETATM   25  C10 UNL     1      18.974  28.140  10.973  1.00  0.00     0.014 C
HETATM   26  C11 UNL     1      18.273  27.823  12.301  1.00  0.00     0.012 C
HETATM   27  C12 UNL     1      17.907  28.144   9.896  1.00  0.00     0.012 C
ENDBRANCH  18  25
ENDBRANCH  15  18
ENDBRANCH  12  15
ENDBRANCH   4   9
BRANCH   5  28
HETATM   28  C19 UNL     1      22.814  31.904  15.349  1.00  0.00     0.424 C
HETATM   29  F1  UNL     1      23.419  30.806  14.758  1.00  0.00    -0.166 F
HETATM   30  F2  UNL     1      22.834  32.849  14.253  1.00  0.00    -0.166 F
HETATM   31  F3  UNL     1      23.552  32.539  16.302  1.00  0.00    -0.166 F
ENDBRANCH   5  28
BRANCH   1  32
HETATM   32  N1  UNL     1      17.480  31.198  16.580  1.00  0.00    -0.226 N
ATOM     33  H1  UNL     1      17.221  30.272  16.922  1.00  0.00     0.177 HD
BRANCH  32  34
HETATM   34  C3  UNL     1      16.438  32.149  16.480  1.00  0.00     0.137 C
BRANCH  34  35
HETATM   35  C2  UNL     1      16.444  32.846  15.134  1.00  0.00     0.016 C
HETATM   36  C1  UNL     1      17.051  34.217  15.192  1.00  0.00     0.006 C
ENDBRANCH  34  35
ENDBRANCH  32  34
ENDBRANCH   1  32
BRANCH   6  37
HETATM   37  N6  UNL     1      21.521  33.281  17.395  1.00  0.00    -0.375 N
ATOM     38  H6  UNL     1      22.273  32.900  17.970  1.00  0.00     0.161 HD
BRANCH  37  39
HETATM   39  C21 UNL     1      21.307  34.691  17.411  1.00  0.00     0.121 C
BRANCH  39  40
HETATM   40  C22 UNL     1      20.395  35.246  18.426  1.00  0.00     0.020 C
BRANCH  40  41
HETATM   41  C23 UNL     1      19.089  35.759  17.946  1.00  0.00     0.002 C
BRANCH  41  42
HETATM   42  C24 UNL     1      18.001  35.103  18.760  1.00  0.00     0.000 C
BRANCH  42  43
HETATM   43  C25 UNL     1      16.863  36.019  19.028  1.00  0.00     0.009 C
BRANCH  43  44
HETATM   44  C26 UNL     1      15.537  35.392  18.801  1.00  0.00     0.117 C
BRANCH  44  45
HETATM   45  C27 UNL     1      14.844  36.024  17.578  1.00  0.00     0.387 C
HETATM   46  F4  UNL     1      15.750  36.846  16.971  1.00  0.00    -0.171 F
HETATM   47  F5  UNL     1      13.808  36.799  18.080  1.00  0.00    -0.171 F
HETATM   48  F6  UNL     1      14.366  35.098  16.708  1.00  0.00    -0.171 F
ENDBRANCH  44  45
ENDBRANCH  43  44
ENDBRANCH  42  43
ENDBRANCH  41  42
ENDBRANCH  40  41
ENDBRANCH  39  40
ENDBRANCH  37  39
ENDBRANCH   6  37
TORSDOF 17
ENDMDL