MODEL 4
REMARK VINA RESULT: -7.826518221      2.433      7.856
REMARK  19 active torsions:
REMARK  status: ('A' for Active; 'I' for Inactive)
REMARK    1  A    between atoms: C2_2  and  O1_3
REMARK    2  A    between atoms: O1_3  and  C3_4
REMARK    3  A    between atoms: C3_4  and  C4_6
REMARK    4  A    between atoms: C4_6  and  N1_7
REMARK    5  A    between atoms: C4_6  and  C24_42
REMARK       I    between atoms: N1_7  and  C5_9
REMARK    6  A    between atoms: C5_9  and  C6_11
REMARK    7  A    between atoms: C6_11  and  N2_12
REMARK    8  A    between atoms: N2_12  and  C7_14
REMARK    9  A    between atoms: C7_14  and  O4_15
REMARK   10  A    between atoms: C7_14  and  C8_17
REMARK   11  A    between atoms: C8_17  and  C9_18
REMARK   12  A    between atoms: C8_17  and  C17_32
REMARK   13  A    between atoms: C9_18  and  C10_19
REMARK   14  A    between atoms: C9_18  and  N3_23
REMARK   15  A    between atoms: C10_19  and  C11_20
REMARK   16  A    between atoms: N3_23  and  C15_25
REMARK   17  A    between atoms: C15_25  and  O5_26
REMARK   18  A    between atoms: C15_25  and  C16_28
REMARK   19  A    between atoms: C22_37  and  C23_38
ROOT
HETATM    1  N2  UNL     1      21.341  30.348  15.508  1.00  0.00    -0.355 N
ATOM      2  H2  UNL     1      21.782  30.093  16.393  1.00  0.00     0.162 HD
ENDROOT
BRANCH   1   3
HETATM    3  C6  UNL     1      21.024  31.741  15.377  1.00  0.00     0.125 A
HETATM    4  C21 UNL     1      21.160  32.592  14.217  1.00  0.00     0.058 A
HETATM    5  C22 UNL     1      22.125  32.746  15.416  1.00  0.00     0.134 A
BRANCH   3   6
HETATM    6  C5  UNL     1      19.934  32.196  16.382  1.00  0.00     0.247 C
HETATM    7  N1  UNL     1      19.659  33.558  16.528  1.00  0.00    -0.344 N
ATOM      8  H1  UNL     1      20.201  34.204  15.953  1.00  0.00     0.163 HD
HETATM    9  O3  UNL     1      19.332  31.327  17.056  1.00  0.00    -0.271 OA
BRANCH   7  10
HETATM   10  C4  UNL     1      18.692  34.126  17.405  1.00  0.00     0.191 C
BRANCH  10  11
HETATM   11  C3  UNL     1      17.382  34.412  16.777  1.00  0.00     0.282 C
HETATM   12  O2  UNL     1      17.317  34.654  15.518  1.00  0.00    -0.263 OA
BRANCH  11  13
HETATM   13  O1  UNL     1      16.195  34.448  17.458  1.00  0.00    -0.320 OA
BRANCH  13  14
HETATM   14  C2  UNL     1      15.013  35.053  16.958  1.00  0.00     0.174 C
HETATM   15  C1  UNL     1      14.746  36.256  17.870  1.00  0.00     0.034 C
ENDBRANCH  13  14
ENDBRANCH  11  13
ENDBRANCH  10  11
BRANCH  10  16
HETATM   16  C24 UNL     1      19.140  35.337  18.197  1.00  0.00    -0.022 C
HETATM   17  C25 UNL     1      18.633  36.654  17.705  1.00  0.00     0.017 C
HETATM   18  C26 UNL     1      20.685  35.449  18.048  1.00  0.00     0.017 C
HETATM   19  C27 UNL     1      18.902  35.244  19.664  1.00  0.00     0.017 C
ENDBRANCH  10  16
ENDBRANCH   7  10
ENDBRANCH   3   6
BRANCH   5  20
HETATM   20  C23 UNL     1      23.538  32.684  15.036  1.00  0.00     0.394 C
HETATM   21  F4  UNL     1      24.189  31.484  15.237  1.00  0.00    -0.171 F
HETATM   22  F5  UNL     1      24.250  33.524  16.003  1.00  0.00    -0.171 F
HETATM   23  F6  UNL     1      23.920  33.232  13.844  1.00  0.00    -0.171 F
ENDBRANCH   5  20
ENDBRANCH   1   3
BRANCH   1  24
HETATM   24  C7  UNL     1      21.147  29.281  14.625  1.00  0.00     0.122 C
BRANCH  24  25
HETATM   25  O4  UNL     1      21.104  28.152  15.297  1.00  0.00    -0.349 OA
ATOM     26  H4  UNL     1      21.058  28.336  16.228  1.00  0.00     0.219 HD
ENDBRANCH  24  25
BRANCH  24  27
HETATM   27  C8  UNL     1      20.979  29.175  13.172  1.00  0.00     0.113 C
BRANCH  27  28
HETATM   28  C9  UNL     1      19.659  28.609  12.793  1.00  0.00     0.004 C
BRANCH  28  29
HETATM   29  C10 UNL     1      19.223  28.750  11.396  1.00  0.00     0.057 C
BRANCH  29  30
HETATM   30  C11 UNL     1      18.363  27.569  10.913  1.00  0.00    -0.017 C
HETATM   31  C12 UNL     1      18.186  27.739   9.383  1.00  0.00     0.010 C
HETATM   32  C13 UNL     1      19.166  26.273  11.031  1.00  0.00     0.010 C
ENDBRANCH  29  30
ENDBRANCH  28  29
BRANCH  28  33
HETATM   33  N3  UNL     1      18.574  28.804  13.727  1.00  0.00    -0.335 N
HETATM   34  C14 UNL     1      17.915  27.539  14.280  1.00  0.00     0.158 C
BRANCH  33  35
HETATM   35  C15 UNL     1      17.955  29.926  14.224  1.00  0.00     0.227 C
BRANCH  35  36
HETATM   36  O5  UNL     1      17.679  29.850  15.514  1.00  0.00    -0.343 OA
ATOM     37  H5  UNL     1      18.414  30.073  16.073  1.00  0.00     0.219 HD
ENDBRANCH  35  36
BRANCH  35  38
HETATM   38  C16 UNL     1      17.535  31.161  13.647  1.00  0.00     0.456 C
HETATM   39  F1  UNL     1      16.623  30.916  12.550  1.00  0.00    -0.163 F
HETATM   40  F2  UNL     1      16.749  31.992  14.445  1.00  0.00    -0.163 F
HETATM   41  F3  UNL     1      18.500  31.933  13.039  1.00  0.00    -0.163 F
ENDBRANCH  35  38
ENDBRANCH  33  35
ENDBRANCH  28  33
ENDBRANCH  27  28
BRANCH  27  42
HETATM   42  C17 UNL     1      22.193  28.656  12.509  1.00  0.00    -0.035 C
HETATM   43  C18 UNL     1      23.389  29.196  13.332  1.00  0.00     0.015 C
HETATM   44  C19 UNL     1      22.317  27.164  12.444  1.00  0.00     0.015 C
HETATM   45  C20 UNL     1      22.519  29.263  11.131  1.00  0.00     0.015 C
ENDBRANCH  27  42
ENDBRANCH  24  27
ENDBRANCH   1  24
TORSDOF 19
ENDMDL