MODEL 1
REMARK VINA RESULT: -9.113109042      0.000      0.000
REMARK  12 active torsions:
REMARK  status: ('A' for Active; 'I' for Inactive)
REMARK    1  A    between atoms: C2_2  and  C3_3
REMARK    2  A    between atoms: C3_3  and  C4_4
REMARK    3  A    between atoms: C4_4  and  N1_5
REMARK    4  A    between atoms: C6_8  and  N3_9
REMARK    5  A    between atoms: N3_9  and  C7_10
REMARK       I    between atoms: N3_9  and  C18_22
REMARK    6  A    between atoms: C7_10  and  C8_11
REMARK    7  A    between atoms: C8_11  and  C9_12
REMARK    8  A    between atoms: C18_22  and  C19_24
REMARK    9  A    between atoms: C19_24  and  C20_25
REMARK   10  A    between atoms: C20_25  and  C21_26
REMARK   11  A    between atoms: C21_26  and  C22_28
REMARK   12  A    between atoms: C25_31  and  C26_32
ROOT
HETATM    1  N3  UNL     1      20.200  30.576  13.545  1.00  0.00    -0.310 N
HETATM    2  C18 UNL     1      20.737  31.809  13.105  1.00  0.00     0.225 C
HETATM    3  O1  UNL     1      21.193  31.874  11.939  1.00  0.00    -0.273 OA
ENDROOT
BRANCH   1   4
HETATM    4  C6  UNL     1      20.162  29.431  12.664  1.00  0.00     0.147 A
HETATM    5  C5  UNL     1      21.188  28.525  12.630  1.00  0.00     0.155 A
HETATM    6  N1  UNL     1      21.090  27.448  11.766  1.00  0.00    -0.285 N
HETATM    7  N2  UNL     1      22.329  28.664  13.464  1.00  0.00    -0.080 NA
HETATM    8  C31 UNL     1      20.011  27.323  11.000  1.00  0.00     0.330 A
HETATM    9  N5  UNL     1      18.993  28.223  11.035  1.00  0.00    -0.273 N
HETATM   10  O4  UNL     1      19.869  26.350  10.197  1.00  0.00    -0.246 OA
HETATM   11  C30 UNL     1      19.037  29.275  11.845  1.00  0.00     0.279 A
ATOM     12  H5  UNL     1      18.183  28.088  10.430  1.00  0.00     0.173 HD
HETATM   13  O3  UNL     1      18.124  30.146  11.924  1.00  0.00    -0.265 OA
BRANCH   6  14
HETATM   14  C4  UNL     1      22.197  26.529  11.817  1.00  0.00     0.135 C
BRANCH  14  15
HETATM   15  C3  UNL     1      23.243  26.770  10.803  1.00  0.00     0.020 C
BRANCH  15  16
HETATM   16  C2  UNL     1      24.622  26.331  11.104  1.00  0.00    -0.003 C
HETATM   17  C1  UNL     1      25.408  27.281  11.985  1.00  0.00     0.005 C
ENDBRANCH  15  16
ENDBRANCH  14  15
ENDBRANCH   6  14
ENDBRANCH   1   4
BRANCH   1  18
HETATM   18  C7  UNL     1      19.662  30.377  14.875  1.00  0.00     0.133 C
BRANCH  18  19
HETATM   19  C8  UNL     1      18.178  30.508  14.963  1.00  0.00     0.027 C
BRANCH  19  20
HETATM   20  C9  UNL     1      17.735  31.729  15.720  1.00  0.00     0.015 C
HETATM   21  C10 UNL     1      18.829  32.274  16.581  1.00  0.00     0.008 C
HETATM   22  C11 UNL     1      18.275  33.544  17.244  1.00  0.00     0.036 C
HETATM   23  C12 UNL     1      17.937  34.490  16.125  1.00  0.00     0.223 C
HETATM   24  C13 UNL     1      17.587  35.870  16.630  1.00  0.00     0.036 C
HETATM   25  N4  UNL     1      16.819  33.983  15.402  1.00  0.00     0.093 N
HETATM   26  C14 UNL     1      16.407  35.780  17.558  1.00  0.00     0.004 C
HETATM   27  C15 UNL     1      15.239  35.052  16.970  1.00  0.00     0.030 C
HETATM   28  C16 UNL     1      15.595  33.879  16.126  1.00  0.00     0.273 C
HETATM   29  C17 UNL     1      17.120  32.711  14.786  1.00  0.00     0.277 C
ENDBRANCH  19  20
ENDBRANCH  18  19
ENDBRANCH   1  18
BRANCH   2  30
HETATM   30  C19 UNL     1      20.768  32.991  13.968  1.00  0.00     0.111 C
BRANCH  30  31
HETATM   31  C20 UNL     1      22.184  33.351  14.343  1.00  0.00     0.093 C
BRANCH  31  32
HETATM   32  C21 UNL     1      22.307  33.462  15.811  1.00  0.00     0.160 C
HETATM   33  O2  UNL     1      22.743  32.484  16.461  1.00  0.00    -0.292 OA
BRANCH  32  34
HETATM   34  C22 UNL     1      21.927  34.687  16.503  1.00  0.00     0.011 A
HETATM   35  C23 UNL     1      21.575  34.638  17.832  1.00  0.00     0.016 A
HETATM   36  C24 UNL     1      21.213  35.774  18.510  1.00  0.00     0.010 A
HETATM   37  C25 UNL     1      21.188  37.013  17.882  1.00  0.00    -0.037 A
HETATM   38  C28 UNL     1      21.542  37.046  16.552  1.00  0.00     0.041 A
HETATM   39 CL1  UNL     1      21.533  38.578  15.695  1.00  0.00    -0.084 Cl
HETATM   40  C29 UNL     1      21.908  35.906  15.864  1.00  0.00     0.039 A
BRANCH  37  41
HETATM   41  C26 UNL     1      20.798  38.234  18.612  1.00  0.00     0.036 C
HETATM   42  C27 UNL     1      19.304  38.418  18.620  1.00  0.00     0.010 C
ENDBRANCH  37  41
ENDBRANCH  32  34
ENDBRANCH  31  32
ENDBRANCH  30  31
ENDBRANCH   2  30
TORSDOF 12
ENDMDL