MODEL 3
REMARK VINA RESULT: -8.355755888      2.376      7.393
REMARK  15 active torsions:
REMARK  status: ('A' for Active; 'I' for Inactive)
REMARK    1  A    between atoms: C2_2  and  C3_3
REMARK    2  A    between atoms: C3_3  and  O1_4
REMARK    3  A    between atoms: N1_6  and  O2_8
REMARK    4  A    between atoms: N2_12  and  C6_13
REMARK    5  A    between atoms: C6_13  and  C7_14
REMARK    6  A    between atoms: C7_14  and  O3_15
REMARK    7  A    between atoms: C7_14  and  C8_17
REMARK    8  A    between atoms: C8_17  and  O4_18
REMARK    9  A    between atoms: O4_18  and  C9_19
REMARK   10  A    between atoms: C9_19  and  C10_20
REMARK   11  A    between atoms: C10_20  and  C11_21
REMARK   12  A    between atoms: C11_21  and  C12_22
REMARK   13  A    between atoms: C12_22  and  N3_23
REMARK   14  A    between atoms: N4_26  and  C15_27
REMARK   15  A    between atoms: C15_27  and  C16_28
ROOT
HETATM    1  C7  UNL     1      18.366  28.909  14.371  1.00  0.00     0.082 C
ENDROOT
BRANCH   1   2
HETATM    2  C6  UNL     1      18.268  30.162  13.582  1.00  0.00     0.188 C
BRANCH   2   3
HETATM    3  N2  UNL     1      18.350  31.411  14.243  1.00  0.00    -0.386 N
HETATM    4  C5  UNL     1      19.329  31.331  15.283  1.00  0.00     0.123 C
HETATM    5  C4  UNL     1      19.140  32.214  16.452  1.00  0.00     0.038 C
HETATM    6  C2  UNL     1      18.689  33.572  15.902  1.00  0.00     0.036 C
HETATM    7  C1  UNL     1      19.660  34.012  14.831  1.00  0.00     0.025 C
HETATM    8  C25 UNL     1      17.307  33.350  15.367  1.00  0.00     0.006 C
HETATM    9  C24 UNL     1      17.188  32.136  14.499  1.00  0.00     0.069 C
HETATM   10  C26 UNL     1      16.369  33.223  16.547  1.00  0.00     0.016 C
HETATM   11  C29 UNL     1      16.799  34.561  14.606  1.00  0.00     0.016 C
HETATM   12  C27 UNL     1      15.398  34.362  16.482  1.00  0.00     0.001 C
HETATM   13  C28 UNL     1      15.417  34.858  15.074  1.00  0.00     0.001 C
BRANCH   6  14
HETATM   14  C3  UNL     1      18.735  34.529  17.024  1.00  0.00     0.145 C
HETATM   15  N1  UNL     1      18.888  34.151  18.261  1.00  0.00    -0.250 N
ATOM     16  H1  UNL     1      18.977  33.152  18.445  1.00  0.00     0.196 HD
BRANCH  14  17
HETATM   17  O1  UNL     1      18.622  35.900  16.833  1.00  0.00    -0.347 OA
ATOM     18  H1  UNL     1      17.897  36.403  17.185  1.00  0.00     0.219 HD
ENDBRANCH  14  17
BRANCH  15  19
HETATM   19  O2  UNL     1      18.936  34.992  19.317  1.00  0.00    -0.288 OA
ATOM     20  H2  UNL     1      18.243  35.597  19.555  1.00  0.00     0.244 HD
ENDBRANCH  15  19
ENDBRANCH   6  14
ENDBRANCH   2   3
ENDBRANCH   1   2
BRANCH   1  21
HETATM   21  O3  UNL     1      19.588  28.588  14.879  1.00  0.00    -0.361 OA
ATOM     22  H3  UNL     1      19.689  27.720  15.250  1.00  0.00     0.217 HD
ENDBRANCH   1  21
BRANCH   1  23
HETATM   23  C8  UNL     1      17.496  27.792  13.883  1.00  0.00     0.168 C
BRANCH  23  24
HETATM   24  O4  UNL     1      17.312  27.525  12.639  1.00  0.00    -0.360 OA
BRANCH  24  25
HETATM   25  C9  UNL     1      17.873  27.210  11.534  1.00  0.00     0.174 C
BRANCH  25  26
HETATM   26  C10 UNL     1      19.013  26.252  11.570  1.00  0.00     0.028 C
BRANCH  26  27
HETATM   27  C11 UNL     1      20.354  26.872  11.158  1.00  0.00     0.021 C
BRANCH  27  28
HETATM   28  C12 UNL     1      20.350  28.341  11.353  1.00  0.00     0.117 C
BRANCH  28  29
HETATM   29  N3  UNL     1      21.660  28.864  11.718  1.00  0.00    -0.406 N
HETATM   30  C13 UNL     1      22.273  28.162  12.798  1.00  0.00     0.137 C
HETATM   31  C14 UNL     1      23.450  28.989  13.288  1.00  0.00     0.146 C
HETATM   32  N4  UNL     1      23.020  30.212  13.873  1.00  0.00    -0.366 N
HETATM   33  C22 UNL     1      21.942  30.776  13.170  1.00  0.00     0.083 C
HETATM   34  C23 UNL     1      21.738  30.282  11.756  1.00  0.00     0.161 C
BRANCH  32  35
HETATM   35  C15 UNL     1      23.985  31.016  14.486  1.00  0.00     0.101 C
BRANCH  35  36
HETATM   36  C16 UNL     1      23.514  32.206  15.190  1.00  0.00    -0.021 A
HETATM   37  C17 UNL     1      23.617  33.424  14.578  1.00  0.00     0.014 A
HETATM   38  C18 UNL     1      23.176  34.557  15.223  1.00  0.00     0.020 A
HETATM   39  C19 UNL     1      22.626  34.495  16.485  1.00  0.00     0.011 A
HETATM   40 BR1  UNL     1      22.022  36.070  17.360  1.00  0.00    -0.051 Br
HETATM   41  C20 UNL     1      22.535  33.244  17.083  1.00  0.00     0.020 A
HETATM   42  C21 UNL     1      22.976  32.127  16.433  1.00  0.00     0.014 A
ENDBRANCH  35  36
ENDBRANCH  32  35
ENDBRANCH  28  29
ENDBRANCH  27  28
ENDBRANCH  26  27
ENDBRANCH  25  26
ENDBRANCH  24  25
ENDBRANCH  23  24
ENDBRANCH   1  23
TORSDOF 15
ENDMDL