MODEL 4
REMARK VINA RESULT: -8.758899916      2.342      4.720
REMARK  13 active torsions:
REMARK  status: ('A' for Active; 'I' for Inactive)
REMARK    1  A    between atoms: C2_2  and  C3_3
REMARK    2  A    between atoms: N1_7  and  C7_8
REMARK    3  A    between atoms: C7_8  and  C8_9
REMARK       I    between atoms: C8_9  and  N2_11
REMARK    4  A    between atoms: N2_11  and  C9_13
REMARK    5  A    between atoms: C12_16  and  C13_17
REMARK    6  A    between atoms: C13_17  and  C14_18
REMARK    7  A    between atoms: C14_18  and  N3_19
REMARK    8  A    between atoms: N4_22  and  C17_23
REMARK    9  A    between atoms: C17_23  and  C18_24
REMARK   10  A    between atoms: C18_24  and  O2_25
REMARK   11  A    between atoms: C18_24  and  C19_27
REMARK   12  A    between atoms: C19_27  and  S1_28
REMARK   13  A    between atoms: S1_28  and  C20_29
ROOT
HETATM    1  N3  UNL     1      20.953  36.483  18.635  1.00  0.00    -0.185 NA
HETATM    2  C15 UNL     1      20.053  35.514  19.247  1.00  0.00     0.141 C
HETATM    3  C16 UNL     1      18.733  35.429  18.556  1.00  0.00     0.145 C
HETATM    4  N4  UNL     1      18.254  36.730  18.103  1.00  0.00    -0.323 N
HETATM    5  C27 UNL     1      18.977  37.866  18.548  1.00  0.00     0.380 C
HETATM    6  O3  UNL     1      18.364  38.918  18.859  1.00  0.00    -0.237 OA
HETATM    7  O4  UNL     1      20.373  37.736  18.615  1.00  0.00    -0.207 OA
ENDROOT
BRANCH   1   8
HETATM    8  C14 UNL     1      21.286  36.031  17.314  1.00  0.00     0.121 C
BRANCH   8   9
HETATM    9  C13 UNL     1      22.459  35.155  17.208  1.00  0.00     0.021 C
BRANCH   9  10
HETATM   10  C12 UNL     1      22.322  33.749  16.807  1.00  0.00    -0.013 C
HETATM   11  C11 UNL     1      23.379  33.115  16.005  1.00  0.00     0.007 C
HETATM   12  C10 UNL     1      22.881  32.647  14.637  1.00  0.00     0.025 C
HETATM   13  C9  UNL     1      21.733  31.707  14.749  1.00  0.00     0.084 C
HETATM   14  C29 UNL     1      20.941  31.910  16.039  1.00  0.00     0.025 C
HETATM   15  C28 UNL     1      20.921  33.421  16.273  1.00  0.00     0.007 C
BRANCH  13  16
HETATM   16  N2  UNL     1      22.077  30.313  14.611  1.00  0.00    -0.355 N
HETATM   17  C8  UNL     1      22.188  29.707  13.318  1.00  0.00     0.246 C
HETATM   18  O1  UNL     1      21.975  30.385  12.289  1.00  0.00    -0.272 OA
ATOM     19  H2  UNL     1      22.245  29.751  15.447  1.00  0.00     0.162 HD
BRANCH  17  20
HETATM   20  C7  UNL     1      22.554  28.280  13.169  1.00  0.00     0.375 C
BRANCH  20  21
HETATM   21  N1  UNL     1      22.363  27.734  11.872  1.00  0.00     0.101 N
HETATM   22  C3  UNL     1      23.279  26.704  11.482  1.00  0.00     0.223 C
HETATM   23  C4  UNL     1      22.549  25.764  10.580  1.00  0.00     0.037 C
HETATM   24  C5  UNL     1      21.100  25.940  10.935  1.00  0.00     0.032 C
HETATM   25  C6  UNL     1      21.044  27.299  11.575  1.00  0.00     0.273 C
BRANCH  22  26
HETATM   26  C2  UNL     1      24.416  27.407  10.726  1.00  0.00     0.031 C
HETATM   27  C1  UNL     1      25.696  27.110  11.433  1.00  0.00     0.007 C
ENDBRANCH  22  26
ENDBRANCH  20  21
ENDBRANCH  17  20
ENDBRANCH  13  16
ENDBRANCH   9  10
ENDBRANCH   8   9
ENDBRANCH   1   8
BRANCH   4  28
HETATM   28  C17 UNL     1      17.104  36.813  17.256  1.00  0.00     0.160 C
BRANCH  28  29
HETATM   29  C18 UNL     1      15.784  36.546  17.917  1.00  0.00     0.145 C
BRANCH  29  30
HETATM   30  O2  UNL     1      15.933  35.852  19.124  1.00  0.00    -0.393 OA
ATOM     31  H2  UNL     1      15.539  36.317  19.853  1.00  0.00     0.210 HD
ENDBRANCH  29  30
BRANCH  29  32
HETATM   32  C19 UNL     1      15.020  35.640  16.942  1.00  0.00     0.112 C
BRANCH  32  33
HETATM   33  S1  UNL     1      15.497  33.931  17.195  1.00  0.00    -0.127 SA
BRANCH  33  34
HETATM   34  C20 UNL     1      16.585  33.433  15.853  1.00  0.00     0.001 A
HETATM   35  C21 UNL     1      17.213  34.322  15.018  1.00  0.00     0.020 A
HETATM   36  C22 UNL     1      18.030  33.881  14.014  1.00  0.00     0.026 A
HETATM   37  C23 UNL     1      18.247  32.540  13.811  1.00  0.00     0.040 A
HETATM   38 CL1  UNL     1      19.274  31.917  12.551  1.00  0.00    -0.084 Cl
HETATM   39  C24 UNL     1      17.611  31.637  14.656  1.00  0.00    -0.039 A
HETATM   40  C25 UNL     1      17.837  30.176  14.457  1.00  0.00     0.050 C
HETATM   41  C26 UNL     1      16.795  32.075  15.661  1.00  0.00     0.027 A
ENDBRANCH  33  34
ENDBRANCH  32  33
ENDBRANCH  29  32
ENDBRANCH  28  29
ENDBRANCH   4  28
TORSDOF 13
ENDMDL