MODEL 1
REMARK VINA RESULT: -8.998687888      0.000      0.000
REMARK  12 active torsions:
REMARK  status: ('A' for Active; 'I' for Inactive)
REMARK    1  A    between atoms: C2_2  and  C3_3
REMARK    2  A    between atoms: C2_2  and  N4_30
REMARK    3  A    between atoms: C3_3  and  N1_4
REMARK    4  A    between atoms: C7_8  and  C8_9
REMARK       I    between atoms: C8_9  and  N2_11
REMARK    5  A    between atoms: N2_11  and  C9_13
REMARK    6  A    between atoms: C9_13  and  C10_14
REMARK    7  A    between atoms: C13_17  and  O2_18
REMARK    8  A    between atoms: O2_18  and  C14_19
REMARK    9  A    between atoms: C14_19  and  C15_20
REMARK   10  A    between atoms: C15_20  and  N3_21
REMARK       I    between atoms: N4_30  and  C22_32
REMARK   11  A    between atoms: C22_32  and  C23_34
REMARK   12  A    between atoms: C23_34  and  C24_35
ROOT
HETATM    1  N1  UNL     1      17.950  34.042  16.327  1.00  0.00     0.104 N
HETATM    2  C4  UNL     1      17.184  34.815  15.418  1.00  0.00     0.273 C
HETATM    3  C5  UNL     1      16.129  33.894  14.824  1.00  0.00     0.033 C
HETATM    4  C6  UNL     1      15.953  32.819  15.840  1.00  0.00     0.047 C
HETATM    5  C7  UNL     1      17.273  32.772  16.526  1.00  0.00     0.314 C
ENDROOT
BRANCH   5   6
HETATM    6  C8  UNL     1      18.152  31.669  16.137  1.00  0.00     0.251 C
HETATM    7  O1  UNL     1      19.346  31.589  16.602  1.00  0.00    -0.271 OA
HETATM    8  N2  UNL     1      17.755  30.654  15.251  1.00  0.00    -0.355 N
ATOM      9  H2  UNL     1      16.809  30.685  14.869  1.00  0.00     0.162 HD
BRANCH   8  10
HETATM   10  C9  UNL     1      18.626  29.567  14.853  1.00  0.00     0.161 C
BRANCH  10  11
HETATM   11  C10 UNL     1      18.239  29.078  13.526  1.00  0.00    -0.039 A
HETATM   12  C11 UNL     1      17.697  29.885  12.558  1.00  0.00     0.011 A
HETATM   13  C12 UNL     1      17.349  29.359  11.312  1.00  0.00     0.039 A
HETATM   14  C13 UNL     1      17.538  28.040  11.027  1.00  0.00     0.090 A
HETATM   15  C20 UNL     1      18.091  27.209  12.012  1.00  0.00     0.068 A
HETATM   16 CL1  UNL     1      18.364  25.502  11.719  1.00  0.00    -0.081 Cl
HETATM   17  C21 UNL     1      18.429  27.742  13.236  1.00  0.00     0.035 A
BRANCH  14  18
HETATM   18  O2  UNL     1      17.233  27.432   9.846  1.00  0.00    -0.348 OA
BRANCH  18  19
HETATM   19  C14 UNL     1      18.030  27.528   8.695  1.00  0.00     0.206 C
BRANCH  19  20
HETATM   20  C15 UNL     1      18.511  26.218   8.191  1.00  0.00     0.299 C
BRANCH  20  21
HETATM   21  N3  UNL     1      18.890  26.106   6.840  1.00  0.00     0.094 N
HETATM   22  C16 UNL     1      20.140  25.400   6.692  1.00  0.00     0.298 C
HETATM   23  C17 UNL     1      20.696  25.609   5.313  1.00  0.00     0.198 C
HETATM   24  O3  UNL     1      19.716  25.132   4.411  1.00  0.00    -0.388 OA
HETATM   25  C18 UNL     1      18.586  25.910   4.477  1.00  0.00     0.198 C
HETATM   26  C19 UNL     1      17.961  25.697   5.870  1.00  0.00     0.298 C
ENDBRANCH  20  21
ENDBRANCH  19  20
ENDBRANCH  18  19
ENDBRANCH  14  18
ENDBRANCH  10  11
ENDBRANCH   8  10
ENDBRANCH   5   6
BRANCH   1  27
HETATM   27  C3  UNL     1      18.249  34.675  17.562  1.00  0.00     0.298 C
BRANCH  27  28
HETATM   28  C2  UNL     1      19.591  35.281  17.747  1.00  0.00     0.108 C
HETATM   29  C1  UNL     1      19.736  35.784  19.166  1.00  0.00     0.034 C
BRANCH  28  30
HETATM   30  N4  UNL     1      20.728  34.460  17.434  1.00  0.00    -0.355 N
HETATM   31  C22 UNL     1      21.717  34.879  16.486  1.00  0.00     0.218 C
HETATM   32  O4  UNL     1      21.556  35.985  15.941  1.00  0.00    -0.274 OA
ATOM     33  H4  UNL     1      20.833  33.558  17.898  1.00  0.00     0.162 HD
BRANCH  31  34
HETATM   34  C23 UNL     1      22.850  34.030  16.190  1.00  0.00     0.107 C
BRANCH  34  35
HETATM   35  C24 UNL     1      22.478  32.773  15.385  1.00  0.00    -0.006 C
HETATM   36  C25 UNL     1      23.461  31.685  15.569  1.00  0.00     0.005 C
HETATM   37  C26 UNL     1      24.005  31.000  14.379  1.00  0.00     0.000 C
HETATM   38  C27 UNL     1      23.220  29.798  13.910  1.00  0.00     0.000 C
HETATM   39  C28 UNL     1      21.788  30.057  13.636  1.00  0.00     0.000 C
HETATM   40  C29 UNL     1      21.562  30.792  12.339  1.00  0.00     0.000 C
HETATM   41  C30 UNL     1      20.544  31.886  12.446  1.00  0.00     0.000 C
HETATM   42  C31 UNL     1      20.630  32.711  13.684  1.00  0.00     0.000 C
HETATM   43  C32 UNL     1      22.076  33.122  13.996  1.00  0.00     0.005 C
ENDBRANCH  34  35
ENDBRANCH  31  34
ENDBRANCH  28  30
ENDBRANCH  27  28
ENDBRANCH   1  27
TORSDOF 12
ENDMDL