MODEL 4
REMARK VINA RESULT: -8.377874625      2.669      5.392
REMARK  12 active torsions:
REMARK  status: ('A' for Active; 'I' for Inactive)
REMARK    1  A    between atoms: O1_2  and  C2_3
REMARK    2  A    between atoms: N1_5  and  C4_6
REMARK    3  A    between atoms: N2_17  and  C15_18
REMARK    4  A    between atoms: C15_18  and  C16_19
REMARK    5  A    between atoms: C16_19  and  C17_20
REMARK    6  A    between atoms: C17_20  and  C18_21
REMARK    7  A    between atoms: C18_21  and  C19_22
REMARK    8  A    between atoms: C19_22  and  C20_23
REMARK       I    between atoms: C20_23  and  N3_25
REMARK    9  A    between atoms: N3_25  and  C21_27
REMARK   10  A    between atoms: C25_32  and  S1_33
REMARK   11  A    between atoms: S1_33  and  N4_36
REMARK   12  A    between atoms: N4_36  and  C26_38
ROOT
HETATM    1  C18 UNL     1      16.697  33.559  15.478  1.00  0.00     0.009 C
ENDROOT
BRANCH   1   2
HETATM    2  C17 UNL     1      15.334  34.059  15.841  1.00  0.00     0.002 C
BRANCH   2   3
HETATM    3  C16 UNL     1      15.188  34.460  17.280  1.00  0.00     0.030 C
BRANCH   3   4
HETATM    4  C15 UNL     1      15.357  35.962  17.350  1.00  0.00     0.276 C
BRANCH   4   5
HETATM    5  N2  UNL     1      16.616  36.356  17.962  1.00  0.00     0.120 N
HETATM    6  C2  UNL     1      17.473  36.838  16.905  1.00  0.00     0.376 C
HETATM    7  C3  UNL     1      18.884  37.098  17.476  1.00  0.00     0.181 C
HETATM    8  N1  UNL     1      19.391  35.832  17.849  1.00  0.00    -0.402 N
HETATM    9  C13 UNL     1      18.630  35.256  18.897  1.00  0.00     0.147 C
HETATM   10  C14 UNL     1      17.151  35.207  18.645  1.00  0.00     0.295 C
BRANCH   6  11
HETATM   11  O1  UNL     1      16.951  37.989  16.365  1.00  0.00    -0.361 OA
HETATM   12  C1  UNL     1      17.454  39.101  17.027  1.00  0.00     0.204 C
ENDBRANCH   6  11
BRANCH   8  13
HETATM   13  C4  UNL     1      20.776  35.655  18.003  1.00  0.00     0.083 C
HETATM   14  C5  UNL     1      21.566  36.943  17.960  1.00  0.00     0.026 C
HETATM   15  C6  UNL     1      22.720  36.674  17.049  1.00  0.00     0.007 C
HETATM   16  C7  UNL     1      22.235  35.558  16.146  1.00  0.00    -0.008 C
HETATM   17  C8  UNL     1      23.409  34.747  15.630  1.00  0.00     0.005 C
HETATM   18  C12 UNL     1      21.482  34.691  17.130  1.00  0.00     0.012 C
HETATM   19  C9  UNL     1      22.951  33.323  15.457  1.00  0.00     0.000 C
HETATM   20  C10 UNL     1      21.449  33.267  15.157  1.00  0.00     0.000 C
HETATM   21  C11 UNL     1      20.674  33.679  16.419  1.00  0.00     0.007 C
ENDBRANCH   8  13
ENDBRANCH   4   5
ENDBRANCH   3   4
ENDBRANCH   2   3
ENDBRANCH   1   2
BRANCH   1  22
HETATM   22  C19 UNL     1      16.719  32.066  15.519  1.00  0.00     0.103 C
BRANCH  22  23
HETATM   23  C20 UNL     1      17.808  31.520  14.620  1.00  0.00     0.222 C
HETATM   24  O2  UNL     1      18.265  32.329  13.804  1.00  0.00    -0.273 OA
HETATM   25  N3  UNL     1      18.219  30.194  14.749  1.00  0.00    -0.327 N
ATOM     26  H3  UNL     1      17.760  29.631  15.466  1.00  0.00     0.169 HD
BRANCH  25  27
HETATM   27  C21 UNL     1      19.209  29.567  13.979  1.00  0.00     0.036 A
HETATM   28  C22 UNL     1      20.526  29.850  14.029  1.00  0.00     0.031 A
HETATM   29  C23 UNL     1      21.444  29.161  13.221  1.00  0.00     0.028 A
HETATM   30  C24 UNL     1      21.041  28.177  12.353  1.00  0.00     0.057 A
HETATM   31 CL1  UNL     1      22.218  27.336  11.357  1.00  0.00    -0.083 Cl
HETATM   32  C25 UNL     1      19.675  27.869  12.287  1.00  0.00     0.103 A
HETATM   33  C29 UNL     1      18.819  28.559  13.084  1.00  0.00     0.056 A
BRANCH  32  34
HETATM   34  S1  UNL     1      19.243  26.623  11.161  1.00  0.00     0.260 S
HETATM   35  O3  UNL     1      20.092  25.398  11.358  1.00  0.00    -0.200 OA
HETATM   36  O4  UNL     1      17.817  26.195  11.424  1.00  0.00    -0.200 OA
BRANCH  34  37
HETATM   37  N4  UNL     1      19.408  27.134   9.548  1.00  0.00    -0.311 N
ATOM     38  H4  UNL     1      20.317  27.295   9.112  1.00  0.00     0.172 HD
BRANCH  37  39
HETATM   39  C26 UNL     1      18.168  27.320   8.846  1.00  0.00     0.093 A
HETATM   40  C27 UNL     1      17.766  26.188   7.860  1.00  0.00     0.028 A
HETATM   41  C28 UNL     1      18.262  27.523   7.363  1.00  0.00     0.028 A
ENDBRANCH  37  39
ENDBRANCH  34  37
ENDBRANCH  32  34
ENDBRANCH  25  27
ENDBRANCH  22  23
ENDBRANCH   1  22
TORSDOF 12
ENDMDL