MODEL 3
REMARK VINA RESULT: -8.246078634      3.648     10.406
REMARK  11 active torsions:
REMARK  status: ('A' for Active; 'I' for Inactive)
REMARK    1  A    between atoms: C2_2  and  C3_3
REMARK    2  A    between atoms: C3_3  and  C4_4
REMARK    3  A    between atoms: C4_4  and  C5_5
REMARK       I    between atoms: C5_5  and  N1_7
REMARK    4  A    between atoms: N1_7  and  C6_8
REMARK    5  A    between atoms: C6_8  and  C7_9
REMARK    6  A    between atoms: C7_9  and  C8_10
REMARK       I    between atoms: C8_10  and  N2_12
REMARK    7  A    between atoms: N2_12  and  C9_14
REMARK    8  A    between atoms: C10_15  and  C11_16
REMARK    9  A    between atoms: C10_15  and  C25_34
REMARK   10  A    between atoms: C12_18  and  C13_19
REMARK   11  A    between atoms: N3_39  and  C30_40
ROOT
HETATM    1  C9  UNL     1      20.051  31.176  16.820  1.00  0.00     0.101 C
HETATM    2  C10 UNL     1      19.033  31.826  16.028  1.00  0.00    -0.001 C
ENDROOT
BRANCH   2   3
HETATM    3  C11 UNL     1      18.786  31.050  14.740  1.00  0.00     0.036 A
HETATM    4  S1  UNL     1      18.259  29.470  14.443  1.00  0.00    -0.091 SA
HETATM    5  C12 UNL     1      18.455  29.393  12.750  1.00  0.00     0.004 A
HETATM    6  C23 UNL     1      18.929  30.625  12.454  1.00  0.00     0.041 A
HETATM    7  C24 UNL     1      19.104  31.496  13.480  1.00  0.00     0.052 A
HETATM    8 CL1  UNL     1      19.585  33.195  13.085  1.00  0.00    -0.083 Cl
BRANCH   5   9
HETATM    9  C13 UNL     1      18.228  28.242  11.826  1.00  0.00     0.082 C
HETATM   10  C14 UNL     1      17.861  26.987  12.528  1.00  0.00     0.026 C
HETATM   11  C15 UNL     1      18.646  25.761  12.086  1.00  0.00     0.007 C
HETATM   12  C16 UNL     1      18.731  25.711  10.586  1.00  0.00    -0.008 C
HETATM   13  C17 UNL     1      17.374  25.638   9.939  1.00  0.00     0.037 C
HETATM   14  C20 UNL     1      19.411  26.935  10.029  1.00  0.00    -0.006 C
HETATM   15  C18 UNL     1      17.245  26.868   9.037  1.00  0.00     0.132 C
HETATM   16  C19 UNL     1      18.688  27.225   8.751  1.00  0.00     0.037 C
HETATM   17  O3  UNL     1      16.608  27.870   9.806  1.00  0.00    -0.315 OA
HETATM   18  C22 UNL     1      17.133  28.586  10.855  1.00  0.00     0.273 C
HETATM   19  O4  UNL     1      16.600  29.711  11.018  1.00  0.00    -0.264 OA
HETATM   20  C21 UNL     1      19.490  28.078  10.999  1.00  0.00     0.030 C
ENDBRANCH   5   9
ENDBRANCH   2   3
BRANCH   2  21
HETATM   21  C25 UNL     1      17.848  32.530  16.580  1.00  0.00     0.119 C
HETATM   22  C26 UNL     1      16.656  31.954  15.817  1.00  0.00     0.030 C
HETATM   23  C27 UNL     1      15.618  32.911  15.415  1.00  0.00     0.007 C
HETATM   24  C28 UNL     1      15.857  34.358  15.501  1.00  0.00     0.044 C
HETATM   25  C29 UNL     1      17.287  34.689  15.602  1.00  0.00     0.059 C
HETATM   26  N3  UNL     1      17.976  33.926  16.544  1.00  0.00    -0.385 N
BRANCH  26  27
HETATM   27  C30 UNL     1      18.251  34.581  17.768  1.00  0.00     0.118 C
HETATM   28  C31 UNL     1      19.139  35.788  17.682  1.00  0.00     0.026 C
ENDBRANCH  26  27
ENDBRANCH   2  21
BRANCH   1  29
HETATM   29  N2  UNL     1      21.391  31.133  16.288  1.00  0.00    -0.336 N
HETATM   30  C8  UNL     1      22.125  32.351  16.222  1.00  0.00     0.227 C
HETATM   31  O2  UNL     1      21.588  33.438  16.601  1.00  0.00    -0.273 OA
ATOM     32  H2  UNL     1      21.801  30.255  15.968  1.00  0.00     0.168 HD
BRANCH  30  33
HETATM   33  C7  UNL     1      23.541  32.469  15.746  1.00  0.00     0.162 C
BRANCH  33  34
HETATM   34  C6  UNL     1      23.486  32.076  14.245  1.00  0.00     0.168 C
BRANCH  34  35
HETATM   35  N1  UNL     1      22.976  30.923  13.862  1.00  0.00    -0.387 NA
HETATM   36  C5  UNL     1      22.431  29.696  13.475  1.00  0.00     0.290 C
HETATM   37  O1  UNL     1      21.867  28.867  14.211  1.00  0.00    -0.257 OA
BRANCH  36  38
HETATM   38  C4  UNL     1      22.524  29.259  12.026  1.00  0.00     0.119 C
BRANCH  38  39
HETATM   39  C3  UNL     1      23.138  27.862  12.126  1.00  0.00     0.010 C
BRANCH  39  40
HETATM   40  C2  UNL     1      24.228  27.697  11.120  1.00  0.00    -0.004 C
HETATM   41  C1  UNL     1      25.418  27.064  11.853  1.00  0.00     0.005 C
ENDBRANCH  39  40
ENDBRANCH  38  39
ENDBRANCH  36  38
ENDBRANCH  34  35
ENDBRANCH  33  34
ENDBRANCH  30  33
ENDBRANCH   1  29
TORSDOF 11
ENDMDL