MODEL 1
REMARK VINA RESULT: -8.768198780      0.000      0.000
REMARK  14 active torsions:
REMARK  status: ('A' for Active; 'I' for Inactive)
REMARK    1  A    between atoms: C2_2  and  C3_3
REMARK    2  A    between atoms: C3_3  and  C6_6
REMARK       I    between atoms: C6_6  and  N1_8
REMARK    3  A    between atoms: N1_8  and  C7_10
REMARK    4  A    between atoms: N2_12  and  C8_14
REMARK    5  A    between atoms: C8_14  and  C9_15
REMARK    6  A    between atoms: C8_14  and  C16_23
REMARK    7  A    between atoms: C9_15  and  C10_16
REMARK    8  A    between atoms: C10_16  and  N3_17
REMARK    9  A    between atoms: C16_23  and  O2_24
REMARK   10  A    between atoms: O2_24  and  C17_25
REMARK   11  A    between atoms: C17_25  and  O3_26
REMARK   12  A    between atoms: C18_28  and  C19_29
REMARK   13  A    between atoms: C19_29  and  O4_30
REMARK   14  A    between atoms: O4_30  and  C20_31
ROOT
HETATM    1  C8  UNL     1      19.811  29.722  14.364  1.00  0.00     0.112 C
ENDROOT
BRANCH   1   2
HETATM    2  N2  UNL     1      20.619  28.548  13.853  1.00  0.00    -0.363 N
HETATM    3  C7  UNL     1      21.678  28.407  13.090  1.00  0.00     0.154 C
HETATM    4  S1  UNL     1      21.517  30.353  12.483  1.00  0.00    -0.013 SA
ATOM      5  H2  UNL     1      20.254  27.653  14.179  1.00  0.00     0.162 HD
BRANCH   3   6
HETATM    6  N1  UNL     1      22.749  28.271  12.318  1.00  0.00    -0.306 N
HETATM    7  C6  UNL     1      22.953  26.942  11.705  1.00  0.00     0.231 C
HETATM    8  O1  UNL     1      22.139  26.019  11.901  1.00  0.00    -0.272 OA
ATOM      9  H1  UNL     1      23.397  29.042  12.157  1.00  0.00     0.171 HD
BRANCH   7  10
HETATM   10  C3  UNL     1      24.146  26.692  10.858  1.00  0.00     0.034 C
HETATM   11  C4  UNL     1      25.379  26.814  11.720  1.00  0.00     0.025 C
HETATM   12  C5  UNL     1      24.174  27.884   9.876  1.00  0.00     0.025 C
BRANCH  10  13
HETATM   13  C2  UNL     1      24.115  25.404  10.116  1.00  0.00     0.014 C
HETATM   14  C1  UNL     1      23.841  25.615   8.638  1.00  0.00     0.006 C
ENDBRANCH  10  13
ENDBRANCH   7  10
ENDBRANCH   3   6
ENDBRANCH   1   2
BRANCH   1  15
HETATM   15  C9  UNL     1      18.427  29.404  13.974  1.00  0.00     0.071 C
BRANCH  15  16
HETATM   16  C10 UNL     1      18.011  29.726  12.571  1.00  0.00     0.060 C
BRANCH  16  17
HETATM   17  N3  UNL     1      17.698  28.613  11.812  1.00  0.00    -0.393 N
HETATM   18  C11 UNL     1      17.191  28.643  10.515  1.00  0.00     0.122 C
HETATM   19  C12 UNL     1      17.835  27.590   9.609  1.00  0.00     0.020 C
HETATM   20  C13 UNL     1      17.796  26.253  10.267  1.00  0.00     0.003 C
HETATM   21  C14 UNL     1      18.350  26.259  11.660  1.00  0.00     0.020 C
HETATM   22  C15 UNL     1      17.630  27.332  12.459  1.00  0.00     0.122 C
ENDBRANCH  16  17
ENDBRANCH  15  16
ENDBRANCH   1  15
BRANCH   1  23
HETATM   23  C16 UNL     1      20.261  29.787  15.743  1.00  0.00     0.203 C
BRANCH  23  24
HETATM   24  O2  UNL     1      20.221  30.923  16.571  1.00  0.00    -0.329 OA
BRANCH  24  25
HETATM   25  C17 UNL     1      21.375  31.718  16.475  1.00  0.00     0.176 C
HETATM   26  C18 UNL     1      22.062  32.331  15.396  1.00  0.00     0.063 C
BRANCH  25  27
HETATM   27  O3  UNL     1      21.905  31.896  17.662  1.00  0.00    -0.341 OA
ATOM     28  H3  UNL     1      22.673  32.453  17.600  1.00  0.00     0.220 HD
ENDBRANCH  25  27
BRANCH  26  29
HETATM   29  C19 UNL     1      21.508  33.474  14.651  1.00  0.00     0.208 C
BRANCH  29  30
HETATM   30  O4  UNL     1      20.972  34.469  15.525  1.00  0.00    -0.346 OA
BRANCH  30  31
HETATM   31  C20 UNL     1      19.635  34.379  15.913  1.00  0.00     0.081 A
HETATM   32  C21 UNL     1      18.613  33.886  15.163  1.00  0.00    -0.027 A
HETATM   33  C22 UNL     1      18.814  33.250  13.818  1.00  0.00     0.051 C
HETATM   34  C23 UNL     1      17.286  33.862  15.643  1.00  0.00     0.028 A
HETATM   35  C24 UNL     1      17.040  34.351  16.901  1.00  0.00     0.012 A
HETATM   36 BR1  UNL     1      15.278  34.348  17.617  1.00  0.00    -0.051 Br
HETATM   37  C25 UNL     1      18.084  34.843  17.658  1.00  0.00     0.028 A
HETATM   38  C26 UNL     1      19.372  34.870  17.199  1.00  0.00    -0.027 A
HETATM   39  C27 UNL     1      20.471  35.383  18.055  1.00  0.00     0.051 C
ENDBRANCH  30  31
ENDBRANCH  29  30
ENDBRANCH  26  29
ENDBRANCH  24  25
ENDBRANCH  23  24
ENDBRANCH   1  23
TORSDOF 14
ENDMDL