MODEL 4
REMARK VINA RESULT: -8.869311941      4.066     10.651
REMARK  14 active torsions:
REMARK  status: ('A' for Active; 'I' for Inactive)
REMARK    1  A    between atoms: C2_2  and  C3_3
REMARK    2  A    between atoms: C3_3  and  C4_4
REMARK    3  A    between atoms: C4_4  and  C5_5
REMARK    4  A    between atoms: C5_5  and  C6_6
REMARK    5  A    between atoms: C6_6  and  N1_7
REMARK    6  A    between atoms: N1_7  and  C7_9
REMARK    7  A    between atoms: C10_14  and  N3_15
REMARK    8  A    between atoms: N3_15  and  C11_17
REMARK    9  A    between atoms: C11_17  and  C12_18
REMARK   10  A    between atoms: C12_18  and  N4_19
REMARK   11  A    between atoms: N7_31  and  C20_32
REMARK   12  A    between atoms: C28_42  and  C29_43
REMARK   13  A    between atoms: C29_43  and  C30_44
REMARK   14  A    between atoms: C30_44  and  C31_45
ROOT
HETATM    1  C7  UNL     1      18.747  28.990  14.369  1.00  0.00     0.684 A
HETATM    2  N2  UNL     1      18.429  30.117  15.029  1.00  0.00    -0.188 N
ATOM      3  H2  UNL     1      17.443  30.306  15.207  1.00  0.00     0.184 HD
HETATM    4  C8  UNL     1      19.338  31.014  15.469  1.00  0.00     0.093 A
HETATM    5  C9  UNL     1      20.668  30.750  15.227  1.00  0.00     0.141 A
HETATM    6  C10 UNL     1      21.009  29.584  14.545  1.00  0.00     0.153 A
HETATM    7  N6  UNL     1      20.064  28.729  14.128  1.00  0.00    -0.174 N
ATOM      8  H6  UNL     1      20.331  27.879  13.630  1.00  0.00     0.186 HD
HETATM    9  O1  UNL     1      21.604  31.648  15.671  1.00  0.00    -0.337 OA
HETATM   10  C18 UNL     1      21.350  33.017  15.658  1.00  0.00     0.165 C
HETATM   11  C19 UNL     1      21.998  33.772  16.810  1.00  0.00     0.165 C
HETATM   12  N7  UNL     1      21.233  35.030  16.847  1.00  0.00    -0.315 N
HETATM   13  C26 UNL     1      19.887  34.604  16.535  1.00  0.00     0.235 C
HETATM   14  O2  UNL     1      18.924  35.312  16.993  1.00  0.00    -0.272 OA
HETATM   15  C27 UNL     1      19.886  33.383  15.708  1.00  0.00     0.144 C
HETATM   16  C28 UNL     1      19.017  32.260  16.200  1.00  0.00    -0.016 C
ENDROOT
BRANCH   6  17
HETATM   17  N3  UNL     1      22.260  29.410  14.361  1.00  0.00    -0.372 N
ATOM     18  H3  UNL     1      22.808  29.066  15.150  1.00  0.00     0.161 HD
BRANCH  17  19
HETATM   19  C11 UNL     1      22.947  29.658  13.147  1.00  0.00     0.151 C
BRANCH  19  20
HETATM   20  C12 UNL     1      23.894  28.464  12.903  1.00  0.00     0.292 C
BRANCH  20  21
HETATM   21  N4  UNL     1      23.577  27.914  11.600  1.00  0.00     0.096 N
HETATM   22  C13 UNL     1      24.742  27.270  11.014  1.00  0.00     0.292 C
HETATM   23  C14 UNL     1      24.411  26.694   9.654  1.00  0.00     0.151 C
HETATM   24  N5  UNL     1      23.483  25.641   9.852  1.00  0.00    -0.394 N
HETATM   25  C15 UNL     1      22.909  25.182   8.622  1.00  0.00     0.148 C
HETATM   26  C16 UNL     1      22.593  25.722  10.939  1.00  0.00     0.087 C
HETATM   27  C17 UNL     1      22.449  27.008  11.659  1.00  0.00     0.316 C
ENDBRANCH  20  21
ENDBRANCH  19  20
ENDBRANCH  17  19
ENDBRANCH   6  17
BRANCH   1  28
HETATM   28  N1  UNL     1      17.839  28.180  13.936  1.00  0.00    -0.205 N
ATOM     29  H1  UNL     1      17.230  27.777  14.648  1.00  0.00     0.183 HD
BRANCH  28  30
HETATM   30  C6  UNL     1      17.576  27.779  12.611  1.00  0.00     0.079 C
BRANCH  30  31
HETATM   31  C5  UNL     1      17.136  28.982  11.788  1.00  0.00     0.045 C
BRANCH  31  32
HETATM   32  C4  UNL     1      17.131  28.636  10.309  1.00  0.00     0.005 C
BRANCH  32  33
HETATM   33  C3  UNL     1      18.260  27.675  10.052  1.00  0.00     0.000 C
BRANCH  33  34
HETATM   34  C2  UNL     1      18.151  27.067   8.667  1.00  0.00    -0.005 C
HETATM   35  C1  UNL     1      17.319  25.819   8.772  1.00  0.00     0.005 C
ENDBRANCH  33  34
ENDBRANCH  32  33
ENDBRANCH  31  32
ENDBRANCH  30  31
ENDBRANCH  28  30
ENDBRANCH   1  28
BRANCH  16  36
HETATM   36  C29 UNL     1      17.625  32.588  16.463  1.00  0.00    -0.016 C
BRANCH  36  37
HETATM   37  C30 UNL     1      16.663  33.063  15.473  1.00  0.00     0.027 C
BRANCH  37  38
HETATM   38  C31 UNL     1      15.743  34.182  15.831  1.00  0.00    -0.001 C
HETATM   39  C32 UNL     1      15.463  34.199  17.337  1.00  0.00     0.005 C
ENDBRANCH  37  38
ENDBRANCH  36  37
ENDBRANCH  16  36
BRANCH  12  40
HETATM   40  C20 UNL     1      21.726  36.334  17.121  1.00  0.00     0.037 A
HETATM   41  C21 UNL     1      22.520  36.572  18.220  1.00  0.00     0.033 A
HETATM   42  C22 UNL     1      23.005  37.847  18.489  1.00  0.00     0.044 A
HETATM   43  C23 UNL     1      22.711  38.916  17.672  1.00  0.00     0.116 A
HETATM   44  F1  UNL     1      23.185  40.175  17.931  1.00  0.00    -0.206 F
HETATM   45  C24 UNL     1      21.915  38.695  16.566  1.00  0.00     0.044 A
HETATM   46  C25 UNL     1      21.437  37.422  16.305  1.00  0.00     0.033 A
ENDBRANCH  12  40
TORSDOF 14
ENDMDL