MODEL 1
REMARK VINA RESULT: -8.503152367      0.000      0.000
REMARK  12 active torsions:
REMARK  status: ('A' for Active; 'I' for Inactive)
REMARK    1  A    between atoms: C2_2  and  C3_3
REMARK    2  A    between atoms: C3_3  and  N1_4
REMARK    3  A    between atoms: N1_4  and  C4_5
REMARK    4  A    between atoms: N1_4  and  C22_26
REMARK    5  A    between atoms: C4_5  and  C5_6
REMARK    6  A    between atoms: C9_11  and  C10_12
REMARK    7  A    between atoms: C10_12  and  N2_13
REMARK    8  A    between atoms: C13_16  and  N3_17
REMARK    9  A    between atoms: C22_26  and  C23_27
REMARK   10  A    between atoms: C24_29  and  C25_30
REMARK   11  A    between atoms: C25_30  and  C26_31
REMARK   12  A    between atoms: C26_31  and  N4_32
ROOT
HETATM    1  C5  UNL     1      17.919  32.145  16.374  1.00  0.00    -0.029 A
HETATM    2  C6  UNL     1      16.649  32.039  15.854  1.00  0.00     0.011 A
HETATM    3  C7  UNL     1      15.766  33.076  16.033  1.00  0.00     0.025 A
HETATM    4  C8  UNL     1      16.177  34.189  16.732  1.00  0.00     0.045 A
HETATM    5 CL1  UNL     1      15.075  35.552  16.975  1.00  0.00    -0.083 Cl
HETATM    6  C9  UNL     1      17.425  34.327  17.273  1.00  0.00     0.001 A
HETATM    7  C21 UNL     1      18.305  33.240  17.066  1.00  0.00     0.023 A
ENDROOT
BRANCH   1   8
HETATM    8  C4  UNL     1      18.925  31.122  15.923  1.00  0.00     0.311 C
BRANCH   8   9
HETATM    9  N1  UNL     1      18.770  30.952  14.460  1.00  0.00     0.095 N
BRANCH   9  10
HETATM   10  C3  UNL     1      19.932  31.406  13.703  1.00  0.00     0.272 C
BRANCH  10  11
HETATM   11  C2  UNL     1      19.737  32.513  12.723  1.00  0.00     0.026 C
HETATM   12  C1  UNL     1      19.014  33.651  13.503  1.00  0.00     0.007 C
ENDBRANCH  10  11
ENDBRANCH   9  10
BRANCH   9  13
HETATM   13  C22 UNL     1      18.610  29.553  14.163  1.00  0.00     0.306 C
BRANCH  13  14
HETATM   14  C23 UNL     1      19.226  28.899  13.049  1.00  0.00     0.169 C
HETATM   15  O1  UNL     1      20.188  27.958  13.111  1.00  0.00    -0.367 OA
HETATM   16  C24 UNL     1      20.732  27.943  11.785  1.00  0.00     0.185 C
HETATM   17  S1  UNL     1      19.237  27.776  10.804  1.00  0.00    -0.125 SA
HETATM   18  C28 UNL     1      18.086  28.313  12.110  1.00  0.00     0.031 C
HETATM   19  C29 UNL     1      17.480  27.130  12.738  1.00  0.00     0.029 C
HETATM   20  C30 UNL     1      17.198  29.413  11.662  1.00  0.00     0.029 C
BRANCH  16  21
HETATM   21  C25 UNL     1      21.618  29.072  11.461  1.00  0.00     0.062 C
BRANCH  21  22
HETATM   22  C26 UNL     1      22.984  28.767  12.145  1.00  0.00     0.125 C
BRANCH  22  23
HETATM   23  N4  UNL     1      23.232  27.393  11.863  1.00  0.00    -0.367 N
HETATM   24  C27 UNL     1      24.398  26.859  11.770  1.00  0.00     0.196 C
HETATM   25  N5  UNL     1      25.530  27.677  11.961  1.00  0.00    -0.067 NA
HETATM   26  N6  UNL     1      24.524  25.453  11.442  1.00  0.00    -0.067 NA
ATOM     27  H4  UNL     1      22.423  26.787  11.724  1.00  0.00     0.161 HD
ENDBRANCH  22  23
ENDBRANCH  21  22
ENDBRANCH  16  21
ENDBRANCH  13  14
ENDBRANCH   9  13
ENDBRANCH   8   9
ENDBRANCH   1   8
BRANCH   6  28
HETATM   28  C10 UNL     1      17.894  35.618  17.796  1.00  0.00     0.098 C
BRANCH  28  29
HETATM   29  N2  UNL     1      19.263  35.709  17.969  1.00  0.00    -0.389 N
HETATM   30  C11 UNL     1      19.790  36.652  16.934  1.00  0.00     0.124 C
HETATM   31  C12 UNL     1      21.257  36.739  16.988  1.00  0.00     0.055 C
HETATM   32  C13 UNL     1      22.036  35.550  17.436  1.00  0.00     0.226 C
HETATM   33  C19 UNL     1      21.455  34.994  18.721  1.00  0.00     0.055 C
HETATM   34  C20 UNL     1      20.075  35.637  19.054  1.00  0.00     0.124 C
BRANCH  32  35
HETATM   35  N3  UNL     1      22.284  34.539  16.452  1.00  0.00     0.093 N
HETATM   36  C14 UNL     1      23.336  34.701  15.524  1.00  0.00     0.273 C
HETATM   37  C15 UNL     1      22.984  33.725  14.376  1.00  0.00     0.030 C
HETATM   38  C16 UNL     1      23.131  32.341  14.897  1.00  0.00     0.003 C
HETATM   39  C17 UNL     1      22.462  32.132  16.235  1.00  0.00     0.030 C
HETATM   40  C18 UNL     1      22.577  33.303  17.169  1.00  0.00     0.273 C
ENDBRANCH  32  35
ENDBRANCH  28  29
ENDBRANCH   6  28
TORSDOF 12
ENDMDL