MODEL 3
REMARK VINA RESULT: -7.805463221      2.437      5.137
REMARK  15 active torsions:
REMARK  status: ('A' for Active; 'I' for Inactive)
REMARK    1  A    between atoms: O1_2  and  C2_3
REMARK    2  A    between atoms: C2_3  and  C3_4
REMARK    3  A    between atoms: C3_4  and  C4_5
REMARK    4  A    between atoms: C4_5  and  N1_6
REMARK    5  A    between atoms: C7_9  and  C8_10
REMARK    6  A    between atoms: C8_10  and  O2_11
REMARK    7  A    between atoms: N2_17  and  C13_18
REMARK    8  A    between atoms: C13_18  and  C14_19
REMARK    9  A    between atoms: C14_19  and  C15_20
REMARK   10  A    between atoms: C15_20  and  N3_21
REMARK   11  A    between atoms: N3_21  and  C16_22
REMARK   12  A    between atoms: N3_21  and  C20_26
REMARK   13  A    between atoms: C16_22  and  C17_23
REMARK   14  A    between atoms: C20_26  and  C21_27
REMARK   15  A    between atoms: C30_37  and  O3_38
ROOT
HETATM    1  N1  UNL     1      18.356  33.208  15.479  1.00  0.00    -0.406 N
HETATM    2  C5  UNL     1      17.843  33.039  14.149  1.00  0.00     0.118 C
HETATM    3  C6  UNL     1      17.762  31.664  13.642  1.00  0.00     0.034 C
HETATM    4  C7  UNL     1      18.978  30.797  13.789  1.00  0.00     0.020 C
HETATM    5  C9  UNL     1      19.040  30.203  15.152  1.00  0.00     0.017 C
HETATM    6  C10 UNL     1      19.504  31.126  16.229  1.00  0.00     0.028 C
HETATM    7  C11 UNL     1      19.582  32.553  15.771  1.00  0.00     0.105 C
HETATM    8  C12 UNL     1      20.489  32.585  14.582  1.00  0.00     0.147 C
HETATM    9  N2  UNL     1      21.879  32.330  15.073  1.00  0.00    -0.370 N
HETATM   10  C24 UNL     1      22.341  31.232  14.339  1.00  0.00     0.040 A
HETATM   11  C25 UNL     1      23.573  30.559  14.397  1.00  0.00     0.031 A
HETATM   12  C26 UNL     1      23.918  29.566  13.481  1.00  0.00     0.021 A
HETATM   13  C27 UNL     1      23.050  29.222  12.495  1.00  0.00     0.011 A
HETATM   14 BR1  UNL     1      23.464  27.862  11.199  1.00  0.00    -0.051 Br
HETATM   15  C28 UNL     1      21.849  29.877  12.438  1.00  0.00     0.031 A
HETATM   16  C29 UNL     1      21.450  30.876  13.332  1.00  0.00     0.007 A
HETATM   17  C30 UNL     1      20.221  31.612  13.508  1.00  0.00     0.119 C
ENDROOT
BRANCH   9  18
HETATM   18  C13 UNL     1      22.464  33.190  16.041  1.00  0.00     0.125 C
BRANCH  18  19
HETATM   19  C14 UNL     1      22.887  34.503  15.569  1.00  0.00     0.040 C
BRANCH  19  20
HETATM   20  C15 UNL     1      21.706  35.538  15.665  1.00  0.00     0.128 C
BRANCH  20  21
HETATM   21  N3  UNL     1      21.829  36.136  16.949  1.00  0.00    -0.373 N
BRANCH  21  22
HETATM   22  C16 UNL     1      21.060  35.689  18.013  1.00  0.00     0.067 C
BRANCH  22  23
HETATM   23  C17 UNL     1      19.558  35.804  17.907  1.00  0.00     0.016 C
HETATM   24  C18 UNL     1      19.229  37.287  17.751  1.00  0.00     0.015 C
HETATM   25  C19 UNL     1      18.736  35.259  18.997  1.00  0.00     0.015 C
ENDBRANCH  22  23
ENDBRANCH  21  22
BRANCH  21  26
HETATM   26  C20 UNL     1      22.959  36.950  17.120  1.00  0.00     0.067 C
BRANCH  26  27
HETATM   27  C21 UNL     1      22.837  38.221  17.876  1.00  0.00     0.016 C
HETATM   28  C22 UNL     1      22.245  39.340  17.002  1.00  0.00     0.015 C
HETATM   29  C23 UNL     1      24.217  38.783  18.253  1.00  0.00     0.015 C
ENDBRANCH  26  27
ENDBRANCH  21  26
ENDBRANCH  20  21
ENDBRANCH  19  20
ENDBRANCH  18  19
ENDBRANCH   9  18
BRANCH  17  30
HETATM   30  O3  UNL     1      19.930  32.325  12.316  1.00  0.00    -0.382 OA
ATOM     31  H3  UNL     1      20.775  32.605  11.986  1.00  0.00     0.211 HD
ENDBRANCH  17  30
BRANCH   1  32
HETATM   32  C4  UNL     1      17.318  33.163  16.432  1.00  0.00     0.119 C
BRANCH  32  33
HETATM   33  C3  UNL     1      16.172  34.116  16.230  1.00  0.00     0.045 C
BRANCH  33  34
HETATM   34  C2  UNL     1      15.216  34.035  17.423  1.00  0.00     0.168 C
BRANCH  34  35
HETATM   35  O1  UNL     1      15.379  35.178  18.226  1.00  0.00    -0.396 OA
HETATM   36  C1  UNL     1      15.606  36.264  17.414  1.00  0.00     0.201 C
ENDBRANCH  34  35
ENDBRANCH  33  34
ENDBRANCH  32  33
ENDBRANCH   1  32
BRANCH   4  37
HETATM   37  C8  UNL     1      18.795  29.702  12.760  1.00  0.00     0.177 C
BRANCH  37  38
HETATM   38  O2  UNL     1      17.849  30.128  11.777  1.00  0.00    -0.400 OA
ATOM     39  H2  UNL     1      17.629  29.396  11.214  1.00  0.00     0.209 HD
ENDBRANCH  37  38
ENDBRANCH   4  37
TORSDOF 15
ENDMDL