MODEL 1
REMARK VINA RESULT: -8.857922484      0.000      0.000
REMARK  16 active torsions:
REMARK  status: ('A' for Active; 'I' for Inactive)
REMARK    1  A    between atoms: C2_2  and  C3_3
REMARK    2  A    between atoms: C3_3  and  C5_5
REMARK    3  A    between atoms: C5_5  and  C6_6
REMARK    4  A    between atoms: C6_6  and  N1_7
REMARK    5  A    between atoms: C6_6  and  C12_16
REMARK       I    between atoms: N1_7  and  C7_9
REMARK    6  A    between atoms: C7_9  and  O2_11
REMARK    7  A    between atoms: O2_11  and  C8_12
REMARK       I    between atoms: C12_16  and  N2_18
REMARK    8  A    between atoms: C15_21  and  N3_22
REMARK       I    between atoms: N3_22  and  C16_24
REMARK    9  A    between atoms: C16_24  and  C17_26
REMARK   10  A    between atoms: C17_26  and  C18_27
REMARK   11  A    between atoms: C18_27  and  S1_28
REMARK   12  A    between atoms: S1_28  and  S2_29
REMARK   13  A    between atoms: S2_29  and  C19_30
REMARK   14  A    between atoms: C19_30  and  C20_31
REMARK   15  A    between atoms: C20_31  and  N4_32
REMARK   16  A    between atoms: C20_31  and  C21_36
ROOT
HETATM    1  C12 UNL     1      20.848  29.126  11.910  1.00  0.00     0.242 C
HETATM    2  O3  UNL     1      21.623  29.657  11.032  1.00  0.00    -0.271 OA
HETATM    3  N2  UNL     1      19.938  29.985  12.543  1.00  0.00    -0.350 N
HETATM    4  C13 UNL     1      18.982  29.546  13.523  1.00  0.00     0.128 C
HETATM    5  C14 UNL     1      17.794  30.486  13.614  1.00  0.00     0.045 C
HETATM    6  C15 UNL     1      18.131  31.928  13.675  1.00  0.00     0.087 C
HETATM    7  C26 UNL     1      19.553  32.275  13.318  1.00  0.00     0.045 C
HETATM    8  C27 UNL     1      19.994  31.409  12.166  1.00  0.00     0.128 C
ENDROOT
BRANCH   6   9
HETATM    9  N3  UNL     1      17.752  32.450  14.969  1.00  0.00    -0.356 N
HETATM   10  C16 UNL     1      17.174  33.715  15.197  1.00  0.00     0.227 C
HETATM   11  O4  UNL     1      16.937  34.519  14.261  1.00  0.00    -0.273 OA
ATOM     12  H3  UNL     1      17.914  31.855  15.781  1.00  0.00     0.162 HD
BRANCH  10  13
HETATM   13  C17 UNL     1      16.804  34.182  16.570  1.00  0.00     0.050 C
HETATM   14  C22 UNL     1      15.480  33.711  17.041  1.00  0.00     0.020 C
HETATM   15  C23 UNL     1      14.554  34.869  17.213  1.00  0.00     0.001 C
HETATM   16  C24 UNL     1      15.531  36.030  17.419  1.00  0.00     0.001 C
HETATM   17  C25 UNL     1      16.559  35.707  16.367  1.00  0.00     0.020 C
BRANCH  13  18
HETATM   18  C18 UNL     1      17.920  34.101  17.533  1.00  0.00     0.105 C
BRANCH  18  19
HETATM   19  S1  UNL     1      19.318  35.152  17.340  1.00  0.00    -0.096 SA
BRANCH  19  20
HETATM   20  S2  UNL     1      20.850  34.227  16.236  1.00  0.00    -0.095 SA
BRANCH  20  21
HETATM   21  C19 UNL     1      22.140  33.686  17.360  1.00  0.00     0.130 C
BRANCH  21  22
HETATM   22  C20 UNL     1      22.459  32.217  17.008  1.00  0.00     0.293 C
BRANCH  22  23
HETATM   23  N4  UNL     1      21.263  31.426  16.977  1.00  0.00    -0.064 N
ATOM     24  H43 UNL     1      20.864  31.309  17.909  1.00  0.00     0.275 HD
ATOM     25  H42 UNL     1      20.491  31.928  16.540  1.00  0.00     0.275 HD
ATOM     26  H41 UNL     1      21.433  30.527  16.526  1.00  0.00     0.275 HD
ENDBRANCH  22  23
BRANCH  22  27
HETATM   27  C21 UNL     1      23.174  32.179  15.700  1.00  0.00     0.205 C
HETATM   28  O5  UNL     1      24.199  32.839  15.451  1.00  0.00    -0.646 OA
HETATM   29  O6  UNL     1      22.659  31.359  14.711  1.00  0.00    -0.646 OA
ENDBRANCH  22  27
ENDBRANCH  21  22
ENDBRANCH  20  21
ENDBRANCH  19  20
ENDBRANCH  18  19
ENDBRANCH  13  18
ENDBRANCH  10  13
ENDBRANCH   6   9
BRANCH   1  30
HETATM   30  C6  UNL     1      21.033  27.679  12.121  1.00  0.00     0.179 C
BRANCH  30  31
HETATM   31  C5  UNL     1      22.407  27.238  12.452  1.00  0.00     0.039 C
BRANCH  31  32
HETATM   32  C3  UNL     1      23.343  26.828  11.395  1.00  0.00    -0.017 C
HETATM   33  C4  UNL     1      23.364  25.428  10.932  1.00  0.00     0.010 C
BRANCH  32  34
HETATM   34  C2  UNL     1      24.770  27.225  11.778  1.00  0.00    -0.000 C
HETATM   35  C1  UNL     1      25.814  26.609  10.920  1.00  0.00     0.005 C
ENDBRANCH  32  34
ENDBRANCH  31  32
ENDBRANCH  30  31
BRANCH  30  36
HETATM   36  N1  UNL     1      20.456  26.975  10.988  1.00  0.00    -0.324 N
HETATM   37  C7  UNL     1      19.229  26.252  11.096  1.00  0.00     0.362 C
HETATM   38  O1  UNL     1      18.592  26.197  12.194  1.00  0.00    -0.238 OA
ATOM     39  H1  UNL     1      20.941  26.997  10.091  1.00  0.00     0.165 HD
BRANCH  37  40
HETATM   40  O2  UNL     1      18.683  25.586  10.021  1.00  0.00    -0.294 OA
BRANCH  40  41
HETATM   41  C8  UNL     1      18.121  26.232   8.892  1.00  0.00     0.061 C
HETATM   42  C9  UNL     1      17.911  27.699   9.092  1.00  0.00     0.046 C
HETATM   43  C10 UNL     1      16.763  25.583   8.647  1.00  0.00     0.046 C
HETATM   44  C11 UNL     1      18.966  25.885   7.691  1.00  0.00     0.046 C
ENDBRANCH  40  41
ENDBRANCH  37  40
ENDBRANCH  30  36
ENDBRANCH   1  30
TORSDOF 16
ENDMDL