MODEL 2
REMARK VINA RESULT: -6.747477603      0.863      1.616
REMARK  16 active torsions:
REMARK  status: ('A' for Active; 'I' for Inactive)
REMARK    1  A    between atoms: C2_2  and  C3_3
REMARK    2  A    between atoms: C3_3  and  C4_4
REMARK    3  A    between atoms: C4_4  and  C5_5
REMARK    4  A    between atoms: C5_5  and  C6_6
REMARK    5  A    between atoms: C6_6  and  N1_7
REMARK       I    between atoms: N1_7  and  C7_9
REMARK    6  A    between atoms: C7_9  and  C8_11
REMARK    7  A    between atoms: C8_11  and  C9_12
REMARK    8  A    between atoms: C9_12  and  C10_13
REMARK    9  A    between atoms: C13_16  and  O2_17
REMARK   10  A    between atoms: O2_17  and  C14_18
REMARK   11  A    between atoms: C17_22  and  O4_23
REMARK   12  A    between atoms: C19_26  and  C20_27
REMARK   13  A    between atoms: C19_26  and  C23_32
REMARK   14  A    between atoms: C20_27  and  O5_28
REMARK   15  A    between atoms: O5_28  and  C21_29
REMARK   16  A    between atoms: C32_41  and  O7_42
ROOT
HETATM    1  C10 UNL     1      20.696  37.398  17.631  1.00  0.00     0.053 C
HETATM    2  C11 UNL     1      21.799  38.435  17.274  1.00  0.00     0.009 C
HETATM    3  C12 UNL     1      22.901  38.188  18.204  1.00  0.00     0.039 C
HETATM    4  C13 UNL     1      23.864  39.342  18.427  1.00  0.00     0.139 C
HETATM    5  C16 UNL     1      23.667  40.196  17.221  1.00  0.00     0.050 C
HETATM    6  C17 UNL     1      24.647  41.250  16.965  1.00  0.00     0.126 C
HETATM    7  C18 UNL     1      23.782  42.464  16.635  1.00  0.00     0.044 C
HETATM    8  C19 UNL     1      22.477  41.793  16.059  1.00  0.00    -0.008 C
HETATM    9  C26 UNL     1      22.270  40.857  17.158  1.00  0.00     0.017 C
HETATM   10  C27 UNL     1      21.193  39.853  17.260  1.00  0.00    -0.004 C
HETATM   11  C28 UNL     1      20.165  39.882  16.138  1.00  0.00     0.019 C
HETATM   12  C29 UNL     1      20.338  39.828  18.503  1.00  0.00     0.074 C
HETATM   13  C30 UNL     1      20.057  41.097  19.242  1.00  0.00     0.047 C
HETATM   14  C31 UNL     1      19.074  39.046  18.336  1.00  0.00     0.107 C
HETATM   15  C32 UNL     1      20.000  37.920  18.816  1.00  0.00     0.169 C
HETATM   16  O8  UNL     1      20.700  38.891  19.454  1.00  0.00    -0.343 OA
ENDROOT
BRANCH   1  17
HETATM   17  C9  UNL     1      21.284  36.047  17.707  1.00  0.00     0.019 C
BRANCH  17  18
HETATM   18  C8  UNL     1      20.639  34.976  16.882  1.00  0.00     0.103 C
BRANCH  18  19
HETATM   19  C7  UNL     1      19.176  34.866  17.183  1.00  0.00     0.217 C
HETATM   20  N1  UNL     1      18.233  35.080  16.150  1.00  0.00    -0.361 N
ATOM     21  H1  UNL     1      18.593  35.302  15.222  1.00  0.00     0.162 HD
HETATM   22  O1  UNL     1      18.817  34.589  18.330  1.00  0.00    -0.274 OA
BRANCH  20  23
HETATM   23  C6  UNL     1      16.817  35.008  16.307  1.00  0.00     0.122 C
BRANCH  23  24
HETATM   24  C5  UNL     1      16.231  34.155  15.207  1.00  0.00     0.020 C
BRANCH  24  25
HETATM   25  C4  UNL     1      15.837  32.812  15.828  1.00  0.00     0.002 C
BRANCH  25  26
HETATM   26  C3  UNL     1      16.938  31.814  15.515  1.00  0.00    -0.000 C
BRANCH  26  27
HETATM   27  C2  UNL     1      17.524  32.038  14.156  1.00  0.00    -0.005 C
HETATM   28  C1  UNL     1      17.782  30.785  13.380  1.00  0.00     0.005 C
ENDBRANCH  26  27
ENDBRANCH  25  26
ENDBRANCH  24  25
ENDBRANCH  23  24
ENDBRANCH  20  23
ENDBRANCH  18  19
ENDBRANCH  17  18
ENDBRANCH   1  17
BRANCH  15  29
HETATM   29  O7  UNL     1      19.394  37.081  19.728  1.00  0.00    -0.365 OA
ATOM     30  H7  UNL     1      19.742  36.961  20.604  1.00  0.00     0.213 HD
ENDBRANCH  15  29
BRANCH   4  31
HETATM   31  O2  UNL     1      23.799  39.931  19.665  1.00  0.00    -0.316 OA
BRANCH  31  32
HETATM   32  C14 UNL     1      24.461  39.423  20.764  1.00  0.00     0.255 C
HETATM   33  C15 UNL     1      25.951  39.350  20.759  1.00  0.00     0.126 C
HETATM   34  O3  UNL     1      23.884  39.001  21.806  1.00  0.00    -0.266 OA
ENDBRANCH  31  32
ENDBRANCH   4  31
BRANCH   8  35
HETATM   35  C20 UNL     1      23.037  41.236  14.758  1.00  0.00     0.189 C
BRANCH  35  36
HETATM   36  O5  UNL     1      22.029  40.749  13.882  1.00  0.00    -0.321 OA
BRANCH  36  37
HETATM   37  C21 UNL     1      22.274  40.242  12.641  1.00  0.00     0.254 C
HETATM   38  C22 UNL     1      23.208  40.869  11.663  1.00  0.00     0.126 C
HETATM   39  O6  UNL     1      21.688  39.187  12.285  1.00  0.00    -0.266 OA
ENDBRANCH  36  37
ENDBRANCH  35  36
ENDBRANCH   8  35
BRANCH   8  40
HETATM   40  C23 UNL     1      21.589  42.961  15.854  1.00  0.00    -0.012 C
HETATM   41  C24 UNL     1      21.276  43.792  17.078  1.00  0.00     0.010 C
HETATM   42  C25 UNL     1      22.046  43.990  14.833  1.00  0.00     0.010 C
ENDBRANCH   8  40
BRANCH   6  43
HETATM   43  O4  UNL     1      25.476  41.519  18.054  1.00  0.00    -0.395 OA
ATOM     44  H4  UNL     1      25.214  41.074  18.851  1.00  0.00     0.210 HD
ENDBRANCH   6  43
TORSDOF 16
ENDMDL