MODEL 3
REMARK VINA RESULT: -7.868901511      2.996     10.389
REMARK  17 active torsions:
REMARK  status: ('A' for Active; 'I' for Inactive)
REMARK    1  A    between atoms: C2_2  and  C3_3
REMARK    2  A    between atoms: C6_6  and  O1_7
REMARK    3  A    between atoms: C7_9  and  C8_10
REMARK    4  A    between atoms: C8_10  and  C9_12
REMARK    5  A    between atoms: C9_12  and  N1_13
REMARK    6  A    between atoms: C9_12  and  C12_20
REMARK    7  A    between atoms: N1_13  and  C10_16
REMARK    8  A    between atoms: C10_16  and  C11_17
REMARK    9  A    between atoms: C18_27  and  O6_28
REMARK   10  A    between atoms: C18_27  and  C19_30
REMARK   11  A    between atoms: C19_30  and  O8_32
REMARK   12  A    between atoms: O8_32  and  C20_33
REMARK   13  A    between atoms: C24_37  and  C25_38
REMARK   14  A    between atoms: C25_38  and  C27_40
REMARK   15  A    between atoms: C27_40  and  C28_41
REMARK   16  A    between atoms: C28_41  and  C29_42
REMARK   17  A    between atoms: C29_42  and  C30_43
ROOT
HETATM    1  C3  UNL     1      19.086  28.752  12.212  1.00  0.00     0.019 C
HETATM    2  C4  UNL     1      19.137  28.587  10.727  1.00  0.00     0.023 C
HETATM    3  C5  UNL     1      18.002  29.750  12.536  1.00  0.00     0.050 C
HETATM    4  C6  UNL     1      18.061  30.169  13.992  1.00  0.00     0.140 C
HETATM    5  C7  UNL     1      19.310  30.979  14.161  1.00  0.00     0.104 C
HETATM    6  C15 UNL     1      19.425  32.123  13.162  1.00  0.00     0.192 C
HETATM    7  O5  UNL     1      20.328  31.398  12.419  1.00  0.00    -0.374 OA
HETATM    8  C16 UNL     1      20.490  30.451  13.459  1.00  0.00     0.118 C
HETATM    9  C17 UNL     1      21.855  30.661  14.063  1.00  0.00     0.051 C
HETATM   10  C18 UNL     1      20.395  29.083  12.857  1.00  0.00     0.188 C
ENDROOT
BRANCH  10  11
HETATM   11  O6  UNL     1      20.704  28.157  13.870  1.00  0.00    -0.376 OA
ATOM     12  H6  UNL     1      20.508  28.516  14.728  1.00  0.00     0.211 HD
ENDBRANCH  10  11
BRANCH  10  13
HETATM   13  C19 UNL     1      21.495  28.990  11.852  1.00  0.00     0.298 C
HETATM   14  O7  UNL     1      21.655  29.863  10.943  1.00  0.00    -0.262 OA
BRANCH  13  15
HETATM   15  O8  UNL     1      22.407  27.931  11.867  1.00  0.00    -0.312 OA
BRANCH  15  16
HETATM   16  C20 UNL     1      23.348  27.714  10.873  1.00  0.00     0.143 C
HETATM   17  C21 UNL     1      24.764  27.736  11.421  1.00  0.00     0.060 C
HETATM   18  C22 UNL     1      25.038  26.315  11.671  1.00  0.00    -0.028 C
HETATM   19  C23 UNL     1      24.204  25.539  11.014  1.00  0.00    -0.023 C
HETATM   20  C24 UNL     1      23.247  26.386  10.224  1.00  0.00     0.041 C
BRANCH  20  21
HETATM   21  C25 UNL     1      21.902  25.741  10.156  1.00  0.00    -0.009 C
HETATM   22  C26 UNL     1      21.429  25.032  11.359  1.00  0.00     0.011 C
BRANCH  21  23
HETATM   23  C27 UNL     1      21.882  24.877   8.890  1.00  0.00     0.005 C
BRANCH  23  24
HETATM   24  C28 UNL     1      20.836  25.287   7.935  1.00  0.00     0.001 C
BRANCH  24  25
HETATM   25  C29 UNL     1      19.576  25.725   8.573  1.00  0.00     0.008 C
BRANCH  25  26
HETATM   26  C30 UNL     1      18.333  25.824   7.789  1.00  0.00    -0.051 C
HETATM   27  C31 UNL     1      18.271  27.317   7.325  1.00  0.00     0.014 C
HETATM   28  C32 UNL     1      17.090  25.604   8.590  1.00  0.00     0.014 C
HETATM   29  C33 UNL     1      18.246  25.019   6.528  1.00  0.00     0.014 C
ENDBRANCH  25  26
ENDBRANCH  24  25
ENDBRANCH  23  24
ENDBRANCH  21  23
ENDBRANCH  20  21
ENDBRANCH  15  16
ENDBRANCH  13  15
ENDBRANCH  10  13
BRANCH   1  30
HETATM   30  C2  UNL     1      18.609  27.453  12.787  1.00  0.00    -0.024 C
HETATM   31  C1  UNL     1      18.194  26.492  11.988  1.00  0.00     0.008 C
ENDBRANCH   1  30
BRANCH   5  32
HETATM   32  C8  UNL     1      19.457  31.523  15.513  1.00  0.00     0.174 C
HETATM   33  O2  UNL     1      19.704  30.772  16.435  1.00  0.00    -0.295 OA
BRANCH  32  34
HETATM   34  C9  UNL     1      19.320  32.965  15.796  1.00  0.00     0.259 C
BRANCH  34  35
HETATM   35  N1  UNL     1      20.285  33.407  16.802  1.00  0.00    -0.054 N
ATOM     36  H12 UNL     1      19.839  34.034  17.472  1.00  0.00     0.278 HD
ATOM     37  H11 UNL     1      20.532  32.636  17.422  1.00  0.00     0.278 HD
BRANCH  35  38
HETATM   38  C10 UNL     1      21.459  34.009  16.264  1.00  0.00     0.345 C
BRANCH  38  39
HETATM   39  C11 UNL     1      22.615  33.136  16.627  1.00  0.00     0.199 C
HETATM   40  O3  UNL     1      22.567  32.378  17.642  1.00  0.00    -0.647 OA
HETATM   41  O4  UNL     1      23.790  33.100  15.886  1.00  0.00    -0.647 OA
ENDBRANCH  38  39
ENDBRANCH  35  38
ENDBRANCH  34  35
BRANCH  34  42
HETATM   42  C12 UNL     1      17.963  33.327  16.414  1.00  0.00     0.015 C
HETATM   43  C13 UNL     1      17.165  34.012  15.296  1.00  0.00     0.012 C
HETATM   44  C14 UNL     1      18.139  34.325  17.531  1.00  0.00     0.012 C
ENDBRANCH  34  42
ENDBRANCH  32  34
ENDBRANCH   5  32
BRANCH   4  45
HETATM   45  O1  UNL     1      18.062  29.091  14.842  1.00  0.00    -0.394 OA
ATOM     46  H1  UNL     1      17.198  28.703  14.931  1.00  0.00     0.210 HD
ENDBRANCH   4  45
TORSDOF 17
ENDMDL