MODEL 4
REMARK VINA RESULT: -9.105611413      3.137      6.299
REMARK  13 active torsions:
REMARK  status: ('A' for Active; 'I' for Inactive)
REMARK    1  A    between atoms: C5_6  and  O1_7
REMARK    2  A    between atoms: O1_7  and  C6_8
REMARK    3  A    between atoms: C6_8  and  C7_9
REMARK    4  A    between atoms: C7_9  and  C8_10
REMARK    5  A    between atoms: C8_10  and  C9_11
REMARK    6  A    between atoms: C9_11  and  C10_12
REMARK    7  A    between atoms: C10_12  and  C11_13
REMARK    8  A    between atoms: C11_13  and  C12_14
REMARK    9  A    between atoms: C12_14  and  N2_15
REMARK   10  A    between atoms: C24_34  and  C25_35
REMARK   11  A    between atoms: C25_35  and  N5_36
REMARK       I    between atoms: N5_36  and  C26_38
REMARK   12  A    between atoms: C26_38  and  C27_40
REMARK   13  A    between atoms: C32_45  and  O4_46
ROOT
HETATM    1  N1  UNL     1      18.496  25.619  10.667  1.00  0.00    -0.191 NA
HETATM    2  C1  UNL     1      18.569  26.675  11.118  1.00  0.00     0.099 C
HETATM    3  C2  UNL     1      18.639  27.985  11.673  1.00  0.00     0.045 A
HETATM    4  C3  UNL     1      17.532  28.555  12.254  1.00  0.00     0.025 A
HETATM    5  C4  UNL     1      17.568  29.811  12.797  1.00  0.00     0.039 A
HETATM    6  C5  UNL     1      18.763  30.541  12.763  1.00  0.00     0.076 A
HETATM    7  C24 UNL     1      19.908  29.951  12.163  1.00  0.00    -0.006 A
HETATM    8  C33 UNL     1      19.845  28.698  11.630  1.00  0.00     0.034 A
ENDROOT
BRANCH   7   9
HETATM    9  C25 UNL     1      21.141  30.745  12.189  1.00  0.00     0.164 C
BRANCH   9  10
HETATM   10  N5  UNL     1      21.851  30.743  13.435  1.00  0.00    -0.356 N
HETATM   11  C26 UNL     1      22.316  31.951  14.069  1.00  0.00     0.224 C
HETATM   12  O3  UNL     1      22.064  33.015  13.481  1.00  0.00    -0.273 OA
ATOM     13  H5  UNL     1      22.033  29.850  13.892  1.00  0.00     0.162 HD
BRANCH  11  14
HETATM   14  C27 UNL     1      23.051  31.900  15.343  1.00  0.00     0.106 C
HETATM   15  C28 UNL     1      23.625  33.261  15.715  1.00  0.00     0.017 C
HETATM   16  C29 UNL     1      22.594  34.142  16.384  1.00  0.00     0.001 C
HETATM   17  C30 UNL     1      22.037  33.497  17.621  1.00  0.00     0.002 C
HETATM   18  C31 UNL     1      22.519  32.070  17.780  1.00  0.00     0.032 C
HETATM   19  C32 UNL     1      22.340  31.287  16.491  1.00  0.00     0.131 C
BRANCH  19  20
HETATM   20  O4  UNL     1      21.010  31.082  16.195  1.00  0.00    -0.395 OA
ATOM     21  H4  UNL     1      20.469  31.200  16.966  1.00  0.00     0.210 HD
ENDBRANCH  19  20
ENDBRANCH  11  14
ENDBRANCH   9  10
ENDBRANCH   7   9
BRANCH   6  22
HETATM   22  O1  UNL     1      18.921  31.750  13.249  1.00  0.00    -0.350 OA
BRANCH  22  23
HETATM   23  C6  UNL     1      18.609  32.915  13.722  1.00  0.00     0.179 C
BRANCH  23  24
HETATM   24  C7  UNL     1      18.553  33.172  15.216  1.00  0.00     0.054 C
BRANCH  24  25
HETATM   25  C8  UNL     1      17.592  32.420  15.999  1.00  0.00    -0.025 C
BRANCH  25  26
HETATM   26  C9  UNL     1      16.152  32.591  15.967  1.00  0.00    -0.004 C
BRANCH  26  27
HETATM   27  C10 UNL     1      15.372  33.796  15.974  1.00  0.00    -0.003 C
BRANCH  27  28
HETATM   28  C11 UNL     1      14.918  34.612  17.078  1.00  0.00     0.003 C
BRANCH  28  29
HETATM   29  C12 UNL     1      15.771  35.101  18.175  1.00  0.00     0.300 C
BRANCH  29  30
HETATM   30  N2  UNL     1      16.988  35.719  17.705  1.00  0.00     0.093 N
HETATM   31  C13 UNL     1      18.005  35.755  18.742  1.00  0.00     0.273 C
HETATM   32  C14 UNL     1      19.410  35.716  18.141  1.00  0.00     0.032 C
HETATM   33  C15 UNL     1      20.181  36.983  18.464  1.00  0.00     0.029 C
HETATM   34  C16 UNL     1      20.832  37.543  17.220  1.00  0.00     0.232 C
HETATM   35  N3  UNL     1      20.880  38.990  17.308  1.00  0.00    -0.075 N
HETATM   36  C17 UNL     1      20.552  39.603  16.020  1.00  0.00     0.233 C
ATOM     37  H32 UNL     1      20.283  39.342  18.056  1.00  0.00     0.277 HD
ATOM     38  H31 UNL     1      21.780  39.316  17.661  1.00  0.00     0.277 HD
HETATM   39  C18 UNL     1      20.199  41.048  16.159  1.00  0.00     0.055 C
HETATM   40  C19 UNL     1      19.371  41.364  17.357  1.00  0.00     0.234 C
HETATM   41  N4  UNL     1      18.078  41.948  17.026  1.00  0.00    -0.073 N
HETATM   42  C20 UNL     1      17.156  40.971  16.482  1.00  0.00     0.258 C
ATOM     43  H42 UNL     1      17.674  42.428  17.830  1.00  0.00     0.277 HD
ATOM     44  H41 UNL     1      18.184  42.744  16.397  1.00  0.00     0.277 HD
HETATM   45  C21 UNL     1      16.300  40.321  17.545  1.00  0.00     0.195 C
HETATM   46  O2  UNL     1      16.986  39.233  18.074  1.00  0.00    -0.388 OA
HETATM   47  C22 UNL     1      16.247  38.056  18.058  1.00  0.00     0.198 C
HETATM   48  C23 UNL     1      16.776  37.027  17.126  1.00  0.00     0.298 C
ENDBRANCH  29  30
ENDBRANCH  28  29
ENDBRANCH  27  28
ENDBRANCH  26  27
ENDBRANCH  25  26
ENDBRANCH  24  25
ENDBRANCH  23  24
ENDBRANCH  22  23
ENDBRANCH   6  22
TORSDOF 13
ENDMDL