MODEL 1
REMARK VINA RESULT: -6.469691929      0.000      0.000
REMARK  16 active torsions:
REMARK  status: ('A' for Active; 'I' for Inactive)
REMARK    1  A    between atoms: C2_2  and  C3_3
REMARK    2  A    between atoms: C3_3  and  C4_4
REMARK    3  A    between atoms: C4_4  and  C5_5
REMARK    4  A    between atoms: C10_10  and  O1_12
REMARK    5  A    between atoms: C12_14  and  O2_15
REMARK    6  A    between atoms: O2_15  and  C13_16
REMARK    7  A    between atoms: C15_19  and  C16_20
REMARK       I    between atoms: C16_20  and  N1_22
REMARK    8  A    between atoms: N1_22  and  C17_24
REMARK    9  A    between atoms: C17_24  and  C18_25
REMARK   10  A    between atoms: C18_25  and  C19_26
REMARK   11  A    between atoms: C19_26  and  C20_27
REMARK   12  A    between atoms: C20_27  and  C21_28
REMARK   13  A    between atoms: C21_28  and  C22_29
REMARK   14  A    between atoms: C22_29  and  N2_30
REMARK       I    between atoms: N2_30  and  C23_32
REMARK   15  A    between atoms: C28_39  and  C29_40
REMARK   16  A    between atoms: C29_40  and  O7_42
ROOT
HETATM    1  C5  UNL     1      20.074  35.454  17.449  1.00  0.00     0.061 C
HETATM    2  C6  UNL     1      19.917  35.012  18.915  1.00  0.00     0.046 C
HETATM    3  C7  UNL     1      21.566  35.657  17.242  1.00  0.00     0.038 C
HETATM    4  C8  UNL     1      22.283  34.353  17.443  1.00  0.00     0.006 C
HETATM    5  C9  UNL     1      22.678  33.731  16.103  1.00  0.00     0.040 C
HETATM    6  C10 UNL     1      22.247  32.297  15.997  1.00  0.00     0.084 C
HETATM    7  C11 UNL     1      23.313  31.560  15.211  1.00  0.00     0.049 C
HETATM    8  C12 UNL     1      20.938  32.115  15.308  1.00  0.00     0.204 C
HETATM    9  C15 UNL     1      19.761  31.940  16.281  1.00  0.00     0.249 C
HETATM   10  O6  UNL     1      18.677  32.655  15.959  1.00  0.00    -0.338 OA
HETATM   11  C25 UNL     1      18.512  33.938  16.458  1.00  0.00     0.166 C
HETATM   12  C26 UNL     1      17.566  34.557  15.395  1.00  0.00     0.069 C
HETATM   13  C27 UNL     1      16.392  33.620  15.504  1.00  0.00     0.013 C
HETATM   14  C28 UNL     1      16.274  33.377  16.968  1.00  0.00     0.019 C
HETATM   15  C31 UNL     1      17.566  33.843  17.610  1.00  0.00     0.075 C
HETATM   16  O8  UNL     1      19.662  34.570  16.565  1.00  0.00    -0.344 OA
ENDROOT
BRANCH   9  17
HETATM   17  C16 UNL     1      19.408  30.468  16.250  1.00  0.00     0.249 C
HETATM   18  O4  UNL     1      19.572  29.831  17.332  1.00  0.00    -0.271 OA
HETATM   19  N1  UNL     1      18.929  29.784  15.131  1.00  0.00    -0.359 N
ATOM     20  H1  UNL     1      18.790  30.295  14.259  1.00  0.00     0.162 HD
BRANCH  19  21
HETATM   21  C17 UNL     1      18.627  28.391  15.173  1.00  0.00     0.122 C
BRANCH  21  22
HETATM   22  C18 UNL     1      17.972  27.854  13.932  1.00  0.00     0.020 C
BRANCH  22  23
HETATM   23  C19 UNL     1      17.929  29.004  12.938  1.00  0.00     0.002 C
BRANCH  23  24
HETATM   24  C20 UNL     1      18.199  28.561  11.518  1.00  0.00     0.002 C
BRANCH  24  25
HETATM   25  C21 UNL     1      18.635  27.132  11.579  1.00  0.00     0.020 C
BRANCH  25  26
HETATM   26  C22 UNL     1      20.022  26.873  11.108  1.00  0.00     0.122 C
BRANCH  26  27
HETATM   27  N2  UNL     1      20.953  27.100  12.188  1.00  0.00    -0.361 N
HETATM   28  C23 UNL     1      21.873  28.175  12.093  1.00  0.00     0.213 C
HETATM   29  C24 UNL     1      22.827  28.404  13.206  1.00  0.00     0.117 C
HETATM   30  O5  UNL     1      21.860  28.906  11.075  1.00  0.00    -0.274 OA
ATOM     31  H2  UNL     1      20.950  26.494  13.009  1.00  0.00     0.162 HD
ENDBRANCH  26  27
ENDBRANCH  25  26
ENDBRANCH  24  25
ENDBRANCH  23  24
ENDBRANCH  22  23
ENDBRANCH  21  22
ENDBRANCH  19  21
ENDBRANCH   9  17
BRANCH   8  32
HETATM   32  O2  UNL     1      20.665  33.116  14.340  1.00  0.00    -0.310 OA
BRANCH  32  33
HETATM   33  C13 UNL     1      20.011  32.898  13.147  1.00  0.00     0.255 C
HETATM   34  C14 UNL     1      20.335  31.799  12.208  1.00  0.00     0.126 C
HETATM   35  O3  UNL     1      19.081  33.682  12.834  1.00  0.00    -0.266 OA
ENDBRANCH  32  33
ENDBRANCH   8  32
BRANCH   6  36
HETATM   36  O1  UNL     1      22.166  31.709  17.269  1.00  0.00    -0.387 OA
ATOM     37  H1  UNL     1      21.260  31.552  17.509  1.00  0.00     0.210 HD
ENDBRANCH   6  36
BRANCH  14  38
HETATM   38  C29 UNL     1      15.052  34.028  17.575  1.00  0.00     0.118 C
HETATM   39  C30 UNL     1      14.516  35.181  16.796  1.00  0.00     0.040 C
BRANCH  38  40
HETATM   40  O7  UNL     1      15.297  34.400  18.876  1.00  0.00    -0.396 OA
ATOM     41  H7  UNL     1      14.530  34.813  19.257  1.00  0.00     0.210 HD
ENDBRANCH  38  40
ENDBRANCH  14  38
BRANCH   1  42
HETATM   42  C4  UNL     1      19.512  36.858  17.435  1.00  0.00     0.041 C
BRANCH  42  43
HETATM   43  C3  UNL     1      18.701  37.270  18.596  1.00  0.00     0.029 C
BRANCH  43  44
HETATM   44  C2  UNL     1      17.272  37.424  18.227  1.00  0.00    -0.037 C
HETATM   45  C1  UNL     1      16.962  37.902  17.038  1.00  0.00     0.007 C
ENDBRANCH  43  44
ENDBRANCH  42  43
ENDBRANCH   1  42
TORSDOF 16
ENDMDL