MODEL 3
REMARK VINA RESULT: -7.861410548      2.308      3.413
REMARK  14 active torsions:
REMARK  status: ('A' for Active; 'I' for Inactive)
REMARK    1  A    between atoms: C2_2  and  C4_4
REMARK    2  A    between atoms: C6_6  and  O1_7
REMARK    3  A    between atoms: O1_7  and  C7_8
REMARK    4  A    between atoms: C7_8  and  C8_9
REMARK    5  A    between atoms: C8_9  and  C9_10
REMARK    6  A    between atoms: C9_10  and  O2_11
REMARK    7  A    between atoms: O2_11  and  C10_12
REMARK    8  A    between atoms: C12_17  and  O3_18
REMARK    9  A    between atoms: C23_31  and  C25_33
REMARK   10  A    between atoms: C25_33  and  O5_34
REMARK   11  A    between atoms: O5_34  and  C26_35
REMARK   12  A    between atoms: C26_35  and  C27_37
REMARK   13  A    between atoms: C27_37  and  C28_38
REMARK   14  A    between atoms: C28_38  and  C29_39
ROOT
HETATM    1  C4  UNL     1      17.587  35.006  18.204  1.00  0.00     0.025 C
HETATM    2  C5  UNL     1      16.769  36.277  18.166  1.00  0.00     0.042 C
HETATM    3  C6  UNL     1      16.386  36.527  16.688  1.00  0.00     0.127 C
HETATM    4  C13 UNL     1      17.215  35.493  15.962  1.00  0.00     0.024 C
HETATM    5  C14 UNL     1      16.617  34.979  14.701  1.00  0.00     0.008 C
HETATM    6  C15 UNL     1      17.336  33.791  14.180  1.00  0.00     0.006 C
HETATM    7  C16 UNL     1      18.571  33.421  14.988  1.00  0.00    -0.000 C
HETATM    8  C17 UNL     1      18.299  33.346  16.452  1.00  0.00    -0.001 C
HETATM    9  C18 UNL     1      17.968  31.979  16.978  1.00  0.00     0.006 C
HETATM   10  C19 UNL     1      17.843  30.944  15.889  1.00  0.00     0.006 C
HETATM   11  C20 UNL     1      19.017  30.940  14.959  1.00  0.00    -0.005 C
HETATM   12  C21 UNL     1      20.212  30.453  15.724  1.00  0.00     0.006 C
HETATM   13  C22 UNL     1      21.168  31.591  15.712  1.00  0.00     0.012 C
HETATM   14  C23 UNL     1      20.821  32.412  14.448  1.00  0.00    -0.014 C
HETATM   15  C24 UNL     1      21.431  33.740  14.693  1.00  0.00     0.018 C
HETATM   16  C30 UNL     1      19.347  32.309  14.386  1.00  0.00    -0.027 C
HETATM   17  C31 UNL     1      18.937  32.233  12.923  1.00  0.00     0.016 C
HETATM   18  C32 UNL     1      17.285  34.347  16.925  1.00  0.00    -0.027 C
HETATM   19  C33 UNL     1      15.899  33.734  17.044  1.00  0.00     0.016 C
ENDROOT
BRANCH   3  20
HETATM   20  O1  UNL     1      16.816  37.754  16.352  1.00  0.00    -0.385 OA
BRANCH  20  21
HETATM   21  C7  UNL     1      17.066  38.740  17.179  1.00  0.00     0.170 C
BRANCH  21  22
HETATM   22  C8  UNL     1      18.425  39.254  17.455  1.00  0.00     0.052 C
BRANCH  22  23
HETATM   23  C9  UNL     1      18.815  39.632  18.828  1.00  0.00     0.174 C
BRANCH  23  24
HETATM   24  O2  UNL     1      19.856  38.880  19.376  1.00  0.00    -0.339 OA
BRANCH  24  25
HETATM   25  C10 UNL     1      21.110  39.220  18.950  1.00  0.00     0.471 C
HETATM   26  N1  UNL     1      21.559  40.449  19.595  1.00  0.00    -0.020 N
HETATM   27  C11 UNL     1      23.009  40.354  19.611  1.00  0.00     0.298 C
ATOM     28  H12 UNL     1      21.205  41.299  19.157  1.00  0.00     0.283 HD
ATOM     29  H11 UNL     1      21.145  40.609  20.513  1.00  0.00     0.283 HD
HETATM   30  C12 UNL     1      23.229  38.890  19.412  1.00  0.00     0.287 C
HETATM   31  O4  UNL     1      22.005  38.262  19.410  1.00  0.00    -0.307 OA
BRANCH  30  32
HETATM   32  O3  UNL     1      23.910  38.610  18.208  1.00  0.00    -0.369 OA
ATOM     33  H3  UNL     1      24.049  37.679  18.080  1.00  0.00     0.212 HD
ENDBRANCH  30  32
ENDBRANCH  24  25
ENDBRANCH  23  24
ENDBRANCH  22  23
ENDBRANCH  21  22
ENDBRANCH  20  21
ENDBRANCH   3  20
BRANCH   1  34
HETATM   34  C2  UNL     1      18.998  35.271  18.543  1.00  0.00    -0.088 C
HETATM   35  C1  UNL     1      19.436  35.006  19.787  1.00  0.00     0.014 C
HETATM   36  C3  UNL     1      19.990  35.852  17.615  1.00  0.00     0.043 C
ENDBRANCH   1  34
BRANCH  14  37
HETATM   37  C25 UNL     1      21.609  31.727  13.366  1.00  0.00     0.188 C
BRANCH  37  38
HETATM   38  O5  UNL     1      22.235  30.532  13.761  1.00  0.00    -0.321 OA
BRANCH  38  39
HETATM   39  C26 UNL     1      22.147  29.373  13.041  1.00  0.00     0.259 C
HETATM   40  O6  UNL     1      22.968  28.456  13.249  1.00  0.00    -0.265 OA
BRANCH  39  41
HETATM   41  C27 UNL     1      21.059  29.242  12.022  1.00  0.00     0.121 C
BRANCH  41  42
HETATM   42  C28 UNL     1      20.055  28.186  12.498  1.00  0.00     0.123 C
BRANCH  42  43
HETATM   43  C29 UNL     1      18.669  28.607  12.172  1.00  0.00     0.172 C
HETATM   44  O7  UNL     1      18.399  29.269  11.140  1.00  0.00    -0.648 OA
HETATM   45  O8  UNL     1      17.660  28.248  13.050  1.00  0.00    -0.648 OA
ENDBRANCH  42  43
ENDBRANCH  41  42
ENDBRANCH  39  41
ENDBRANCH  38  39
ENDBRANCH  37  38
ENDBRANCH  14  37
TORSDOF 14
ENDMDL