MODEL 1
REMARK VINA RESULT: -6.268541480      0.000      0.000
REMARK  16 active torsions:
REMARK  status: ('A' for Active; 'I' for Inactive)
REMARK    1  A    between atoms: C2_2  and  C3_3
REMARK    2  A    between atoms: C3_3  and  O1_4
REMARK    3  A    between atoms: C3_3  and  C4_6
REMARK    4  A    between atoms: C11_13  and  O2_14
REMARK    5  A    between atoms: C12_16  and  O3_17
REMARK    6  A    between atoms: C14_21  and  C15_22
REMARK    7  A    between atoms: C15_22  and  C16_23
REMARK    8  A    between atoms: C20_29  and  C21_30
REMARK    9  A    between atoms: C20_29  and  C25_34
REMARK   10  A    between atoms: C21_30  and  C22_31
REMARK   11  A    between atoms: C22_31  and  C23_32
REMARK   12  A    between atoms: C25_34  and  C26_35
REMARK   13  A    between atoms: C26_35  and  C27_36
REMARK   14  A    between atoms: C27_36  and  N1_37
REMARK   15  A    between atoms: N1_37  and  C28_38
REMARK   16  A    between atoms: N1_37  and  C30_40
ROOT
HETATM    1  C4  UNL     1      16.963  36.901  17.494  1.00  0.00     0.116 C
HETATM    2  C5  UNL     1      16.970  38.358  17.271  1.00  0.00     0.028 C
HETATM    3  C6  UNL     1      15.966  39.219  17.932  1.00  0.00     0.002 C
HETATM    4  C7  UNL     1      15.951  39.123  19.441  1.00  0.00     0.000 C
HETATM    5  C8  UNL     1      16.080  40.466  20.125  1.00  0.00     0.000 C
HETATM    6  C9  UNL     1      17.201  41.290  19.558  1.00  0.00     0.002 C
HETATM    7  C10 UNL     1      18.002  41.977  20.651  1.00  0.00     0.034 C
HETATM    8  C11 UNL     1      19.501  41.893  20.379  1.00  0.00     0.149 C
HETATM    9  C12 UNL     1      19.872  42.313  18.997  1.00  0.00     0.170 C
HETATM   10  C13 UNL     1      21.120  41.516  18.591  1.00  0.00     0.203 C
HETATM   11  O4  UNL     1      20.691  40.255  18.293  1.00  0.00    -0.373 OA
HETATM   12  C14 UNL     1      21.616  39.390  17.766  1.00  0.00     0.221 C
HETATM   13  C19 UNL     1      20.920  38.563  16.743  1.00  0.00     0.289 C
HETATM   14  O5  UNL     1      20.246  39.327  15.953  1.00  0.00    -0.262 OA
HETATM   15  O6  UNL     1      21.029  37.258  16.714  1.00  0.00    -0.298 OA
HETATM   16  C20 UNL     1      20.408  36.141  17.389  1.00  0.00     0.151 C
HETATM   17  C32 UNL     1      19.374  36.556  18.355  1.00  0.00     0.253 C
HETATM   18  O7  UNL     1      19.911  37.166  19.368  1.00  0.00    -0.270 OA
HETATM   19  N2  UNL     1      18.004  36.420  18.385  1.00  0.00    -0.351 N
ATOM     20  H2  UNL     1      17.656  35.882  19.179  1.00  0.00     0.163 HD
ENDROOT
BRANCH  16  21
HETATM   21  C21 UNL     1      19.967  35.271  16.275  1.00  0.00     0.049 C
BRANCH  21  22
HETATM   22  C22 UNL     1      18.979  34.218  16.423  1.00  0.00     0.003 C
BRANCH  22  23
HETATM   23  C23 UNL     1      18.386  33.969  15.001  1.00  0.00    -0.004 C
HETATM   24  C24 UNL     1      17.717  32.641  14.909  1.00  0.00     0.005 C
ENDBRANCH  22  23
ENDBRANCH  21  22
ENDBRANCH  16  21
BRANCH  16  25
HETATM   25  C25 UNL     1      21.626  35.599  18.156  1.00  0.00     0.050 C
BRANCH  25  26
HETATM   26  C26 UNL     1      22.572  34.741  17.460  1.00  0.00     0.034 C
BRANCH  26  27
HETATM   27  C27 UNL     1      22.196  33.277  17.830  1.00  0.00     0.272 C
BRANCH  27  28
HETATM   28  N1  UNL     1      22.610  32.357  16.822  1.00  0.00     0.087 N
BRANCH  28  29
HETATM   29  C28 UNL     1      21.579  31.847  15.975  1.00  0.00     0.268 C
HETATM   30  C29 UNL     1      20.549  31.007  16.696  1.00  0.00     0.037 C
ENDBRANCH  28  29
BRANCH  28  31
HETATM   31  C30 UNL     1      23.594  33.035  15.998  1.00  0.00     0.268 C
HETATM   32  C31 UNL     1      23.410  32.642  14.539  1.00  0.00     0.037 C
ENDBRANCH  28  31
ENDBRANCH  27  28
ENDBRANCH  26  27
ENDBRANCH  25  26
ENDBRANCH  16  25
BRANCH  12  33
HETATM   33  C15 UNL     1      22.711  40.238  17.098  1.00  0.00     0.046 C
BRANCH  33  34
HETATM   34  C16 UNL     1      24.075  39.864  17.645  1.00  0.00    -0.020 C
HETATM   35  C17 UNL     1      24.691  41.138  18.189  1.00  0.00     0.009 C
HETATM   36  C18 UNL     1      23.946  38.910  18.823  1.00  0.00     0.009 C
ENDBRANCH  33  34
ENDBRANCH  12  33
BRANCH   1  37
HETATM   37  C3  UNL     1      15.609  36.353  17.926  1.00  0.00     0.162 C
BRANCH  37  38
HETATM   38  C2  UNL     1      15.088  35.307  17.012  1.00  0.00    -0.004 C
HETATM   39  C1  UNL     1      15.191  34.028  17.188  1.00  0.00     0.009 C
ENDBRANCH  37  38
BRANCH  37  40
HETATM   40  O1  UNL     1      15.821  35.695  19.155  1.00  0.00    -0.390 OA
ATOM     41  H1  UNL     1      15.663  36.354  19.820  1.00  0.00     0.210 HD
ENDBRANCH  37  40
ENDBRANCH   1  37
BRANCH   9  42
HETATM   42  O3  UNL     1      20.156  43.692  18.992  1.00  0.00    -0.391 OA
ATOM     43  H3  UNL     1      20.209  43.997  18.094  1.00  0.00     0.210 HD
ENDBRANCH   9  42
BRANCH   8  44
HETATM   44  O2  UNL     1      20.000  40.645  20.747  1.00  0.00    -0.393 OA
ATOM     45  H2  UNL     1      20.293  40.162  19.984  1.00  0.00     0.210 HD
ENDBRANCH   8  44
TORSDOF 16
ENDMDL