MODEL 2
REMARK VINA RESULT: -8.454862523      3.083     10.540
REMARK  18 active torsions:
REMARK  status: ('A' for Active; 'I' for Inactive)
REMARK    1  A    between atoms: C2_2  and  C4_4
REMARK    2  A    between atoms: C4_4  and  O1_5
REMARK    3  A    between atoms: C4_4  and  C5_7
REMARK    4  A    between atoms: C5_7  and  C6_9
REMARK    5  A    between atoms: C6_9  and  O3_10
REMARK    6  A    between atoms: C10_16  and  O5_18
REMARK    7  A    between atoms: O5_18  and  C12_19
REMARK    8  A    between atoms: C12_19  and  C13_21
REMARK    9  A    between atoms: C13_21  and  C14_22
REMARK   10  A    between atoms: C14_22  and  C15_23
REMARK   11  A    between atoms: C15_23  and  C16_24
REMARK   12  A    between atoms: C16_24  and  C17_25
REMARK   13  A    between atoms: C18_27  and  C19_28
REMARK   14  A    between atoms: C19_28  and  C20_29
REMARK   15  A    between atoms: C24_33  and  C25_34
REMARK   16  A    between atoms: C25_34  and  O8_35
REMARK   17  A    between atoms: C25_34  and  C26_37
REMARK   18  A    between atoms: C27_38  and  C28_39
ROOT
HETATM    1  C6  UNL     1      19.954  30.218  12.671  1.00  0.00     0.139 C
HETATM    2  C7  UNL     1      21.400  30.666  12.586  1.00  0.00     0.126 C
HETATM    3  C8  UNL     1      21.282  31.850  13.541  1.00  0.00     0.138 C
HETATM    4  O4  UNL     1      21.694  32.964  13.364  1.00  0.00    -0.297 OA
HETATM    5  C9  UNL     1      20.556  31.265  14.694  1.00  0.00     0.105 C
HETATM    6  C10 UNL     1      20.132  32.290  15.628  1.00  0.00     0.079 C
HETATM    7  C11 UNL     1      19.792  31.747  17.017  1.00  0.00     0.047 C
HETATM    8  C23 UNL     1      18.986  33.206  15.260  1.00  0.00     0.050 C
HETATM    9  C24 UNL     1      17.788  32.737  14.669  1.00  0.00     0.043 C
HETATM   10  C29 UNL     1      17.377  31.326  14.686  1.00  0.00    -0.022 C
HETATM   11  C30 UNL     1      18.232  30.205  14.469  1.00  0.00    -0.017 C
HETATM   12  C31 UNL     1      19.656  30.215  14.169  1.00  0.00     0.025 C
HETATM   13  C32 UNL     1      20.197  28.890  14.775  1.00  0.00     0.024 C
ENDROOT
BRANCH   6  14
HETATM   14  O5  UNL     1      21.188  33.188  15.852  1.00  0.00    -0.306 OA
BRANCH  14  15
HETATM   15  C12 UNL     1      22.104  33.242  16.916  1.00  0.00     0.284 C
HETATM   16  O6  UNL     1      23.064  32.493  16.764  1.00  0.00    -0.260 OA
BRANCH  15  17
HETATM   17  C13 UNL     1      21.819  34.109  18.001  1.00  0.00     0.094 C
BRANCH  17  18
HETATM   18  C14 UNL     1      21.369  35.410  18.015  1.00  0.00    -0.023 C
HETATM   19  C18 UNL     1      19.961  35.438  18.229  1.00  0.00     0.008 C
BRANCH  18  20
HETATM   20  C15 UNL     1      22.317  36.438  17.810  1.00  0.00     0.070 C
BRANCH  20  21
HETATM   21  C16 UNL     1      22.832  37.438  18.312  1.00  0.00    -0.087 C
BRANCH  21  22
HETATM   22  C17 UNL     1      23.425  38.567  18.905  1.00  0.00     0.314 C
HETATM   23  O7  UNL     1      23.203  39.009  20.037  1.00  0.00    -0.293 OA
ENDBRANCH  21  22
ENDBRANCH  20  21
ENDBRANCH  18  20
BRANCH  19  24
HETATM   24  C19 UNL     1      18.914  36.036  18.400  1.00  0.00    -0.022 C
BRANCH  24  25
HETATM   25  C20 UNL     1      18.189  37.258  18.521  1.00  0.00    -0.000 C
HETATM   26  C21 UNL     1      19.155  38.417  18.922  1.00  0.00     0.013 C
HETATM   27  C22 UNL     1      17.328  37.740  17.424  1.00  0.00     0.013 C
ENDBRANCH  24  25
ENDBRANCH  19  24
ENDBRANCH  17  18
ENDBRANCH  15  17
ENDBRANCH  14  15
ENDBRANCH   6  14
BRANCH   9  28
HETATM   28  C25 UNL     1      16.590  33.555  15.129  1.00  0.00     0.149 C
BRANCH  28  29
HETATM   29  O8  UNL     1      17.120  34.462  16.087  1.00  0.00    -0.391 OA
ATOM     30  H8  UNL     1      16.955  34.048  16.926  1.00  0.00     0.210 HD
ENDBRANCH  28  29
BRANCH  28  31
HETATM   31  C26 UNL     1      15.566  32.791  15.855  1.00  0.00     0.012 C
HETATM   32  C27 UNL     1      14.943  33.257  16.913  1.00  0.00     0.083 C
BRANCH  32  33
HETATM   33  C28 UNL     1      15.096  34.530  17.571  1.00  0.00     0.198 C
HETATM   34  O9  UNL     1      15.721  34.497  18.705  1.00  0.00    -0.645 OA
HETATM   35  O10 UNL     1      14.637  35.713  17.071  1.00  0.00    -0.645 OA
ENDBRANCH  32  33
ENDBRANCH  28  31
ENDBRANCH   9  28
BRANCH   1  36
HETATM   36  C5  UNL     1      19.548  29.104  11.872  1.00  0.00     0.195 C
HETATM   37  O2  UNL     1      20.454  28.512  11.232  1.00  0.00    -0.291 OA
BRANCH  36  38
HETATM   38  C4  UNL     1      18.204  28.489  11.658  1.00  0.00     0.218 C
BRANCH  38  39
HETATM   39  C2  UNL     1      18.224  27.174  11.042  1.00  0.00    -0.058 C
HETATM   40  C1  UNL     1      18.390  26.068  11.771  1.00  0.00     0.017 C
HETATM   41  C3  UNL     1      18.060  26.969   9.588  1.00  0.00     0.046 C
ENDBRANCH  38  39
BRANCH  38  42
HETATM   42  O1  UNL     1      17.452  29.308  10.763  1.00  0.00    -0.384 OA
ATOM     43  H1  UNL     1      17.937  30.123  10.706  1.00  0.00     0.211 HD
ENDBRANCH  38  42
ENDBRANCH  36  38
ENDBRANCH   1  36
BRANCH   1  44
HETATM   44  O3  UNL     1      19.265  31.336  12.087  1.00  0.00    -0.380 OA
ATOM     45  H3  UNL     1      19.951  31.829  11.652  1.00  0.00     0.211 HD
ENDBRANCH   1  44
TORSDOF 18
ENDMDL