MODEL 2
REMARK VINA RESULT: -7.916528176      2.906      5.822
REMARK  19 active torsions:
REMARK  status: ('A' for Active; 'I' for Inactive)
REMARK    1  A    between atoms: C2_2  and  O2_4
REMARK    2  A    between atoms: O2_4  and  C3_5
REMARK    3  A    between atoms: C3_5  and  C4_6
REMARK    4  A    between atoms: C4_6  and  C5_7
REMARK    5  A    between atoms: C5_7  and  C6_8
REMARK    6  A    between atoms: C7_9  and  C8_10
REMARK    7  A    between atoms: C9_11  and  C10_12
REMARK    8  A    between atoms: C10_12  and  C11_13
REMARK    9  A    between atoms: C12_14  and  C13_15
REMARK   10  A    between atoms: C14_16  and  C15_17
REMARK   11  A    between atoms: C15_17  and  C16_18
REMARK   12  A    between atoms: C16_18  and  C17_19
REMARK   13  A    between atoms: C17_19  and  O3_20
REMARK   14  A    between atoms: C17_19  and  C18_22
REMARK   15  A    between atoms: C18_22  and  O4_23
REMARK   16  A    between atoms: C23_30  and  O6_31
REMARK   17  A    between atoms: C24_33  and  C25_34
REMARK   18  A    between atoms: C26_35  and  C27_36
REMARK   19  A    between atoms: C33_43  and  O8_44
ROOT
HETATM    1  C18 UNL     1      20.523  29.920  13.614  1.00  0.00     0.115 C
HETATM    2  C19 UNL     1      19.316  29.456  12.959  1.00  0.00     0.064 C
HETATM    3  C20 UNL     1      17.990  30.186  13.005  1.00  0.00     0.153 C
HETATM    4  O5  UNL     1      17.385  30.170  11.993  1.00  0.00    -0.293 OA
HETATM    5  C21 UNL     1      17.339  30.925  14.143  1.00  0.00     0.071 C
HETATM    6  C22 UNL     1      16.864  32.283  13.944  1.00  0.00     0.077 C
HETATM    7  C23 UNL     1      17.607  33.451  14.537  1.00  0.00     0.051 C
HETATM    8  C24 UNL     1      19.090  33.305  14.819  1.00  0.00    -0.020 C
HETATM    9  C28 UNL     1      19.453  31.958  14.338  1.00  0.00    -0.001 C
HETATM   10  C29 UNL     1      19.553  32.271  12.932  1.00  0.00     0.021 C
HETATM   11  C30 UNL     1      18.511  31.044  15.045  1.00  0.00     0.011 C
HETATM   12  C31 UNL     1      18.402  31.103  16.481  1.00  0.00     0.009 C
HETATM   13  C32 UNL     1      19.819  30.793  17.001  1.00  0.00     0.032 C
HETATM   14  C33 UNL     1      20.861  30.645  15.992  1.00  0.00     0.126 C
HETATM   15  C34 UNL     1      20.643  31.122  14.562  1.00  0.00     0.069 C
ENDROOT
BRANCH   1  16
HETATM   16  C17 UNL     1      21.749  30.014  12.652  1.00  0.00     0.179 C
BRANCH  16  17
HETATM   17  C16 UNL     1      22.068  28.848  11.934  1.00  0.00     0.008 C
BRANCH  17  18
HETATM   18  C15 UNL     1      23.108  28.191  11.497  1.00  0.00    -0.001 C
BRANCH  18  19
HETATM   19  C14 UNL     1      23.899  27.372  12.378  1.00  0.00    -0.000 C
HETATM   20  C13 UNL     1      24.988  26.767  11.957  1.00  0.00    -0.000 C
BRANCH  20  21
HETATM   21  C12 UNL     1      25.542  26.817  10.629  1.00  0.00    -0.004 C
HETATM   22  C11 UNL     1      25.258  25.952   9.661  1.00  0.00    -0.023 C
BRANCH  22  23
HETATM   23  C10 UNL     1      24.331  24.810   9.767  1.00  0.00     0.054 C
BRANCH  23  24
HETATM   24  C9  UNL     1      23.142  24.959   8.919  1.00  0.00    -0.023 C
HETATM   25  C8  UNL     1      21.938  25.138   9.408  1.00  0.00    -0.004 C
BRANCH  25  26
HETATM   26  C7  UNL     1      21.602  25.215  10.794  1.00  0.00    -0.004 C
HETATM   27  C6  UNL     1      20.449  25.519  11.298  1.00  0.00    -0.027 C
BRANCH  27  28
HETATM   28  C5  UNL     1      19.265  25.840  10.485  1.00  0.00     0.029 C
BRANCH  28  29
HETATM   29  C4  UNL     1      19.290  27.338  10.172  1.00  0.00     0.030 C
BRANCH  29  30
HETATM   30  C3  UNL     1      18.060  27.708   9.407  1.00  0.00     0.179 C
BRANCH  30  31
HETATM   31  O2  UNL     1      17.760  26.800   8.378  1.00  0.00    -0.322 OA
BRANCH  31  32
HETATM   32  C2  UNL     1      18.378  26.834   7.148  1.00  0.00     0.254 C
HETATM   33  C1  UNL     1      19.232  25.710   6.683  1.00  0.00     0.126 C
HETATM   34  O1  UNL     1      18.206  27.840   6.415  1.00  0.00    -0.266 OA
ENDBRANCH  31  32
ENDBRANCH  30  31
ENDBRANCH  29  30
ENDBRANCH  28  29
ENDBRANCH  27  28
ENDBRANCH  25  26
ENDBRANCH  23  24
ENDBRANCH  22  23
ENDBRANCH  20  21
ENDBRANCH  18  19
ENDBRANCH  17  18
ENDBRANCH  16  17
BRANCH  16  35
HETATM   35  O3  UNL     1      22.832  30.546  13.380  1.00  0.00    -0.388 OA
ATOM     36  H3  UNL     1      23.518  30.910  12.833  1.00  0.00     0.210 HD
ENDBRANCH  16  35
ENDBRANCH   1  16
BRANCH   1  37
HETATM   37  O4  UNL     1      20.965  28.740  14.260  1.00  0.00    -0.382 OA
ATOM     38  H4  UNL     1      20.255  28.721  14.891  1.00  0.00     0.211 HD
ENDBRANCH   1  37
BRANCH  14  39
HETATM   39  O8  UNL     1      22.100  31.138  16.512  1.00  0.00    -0.395 OA
ATOM     40  H8  UNL     1      22.678  31.359  15.792  1.00  0.00     0.210 HD
ENDBRANCH  14  39
BRANCH   8  41
HETATM   41  C25 UNL     1      19.749  34.078  15.793  1.00  0.00     0.013 C
HETATM   42  C26 UNL     1      20.970  34.479  15.896  1.00  0.00     0.042 C
BRANCH  42  43
HETATM   43  C27 UNL     1      21.444  35.293  17.025  1.00  0.00     0.258 C
HETATM   44  O7  UNL     1      21.351  36.521  16.978  1.00  0.00    -0.302 OA
ENDBRANCH  42  43
ENDBRANCH   8  41
BRANCH   7  45
HETATM   45  O6  UNL     1      16.854  34.045  15.542  1.00  0.00    -0.364 OA
ATOM     46  H6  UNL     1      17.271  34.845  15.840  1.00  0.00     0.217 HD
ENDBRANCH   7  45
TORSDOF 19
ENDMDL