MODEL 2
REMARK VINA RESULT: -8.063125891      2.245      6.552
REMARK  15 active torsions:
REMARK  status: ('A' for Active; 'I' for Inactive)
REMARK    1  A    between atoms: C2_2  and  C3_3
REMARK    2  A    between atoms: C3_3  and  N1_4
REMARK    3  A    between atoms: C4_5  and  S1_6
REMARK    4  A    between atoms: S1_6  and  C5_7
REMARK    5  A    between atoms: C5_7  and  C6_8
REMARK    6  A    between atoms: C6_8  and  C7_9
REMARK    7  A    between atoms: C7_9  and  C8_10
REMARK    8  A    between atoms: N2_14  and  C12_15
REMARK    9  A    between atoms: C12_15  and  C13_16
REMARK   10  A    between atoms: N3_18  and  C15_19
REMARK   11  A    between atoms: C15_19  and  C16_20
REMARK       I    between atoms: N4_22  and  C18_24
REMARK   12  A    between atoms: C20_35  and  N9_36
REMARK       I    between atoms: N9_36  and  C21_38
REMARK   13  A    between atoms: C21_38  and  C22_40
REMARK   14  A    between atoms: C22_40  and  C23_41
REMARK   15  A    between atoms: C22_40  and  C25_43
ROOT
HETATM    1  C6  UNL     1      17.238  31.032  15.488  1.00  0.00     0.017 C
ENDROOT
BRANCH   1   2
HETATM    2  C5  UNL     1      18.377  31.417  16.338  1.00  0.00     0.083 C
BRANCH   2   3
HETATM    3  S1  UNL     1      19.807  30.438  16.449  1.00  0.00    -0.092 SA
BRANCH   3   4
HETATM    4  C4  UNL     1      20.477  29.607  15.071  1.00  0.00     0.177 A
HETATM    5  N1  UNL     1      21.530  29.780  14.276  1.00  0.00    -0.159 N
HETATM    6  C20 UNL     1      21.577  28.787  13.321  1.00  0.00     0.703 A
HETATM    7  N8  UNL     1      20.529  28.001  13.550  1.00  0.00    -0.130 N
HETATM    8  N7  UNL     1      19.861  28.460  14.576  1.00  0.00    -0.265 N
ATOM      9  H8  UNL     1      20.284  27.171  13.010  1.00  0.00     0.205 HD
ATOM     10  H7  UNL     1      19.014  28.040  14.957  1.00  0.00     0.189 HD
BRANCH   5  11
HETATM   11  C3  UNL     1      22.517  30.802  14.311  1.00  0.00     0.149 C
BRANCH  11  12
HETATM   12  C2  UNL     1      22.208  32.126  14.859  1.00  0.00     0.016 C
HETATM   13  C1  UNL     1      22.660  33.318  14.130  1.00  0.00     0.006 C
ENDBRANCH  11  12
ENDBRANCH   5  11
BRANCH   6  14
HETATM   14  N9  UNL     1      22.483  28.684  12.405  1.00  0.00    -0.158 N
HETATM   15  C21 UNL     1      22.229  27.989  11.207  1.00  0.00     0.240 C
HETATM   16  O2  UNL     1      21.182  28.199  10.525  1.00  0.00    -0.272 OA
ATOM     17  H9  UNL     1      23.397  29.114  12.552  1.00  0.00     0.187 HD
BRANCH  15  18
HETATM   18  C22 UNL     1      23.214  26.989  10.734  1.00  0.00     0.078 C
BRANCH  18  19
HETATM   19  C23 UNL     1      24.516  27.247  11.478  1.00  0.00     0.009 C
HETATM   20  C24 UNL     1      25.675  26.544  10.810  1.00  0.00     0.006 C
ENDBRANCH  18  19
BRANCH  18  21
HETATM   21  C25 UNL     1      22.712  25.615  11.043  1.00  0.00     0.009 C
HETATM   22  C26 UNL     1      22.615  24.756   9.811  1.00  0.00     0.006 C
ENDBRANCH  18  21
ENDBRANCH  15  18
ENDBRANCH   6  14
ENDBRANCH   3   4
ENDBRANCH   2   3
ENDBRANCH   1   2
BRANCH   1  23
HETATM   23  C7  UNL     1      17.053  31.866  14.226  1.00  0.00     0.058 C
BRANCH  23  24
HETATM   24  C8  UNL     1      18.025  31.557  13.164  1.00  0.00     0.011 A
HETATM   25  C9  UNL     1      19.163  32.336  12.978  1.00  0.00     0.026 A
HETATM   26  C10 UNL     1      19.890  31.824  11.928  1.00  0.00     0.019 A
HETATM   27  C11 UNL     1      19.180  30.735  11.491  1.00  0.00     0.091 A
HETATM   28  N2  UNL     1      18.056  30.588  12.252  1.00  0.00    -0.358 N
BRANCH  28  29
HETATM   29  C12 UNL     1      17.156  29.497  12.067  1.00  0.00     0.162 C
BRANCH  29  30
HETATM   30  C13 UNL     1      17.712  28.271  11.451  1.00  0.00     0.160 C
HETATM   31  C14 UNL     1      16.862  27.517  10.500  1.00  0.00     0.160 C
HETATM   32  N3  UNL     1      17.650  26.315  10.362  1.00  0.00    -0.347 N
HETATM   33  C19 UNL     1      18.239  26.108  11.652  1.00  0.00     0.295 C
HETATM   34  O1  UNL     1      18.089  27.296  12.367  1.00  0.00    -0.363 OA
BRANCH  32  35
HETATM   35  C15 UNL     1      17.793  25.545   9.198  1.00  0.00     0.082 C
HETATM   36  N4  UNL     1      18.051  24.283   9.169  1.00  0.00    -0.321 N
HETATM   37  C18 UNL     1      18.241  23.410  10.226  1.00  0.00     0.187 C
ATOM     38  H4  UNL     1      18.126  23.871   8.238  1.00  0.00     0.169 HD
HETATM   39  N5  UNL     1      17.241  22.867  10.820  1.00  0.00    -0.373 N
HETATM   40  N6  UNL     1      19.546  23.091  10.674  1.00  0.00    -0.064 NA
ATOM     41  H52 UNL     1      16.301  23.097  10.497  1.00  0.00     0.158 HD
ATOM     42  H51 UNL     1      17.381  22.224  11.599  1.00  0.00     0.158 HD
BRANCH  35  43
HETATM   43  C16 UNL     1      17.648  26.177   7.829  1.00  0.00     0.072 C
HETATM   44  C17 UNL     1      17.032  25.234   6.851  1.00  0.00     0.013 C
ENDBRANCH  35  43
ENDBRANCH  32  35
ENDBRANCH  29  30
ENDBRANCH  28  29
ENDBRANCH  23  24
ENDBRANCH   1  23
TORSDOF 15
ENDMDL