MODEL 3
REMARK VINA RESULT: -8.467516792      1.383      2.990
REMARK  15 active torsions:
REMARK  status: ('A' for Active; 'I' for Inactive)
REMARK    1  A    between atoms: C2_2  and  C3_3
REMARK    2  A    between atoms: C10_11  and  O2_12
REMARK    3  A    between atoms: C11_14  and  O3_15
REMARK    4  A    between atoms: O3_15  and  C12_16
REMARK    5  A    between atoms: C12_16  and  C13_18
REMARK    6  A    between atoms: C13_18  and  C14_19
REMARK    7  A    between atoms: C14_19  and  C15_20
REMARK       I    between atoms: C15_20  and  N1_22
REMARK    8  A    between atoms: C20_27  and  C21_28
REMARK       I    between atoms: C21_28  and  N2_30
REMARK    9  A    between atoms: N2_30  and  C22_32
REMARK   10  A    between atoms: C22_32  and  C23_33
REMARK   11  A    between atoms: C23_33  and  C24_34
REMARK   12  A    between atoms: C24_34  and  C25_35
REMARK   13  A    between atoms: C25_35  and  C26_36
REMARK   14  A    between atoms: C26_36  and  C27_37
REMARK   15  A    between atoms: C27_37  and  C28_38
ROOT
HETATM    1  C15 UNL     1      18.362  31.386  14.349  1.00  0.00     0.221 C
HETATM    2  O5  UNL     1      18.756  30.543  15.182  1.00  0.00    -0.273 OA
HETATM    3  N1  UNL     1      17.980  32.699  14.751  1.00  0.00    -0.339 N
HETATM    4  C16 UNL     1      17.517  33.693  13.811  1.00  0.00     0.127 C
HETATM    5  C17 UNL     1      16.495  34.594  14.484  1.00  0.00     0.020 C
HETATM    6  C18 UNL     1      15.779  33.799  15.555  1.00  0.00     0.004 C
HETATM    7  C19 UNL     1      16.671  33.371  16.682  1.00  0.00     0.035 C
HETATM    8  C20 UNL     1      18.039  33.045  16.133  1.00  0.00     0.179 C
ENDROOT
BRANCH   1   9
HETATM    9  C14 UNL     1      18.295  30.995  12.912  1.00  0.00     0.112 C
BRANCH   9  10
HETATM   10  C13 UNL     1      18.782  29.570  12.741  1.00  0.00     0.120 C
BRANCH  10  11
HETATM   11  C12 UNL     1      19.640  29.510  11.537  1.00  0.00     0.259 C
HETATM   12  O4  UNL     1      20.120  30.553  11.043  1.00  0.00    -0.265 OA
BRANCH  11  13
HETATM   13  O3  UNL     1      19.948  28.304  10.901  1.00  0.00    -0.312 OA
BRANCH  13  14
HETATM   14  C11 UNL     1      20.834  27.368  11.461  1.00  0.00     0.177 C
HETATM   15  C10 UNL     1      20.704  25.976  11.018  1.00  0.00     0.163 C
HETATM   16  C6  UNL     1      21.067  25.911   9.577  1.00  0.00     0.085 C
HETATM   17  C7  UNL     1      19.470  25.367  10.534  1.00  0.00     0.100 C
HETATM   18  C5  UNL     1      22.098  26.620   9.177  1.00  0.00     0.022 C
HETATM   19  O1  UNL     1      20.041  25.037   9.276  1.00  0.00    -0.339 OA
HETATM   20  C3  UNL     1      22.934  27.483  10.053  1.00  0.00    -0.004 C
HETATM   21  C4  UNL     1      23.349  28.744   9.281  1.00  0.00     0.024 C
HETATM   22  C29 UNL     1      22.279  27.887  11.318  1.00  0.00     0.053 C
HETATM   23  C8  UNL     1      19.157  24.023  11.231  1.00  0.00     0.050 C
HETATM   24  C9  UNL     1      18.193  26.139  10.451  1.00  0.00     0.050 C
BRANCH  15  25
HETATM   25  O2  UNL     1      21.429  25.055  11.804  1.00  0.00    -0.377 OA
ATOM     26  H2  UNL     1      22.324  24.942  11.504  1.00  0.00     0.211 HD
ENDBRANCH  15  25
BRANCH  20  27
HETATM   27  C2  UNL     1      24.230  26.740  10.301  1.00  0.00    -0.024 C
HETATM   28  C1  UNL     1      24.710  26.613  11.514  1.00  0.00     0.008 C
ENDBRANCH  20  27
ENDBRANCH  13  14
ENDBRANCH  11  13
ENDBRANCH  10  11
ENDBRANCH   9  10
ENDBRANCH   1   9
BRANCH   8  29
HETATM   29  C21 UNL     1      18.981  34.184  16.380  1.00  0.00     0.240 C
HETATM   30  O6  UNL     1      18.658  35.127  17.130  1.00  0.00    -0.271 OA
HETATM   31  N2  UNL     1      20.250  34.187  15.753  1.00  0.00    -0.359 N
ATOM     32  H2  UNL     1      20.504  33.416  15.136  1.00  0.00     0.162 HD
BRANCH  31  33
HETATM   33  C22 UNL     1      21.176  35.239  15.966  1.00  0.00     0.122 C
BRANCH  33  34
HETATM   34  C23 UNL     1      22.154  35.082  17.070  1.00  0.00     0.020 C
BRANCH  34  35
HETATM   35  C24 UNL     1      23.062  33.874  16.945  1.00  0.00     0.002 C
BRANCH  35  36
HETATM   36  C25 UNL     1      24.018  34.190  15.793  1.00  0.00     0.001 C
BRANCH  36  37
HETATM   37  C26 UNL     1      23.931  33.197  14.684  1.00  0.00     0.010 C
BRANCH  37  38
HETATM   38  C27 UNL     1      23.020  32.072  15.154  1.00  0.00     0.113 C
BRANCH  38  39
HETATM   39  C28 UNL     1      22.152  31.681  14.034  1.00  0.00     0.172 C
HETATM   40  O7  UNL     1      22.021  30.459  13.766  1.00  0.00    -0.648 OA
HETATM   41  O8  UNL     1      21.467  32.587  13.255  1.00  0.00    -0.648 OA
ENDBRANCH  38  39
ENDBRANCH  37  38
ENDBRANCH  36  37
ENDBRANCH  35  36
ENDBRANCH  34  35
ENDBRANCH  33  34
ENDBRANCH  31  33
ENDBRANCH   8  29
TORSDOF 15
ENDMDL