MODEL 1
REMARK VINA RESULT: -8.732648678      0.000      0.000
REMARK  14 active torsions:
REMARK  status: ('A' for Active; 'I' for Inactive)
REMARK    1  A    between atoms: C2_2  and  C3_3
REMARK    2  A    between atoms: C3_3  and  C4_4
REMARK    3  A    between atoms: C4_4  and  C5_5
REMARK    4  A    between atoms: C5_5  and  C6_6
REMARK    5  A    between atoms: C6_6  and  C7_7
REMARK    6  A    between atoms: C7_7  and  C8_8
REMARK    7  A    between atoms: C8_8  and  N1_9
REMARK    8  A    between atoms: N2_12  and  C10_13
REMARK    9  A    between atoms: C10_13  and  C12_15
REMARK   10  A    between atoms: N3_19  and  C15_20
REMARK   11  A    between atoms: C15_20  and  C16_21
REMARK       I    between atoms: C16_21  and  N4_23
REMARK   12  A    between atoms: N4_23  and  C17_24
REMARK   13  A    between atoms: N4_23  and  C20_31
REMARK   14  A    between atoms: C17_24  and  C18_28
ROOT
HETATM    1  C18 UNL     1      22.779  29.168  12.608  1.00  0.00     0.200 C
HETATM    2  C19 UNL     1      23.513  28.044  12.092  1.00  0.00     0.066 C
HETATM    3  N6  UNL     1      24.107  27.154  11.661  1.00  0.00    -0.197 NA
ENDROOT
BRANCH   1   4
HETATM    4  C17 UNL     1      21.390  28.806  13.072  1.00  0.00     0.098 C
HETATM    5  N5  UNL     1      21.309  28.404  14.277  1.00  0.00    -0.388 N
ATOM      6  H52 UNL     1      20.370  28.159  14.590  1.00  0.00     0.157 HD
ATOM      7  H51 UNL     1      22.135  28.340  14.872  1.00  0.00     0.157 HD
BRANCH   4   8
HETATM    8  N4  UNL     1      20.256  28.893  12.254  1.00  0.00    -0.262 N
HETATM    9  C16 UNL     1      19.757  30.158  11.863  1.00  0.00     0.248 C
HETATM   10  O3  UNL     1      18.653  30.256  11.217  1.00  0.00    -0.271 OA
BRANCH   9  11
HETATM   11  C15 UNL     1      20.466  31.392  12.166  1.00  0.00     0.233 C
BRANCH  11  12
HETATM   12  N3  UNL     1      20.267  31.875  13.531  1.00  0.00    -0.304 N
HETATM   13  C14 UNL     1      21.238  32.659  14.214  1.00  0.00     0.331 C
HETATM   14  N2  UNL     1      20.859  33.615  15.218  1.00  0.00    -0.247 N
HETATM   15  O2  UNL     1      22.454  32.472  13.893  1.00  0.00    -0.246 OA
HETATM   16  C9  UNL     1      19.462  33.724  15.485  1.00  0.00     0.330 C
HETATM   17  N1  UNL     1      18.564  32.904  14.764  1.00  0.00    -0.312 N
HETATM   18  O1  UNL     1      19.064  34.531  16.335  1.00  0.00    -0.246 OA
HETATM   19  C25 UNL     1      19.040  31.591  14.280  1.00  0.00     0.192 C
HETATM   20  C26 UNL     1      19.383  30.802  15.523  1.00  0.00     0.056 C
BRANCH  14  21
HETATM   21  C10 UNL     1      21.882  34.356  15.857  1.00  0.00     0.095 C
HETATM   22  C11 UNL     1      21.634  35.821  15.999  1.00  0.00     0.033 C
BRANCH  21  23
HETATM   23  C12 UNL     1      22.135  33.790  17.250  1.00  0.00     0.021 C
HETATM   24  C13 UNL     1      22.379  34.931  18.224  1.00  0.00     0.007 C
ENDBRANCH  21  23
ENDBRANCH  14  21
BRANCH  17  25
HETATM   25  C8  UNL     1      17.217  33.341  14.513  1.00  0.00     0.130 C
BRANCH  25  26
HETATM   26  C7  UNL     1      16.178  32.419  15.086  1.00  0.00     0.020 C
BRANCH  26  27
HETATM   27  C6  UNL     1      15.602  32.996  16.349  1.00  0.00     0.002 C
BRANCH  27  28
HETATM   28  C5  UNL     1      15.459  34.479  16.242  1.00  0.00     0.000 C
BRANCH  28  29
HETATM   29  C4  UNL     1      14.694  35.038  17.438  1.00  0.00     0.000 C
BRANCH  29  30
HETATM   30  C3  UNL     1      15.165  36.414  17.728  1.00  0.00    -0.000 C
BRANCH  30  31
HETATM   31  C2  UNL     1      16.310  36.834  16.862  1.00  0.00    -0.005 C
HETATM   32  C1  UNL     1      16.650  38.284  17.141  1.00  0.00     0.005 C
ENDBRANCH  30  31
ENDBRANCH  29  30
ENDBRANCH  28  29
ENDBRANCH  27  28
ENDBRANCH  26  27
ENDBRANCH  25  26
ENDBRANCH  17  25
ENDBRANCH  11  12
ENDBRANCH   9  11
BRANCH   8  33
HETATM   33  C20 UNL     1      19.546  27.746  11.795  1.00  0.00     0.134 A
HETATM   34  C21 UNL     1      18.460  27.283  12.481  1.00  0.00     0.043 A
HETATM   35  C22 UNL     1      18.020  28.000  13.693  1.00  0.00     0.071 C
HETATM   36  N7  UNL     1      17.802  26.165  12.026  1.00  0.00    -0.310 N
HETATM   37  C23 UNL     1      18.225  25.535  10.915  1.00  0.00     0.327 A
ATOM     38  H7  UNL     1      16.990  25.812  12.533  1.00  0.00     0.170 HD
HETATM   39  O4  UNL     1      17.624  24.506  10.492  1.00  0.00    -0.247 OA
HETATM   40  N8  UNL     1      19.275  25.966  10.233  1.00  0.00    -0.274 N
HETATM   41  C24 UNL     1      19.943  27.074  10.667  1.00  0.00     0.278 A
ATOM     42  H8  UNL     1      19.582  25.475   9.393  1.00  0.00     0.173 HD
HETATM   43  O5  UNL     1      20.916  27.441   9.997  1.00  0.00    -0.265 OA
ENDBRANCH   8  33
ENDBRANCH   4   8
ENDBRANCH   1   4
TORSDOF 14
ENDMDL