MODEL 4
REMARK VINA RESULT: -8.703788346      1.993      4.262
REMARK  15 active torsions:
REMARK  status: ('A' for Active; 'I' for Inactive)
REMARK    1  A    between atoms: C2_2  and  C3_4
REMARK    2  A    between atoms: C3_4  and  C4_5
REMARK    3  A    between atoms: C4_5  and  C5_6
REMARK    4  A    between atoms: C5_6  and  N1_7
REMARK    5  A    between atoms: C5_6  and  C11_16
REMARK       I    between atoms: N1_7  and  C6_9
REMARK    6  A    between atoms: C6_9  and  O3_11
REMARK    7  A    between atoms: O3_11  and  C7_12
REMARK       I    between atoms: C11_16  and  N2_18
REMARK    8  A    between atoms: N2_18  and  C12_20
REMARK    9  A    between atoms: C12_20  and  C14_22
REMARK       I    between atoms: C14_22  and  N3_24
REMARK   10  A    between atoms: C16_26  and  O6_27
REMARK   11  A    between atoms: O6_27  and  C17_28
REMARK   12  A    between atoms: C17_28  and  C18_29
REMARK   13  A    between atoms: C18_29  and  C19_30
REMARK   14  A    between atoms: C19_30  and  C20_31
REMARK   15  A    between atoms: C27_38  and  C28_39
ROOT
HETATM    1  C12 UNL     1      21.129  30.283  12.806  1.00  0.00     0.172 C
HETATM    2  C13 UNL     1      21.186  30.897  11.456  1.00  0.00     0.042 C
ENDROOT
BRANCH   1   3
HETATM    3  N2  UNL     1      21.570  31.224  13.852  1.00  0.00    -0.346 N
HETATM    4  C11 UNL     1      20.670  31.620  14.847  1.00  0.00     0.241 C
HETATM    5  O4  UNL     1      19.507  31.063  14.749  1.00  0.00    -0.271 OA
ATOM      6  H2  UNL     1      22.524  31.583  13.851  1.00  0.00     0.163 HD
BRANCH   4   7
HETATM    7  C5  UNL     1      20.808  32.539  15.950  1.00  0.00     0.179 C
BRANCH   7   8
HETATM    8  C4  UNL     1      21.863  32.430  16.950  1.00  0.00     0.042 C
BRANCH   8   9
HETATM    9  C3  UNL     1      22.841  33.516  17.184  1.00  0.00     0.080 C
BRANCH   9  10
HETATM   10  C2  UNL     1      22.323  34.760  17.754  1.00  0.00     0.123 C
HETATM   11  C1  UNL     1      22.457  36.061  17.074  1.00  0.00     0.091 C
HETATM   12  O1  UNL     1      21.746  34.747  18.831  1.00  0.00    -0.298 OA
ENDBRANCH   9  10
ENDBRANCH   8   9
ENDBRANCH   7   8
BRANCH   7  13
HETATM   13  N1  UNL     1      19.529  32.672  16.701  1.00  0.00    -0.324 N
HETATM   14  C6  UNL     1      18.799  33.885  16.701  1.00  0.00     0.362 C
HETATM   15  O2  UNL     1      19.249  34.868  16.036  1.00  0.00    -0.238 OA
ATOM     16  H1  UNL     1      19.173  31.873  17.226  1.00  0.00     0.165 HD
BRANCH  14  17
HETATM   17  O3  UNL     1      17.616  34.062  17.381  1.00  0.00    -0.294 OA
BRANCH  17  18
HETATM   18  C7  UNL     1      16.349  34.093  16.780  1.00  0.00     0.061 C
HETATM   19  C8  UNL     1      16.034  32.802  16.018  1.00  0.00     0.046 C
HETATM   20  C9  UNL     1      15.289  34.192  17.864  1.00  0.00     0.046 C
HETATM   21  C10 UNL     1      16.112  35.229  15.836  1.00  0.00     0.046 C
ENDBRANCH  17  18
ENDBRANCH  14  17
ENDBRANCH   7  13
ENDBRANCH   4   7
ENDBRANCH   1   3
BRANCH   1  22
HETATM   22  C14 UNL     1      21.838  28.993  12.847  1.00  0.00     0.243 C
HETATM   23  O5  UNL     1      22.566  28.772  13.865  1.00  0.00    -0.271 OA
HETATM   24  N3  UNL     1      21.720  28.027  11.811  1.00  0.00    -0.335 N
HETATM   25  C15 UNL     1      21.007  28.169  10.565  1.00  0.00     0.159 C
HETATM   26  C27 UNL     1      22.285  26.671  11.921  1.00  0.00     0.179 C
HETATM   27  C16 UNL     1      21.181  26.844   9.831  1.00  0.00     0.141 C
HETATM   28  C26 UNL     1      21.343  25.903  11.000  1.00  0.00     0.068 C
BRANCH  27  29
HETATM   29  O6  UNL     1      20.114  26.509   9.053  1.00  0.00    -0.384 OA
BRANCH  29  30
HETATM   30  C17 UNL     1      19.353  25.516   9.679  1.00  0.00     0.168 C
BRANCH  30  31
HETATM   31  C18 UNL     1      17.883  25.763   9.526  1.00  0.00     0.027 C
BRANCH  31  32
HETATM   32  C19 UNL     1      17.532  27.244   9.578  1.00  0.00     0.007 C
BRANCH  32  33
HETATM   33  C20 UNL     1      16.356  27.482  10.501  1.00  0.00    -0.014 C
HETATM   34  C21 UNL     1      16.134  28.963  10.640  1.00  0.00     0.004 C
HETATM   35  C22 UNL     1      17.312  29.652  11.254  1.00  0.00     0.000 C
HETATM   36  C23 UNL     1      17.766  29.059  12.551  1.00  0.00     0.000 C
HETATM   37  C24 UNL     1      17.867  27.553  12.500  1.00  0.00     0.000 C
HETATM   38  C25 UNL     1      16.622  26.943  11.894  1.00  0.00     0.004 C
ENDBRANCH  32  33
ENDBRANCH  31  32
ENDBRANCH  30  31
ENDBRANCH  29  30
ENDBRANCH  27  29
BRANCH  26  39
HETATM   39  C28 UNL     1      23.653  26.700  11.431  1.00  0.00     0.254 C
HETATM   40  N4  UNL     1      24.466  25.515  11.390  1.00  0.00    -0.060 NA
HETATM   41  O7  UNL     1      24.150  27.778  11.036  1.00  0.00    -0.275 OA
ENDBRANCH  26  39
ENDBRANCH   1  22
TORSDOF 15
ENDMDL