MODEL 3
REMARK VINA RESULT: -8.241855994      1.698      2.274
REMARK  14 active torsions:
REMARK  status: ('A' for Active; 'I' for Inactive)
REMARK    1  A    between atoms: C5_5  and  C6_6
REMARK       I    between atoms: C6_6  and  N1_8
REMARK    2  A    between atoms: N1_8  and  C7_10
REMARK    3  A    between atoms: C7_10  and  C8_11
REMARK    4  A    between atoms: C7_10  and  C12_19
REMARK    5  A    between atoms: C8_11  and  C9_12
REMARK    6  A    between atoms: C9_12  and  C10_13
REMARK    7  A    between atoms: C10_13  and  C11_14
REMARK    8  A    between atoms: C11_14  and  N2_15
REMARK       I    between atoms: C12_19  and  N3_21
REMARK    9  A    between atoms: N3_21  and  C13_23
REMARK   10  A    between atoms: C13_23  and  C14_24
REMARK   11  A    between atoms: C14_24  and  C15_25
REMARK   12  A    between atoms: C15_25  and  N4_26
REMARK   13  A    between atoms: C22_36  and  C23_37
REMARK   14  A    between atoms: C23_37  and  C24_38
ROOT
HETATM    1  C6  UNL     1      20.979  30.576  12.393  1.00  0.00     0.269 C
HETATM    2  O1  UNL     1      21.206  31.502  11.644  1.00  0.00    -0.266 OA
HETATM    3  N1  UNL     1      21.207  30.850  13.811  1.00  0.00    -0.342 N
ATOM      4  H1  UNL     1      21.024  30.108  14.486  1.00  0.00     0.163 HD
ENDROOT
BRANCH   3   5
HETATM    5  C7  UNL     1      21.674  32.111  14.289  1.00  0.00     0.177 C
BRANCH   5   6
HETATM    6  C8  UNL     1      23.174  32.136  14.451  1.00  0.00     0.035 C
BRANCH   6   7
HETATM    7  C9  UNL     1      23.594  33.587  14.446  1.00  0.00     0.004 C
BRANCH   7   8
HETATM    8  C10 UNL     1      24.247  34.033  15.719  1.00  0.00     0.027 C
BRANCH   8   9
HETATM    9  C11 UNL     1      23.335  34.965  16.472  1.00  0.00     0.229 C
BRANCH   9  10
HETATM   10  N2  UNL     1      22.941  34.337  17.732  1.00  0.00    -0.079 N
ATOM     11  H23 UNL     1      23.147  33.338  17.748  1.00  0.00     0.274 HD
ATOM     12  H22 UNL     1      23.538  34.619  18.509  1.00  0.00     0.274 HD
ATOM     13  H21 UNL     1      21.956  34.532  17.909  1.00  0.00     0.274 HD
ENDBRANCH   9  10
ENDBRANCH   8   9
ENDBRANCH   7   8
ENDBRANCH   6   7
ENDBRANCH   5   6
BRANCH   5  14
HETATM   14  C12 UNL     1      20.952  32.539  15.525  1.00  0.00     0.240 C
HETATM   15  O2  UNL     1      21.111  31.832  16.548  1.00  0.00    -0.271 OA
HETATM   16  N3  UNL     1      20.115  33.676  15.596  1.00  0.00    -0.359 N
ATOM     17  H3  UNL     1      19.987  34.259  14.769  1.00  0.00     0.162 HD
BRANCH  16  18
HETATM   18  C13 UNL     1      19.445  34.019  16.811  1.00  0.00     0.124 C
BRANCH  18  19
HETATM   19  C14 UNL     1      18.068  33.462  16.992  1.00  0.00     0.050 C
BRANCH  19  20
HETATM   20  C15 UNL     1      17.241  33.921  15.775  1.00  0.00     0.274 C
BRANCH  20  21
HETATM   21  N4  UNL     1      16.444  32.768  15.366  1.00  0.00     0.092 N
HETATM   22  C16 UNL     1      16.500  32.610  13.915  1.00  0.00     0.298 C
HETATM   23  C17 UNL     1      17.849  32.138  13.452  1.00  0.00     0.198 C
HETATM   24  O3  UNL     1      18.261  30.993  14.129  1.00  0.00    -0.388 OA
HETATM   25  C18 UNL     1      17.270  30.482  14.959  1.00  0.00     0.198 C
HETATM   26  C19 UNL     1      16.965  31.554  16.006  1.00  0.00     0.298 C
ENDBRANCH  20  21
ENDBRANCH  19  20
ENDBRANCH  18  19
ENDBRANCH  16  18
ENDBRANCH   5  14
ENDBRANCH   3   5
BRANCH   1  27
HETATM   27  C5  UNL     1      20.511  29.259  12.005  1.00  0.00     0.112 A
HETATM   28  C4  UNL     1      21.359  28.212  11.723  1.00  0.00     0.011 A
HETATM   29  C3  UNL     1      22.704  28.350  11.763  1.00  0.00     0.039 A
HETATM   30  C29 UNL     1      20.799  26.942  11.430  1.00  0.00     0.007 A
HETATM   31  C2  UNL     1      23.525  27.268  11.530  1.00  0.00     0.006 A
HETATM   32  C1  UNL     1      25.022  27.409  11.579  1.00  0.00     0.068 C
HETATM   33  N6  UNL     1      22.973  26.096  11.269  1.00  0.00    -0.363 N
HETATM   34  C30 UNL     1      21.614  25.862  11.206  1.00  0.00     0.017 A
ATOM     35  H6  UNL     1      23.598  25.307  11.101  1.00  0.00     0.165 HD
HETATM   36  C31 UNL     1      21.160  24.485  11.089  1.00  0.00     0.069 C
HETATM   37  C22 UNL     1      19.425  26.811  11.424  1.00  0.00    -0.022 A
HETATM   38  C20 UNL     1      18.589  27.915  11.729  1.00  0.00     0.013 A
HETATM   39  N5  UNL     1      19.175  29.061  11.997  1.00  0.00    -0.354 N
HETATM   40  C21 UNL     1      17.141  27.754  11.861  1.00  0.00     0.068 C
ATOM     41  H5  UNL     1      18.577  29.859  12.214  1.00  0.00     0.166 HD
BRANCH  37  42
HETATM   42  C23 UNL     1      18.739  25.636  10.932  1.00  0.00     0.046 C
BRANCH  42  43
HETATM   43  C24 UNL     1      18.214  26.092   9.529  1.00  0.00    -0.010 C
HETATM   44  C25 UNL     1      17.460  24.932   8.869  1.00  0.00     0.005 C
HETATM   45  C26 UNL     1      17.263  25.424   7.454  1.00  0.00     0.000 C
HETATM   46  C27 UNL     1      18.547  26.153   7.160  1.00  0.00     0.000 C
HETATM   47  C28 UNL     1      19.308  26.265   8.484  1.00  0.00     0.005 C
ENDBRANCH  42  43
ENDBRANCH  37  42
ENDBRANCH   1  27
TORSDOF 14
ENDMDL