MODEL 4
REMARK VINA RESULT: -9.402568579      3.030      8.988
REMARK  13 active torsions:
REMARK  status: ('A' for Active; 'I' for Inactive)
REMARK    1  A    between atoms: C2_2  and  C3_3
REMARK    2  A    between atoms: C4_4  and  C5_5
REMARK    3  A    between atoms: C5_5  and  C6_6
REMARK    4  A    between atoms: C6_6  and  C7_7
REMARK    5  A    between atoms: C7_7  and  C8_8
REMARK    6  A    between atoms: C8_8  and  C9_9
REMARK    7  A    between atoms: N4_25  and  C18_26
REMARK    8  A    between atoms: C18_26  and  C19_27
REMARK    9  A    between atoms: C19_27  and  N5_28
REMARK   10  A    between atoms: N5_28  and  N6_30
REMARK   11  A    between atoms: C21_35  and  C22_36
REMARK       I    between atoms: C22_36  and  N8_38
REMARK   12  A    between atoms: N8_38  and  C23_40
REMARK   13  A    between atoms: C23_40  and  C24_41
ROOT
HETATM    1  C3  UNL     1      17.934  26.122  10.019  1.00  0.00     0.053 A
HETATM    2  C4  UNL     1      17.371  26.852  11.059  1.00  0.00     0.051 A
HETATM    3  N2  UNL     1      18.048  26.443  12.181  1.00  0.00    -0.288 N
ATOM      4  H2  UNL     1      17.884  26.780  13.129  1.00  0.00     0.188 HD
HETATM    5  N3  UNL     1      18.931  25.554  11.835  1.00  0.00    -0.240 N
ATOM      6  H3  UNL     1      19.567  25.090  12.485  1.00  0.00     0.208 HD
HETATM    7  N4  UNL     1      18.900  25.326  10.530  1.00  0.00    -0.279 N
ENDROOT
BRANCH   7   8
HETATM    8  C18 UNL     1      19.763  24.412   9.818  1.00  0.00     0.171 C
BRANCH   8   9
HETATM    9  C19 UNL     1      21.110  25.106   9.507  1.00  0.00     0.163 C
BRANCH   9  10
HETATM   10  N5  UNL     1      21.993  24.988  10.587  1.00  0.00    -0.306 N
ATOM     11  H5  UNL     1      21.800  24.170  11.167  1.00  0.00     0.182 HD
BRANCH  10  12
HETATM   12  N6  UNL     1      23.062  25.724  11.044  1.00  0.00    -0.137 N
HETATM   13  O2  UNL     1      24.325  25.225  10.984  1.00  0.00    -0.209 OA
HETATM   14  C20 UNL     1      25.172  26.072  11.451  1.00  0.00     0.263 A
HETATM   15  N7  UNL     1      24.475  27.142  11.826  1.00  0.00    -0.324 N
HETATM   16  C21 UNL     1      23.123  26.923  11.570  1.00  0.00     0.221 A
ATOM     17  H7  UNL     1      24.868  27.989  12.236  1.00  0.00     0.169 HD
BRANCH  16  18
HETATM   18  C22 UNL     1      22.111  27.904  11.928  1.00  0.00     0.289 C
HETATM   19  O3  UNL     1      20.892  27.833  11.755  1.00  0.00    -0.264 OA
HETATM   20  N8  UNL     1      22.644  29.100  12.566  1.00  0.00    -0.354 N
ATOM     21  H8  UNL     1      23.645  29.202  12.736  1.00  0.00     0.162 HD
BRANCH  20  22
HETATM   22  C23 UNL     1      21.721  30.132  12.950  1.00  0.00     0.127 C
BRANCH  22  23
HETATM   23  C24 UNL     1      22.214  30.890  14.128  1.00  0.00     0.003 C
HETATM   24  C25 UNL     1      22.550  32.332  13.729  1.00  0.00     0.006 C
HETATM   25  C26 UNL     1      23.319  32.939  14.885  1.00  0.00     0.000 C
HETATM   26  C27 UNL     1      22.649  32.626  16.211  1.00  0.00     0.000 C
HETATM   27  C28 UNL     1      21.219  32.187  16.017  1.00  0.00     0.000 C
HETATM   28  C29 UNL     1      21.080  30.957  15.154  1.00  0.00     0.006 C
ENDBRANCH  22  23
ENDBRANCH  20  22
ENDBRANCH  16  18
ENDBRANCH  10  12
ENDBRANCH   9  10
ENDBRANCH   8   9
ENDBRANCH   7   8
BRANCH   1  29
HETATM   29  C2  UNL     1      17.532  26.123   8.597  1.00  0.00     0.056 C
HETATM   30  C1  UNL     1      18.079  27.234   7.766  1.00  0.00     0.011 C
ENDBRANCH   1  29
BRANCH   2  31
HETATM   31  C5  UNL     1      16.354  27.883  11.040  1.00  0.00     0.061 C
BRANCH  31  32
HETATM   32  C6  UNL     1      16.686  29.284  11.233  1.00  0.00     0.006 C
BRANCH  32  33
HETATM   33  C7  UNL     1      18.013  29.884  11.209  1.00  0.00     0.002 C
BRANCH  33  34
HETATM   34  C8  UNL     1      18.569  30.280  12.517  1.00  0.00     0.025 C
BRANCH  34  35
HETATM   35  C9  UNL     1      17.579  31.047  13.381  1.00  0.00     0.084 C
HETATM   36  C10 UNL     1      17.476  30.515  14.755  1.00  0.00     0.026 C
HETATM   37  C11 UNL     1      16.539  31.298  15.649  1.00  0.00     0.021 C
HETATM   38  C12 UNL     1      16.799  32.758  15.670  1.00  0.00     0.041 C
HETATM   39  C13 UNL     1      15.501  33.465  15.999  1.00  0.00     0.019 C
HETATM   40  C16 UNL     1      17.798  33.180  16.717  1.00  0.00     0.019 C
HETATM   41  C17 UNL     1      17.281  33.280  14.361  1.00  0.00     0.226 C
HETATM   42  C14 UNL     1      15.740  34.118  17.348  1.00  0.00     0.001 C
HETATM   43  C15 UNL     1      17.218  34.491  17.254  1.00  0.00     0.001 C
HETATM   44  O1  UNL     1      17.083  34.489  14.122  1.00  0.00    -0.273 OA
HETATM   45  N1  UNL     1      17.938  32.445  13.418  1.00  0.00    -0.356 N
ATOM     46  H1  UNL     1      18.643  32.823  12.785  1.00  0.00     0.162 HD
ENDBRANCH  34  35
ENDBRANCH  33  34
ENDBRANCH  32  33
ENDBRANCH  31  32
ENDBRANCH   2  31
TORSDOF 13
ENDMDL