MODEL 5
REMARK VINA RESULT: -7.740460220      1.991      3.103
REMARK  18 active torsions:
REMARK  status: ('A' for Active; 'I' for Inactive)
REMARK    1  A    between atoms: C3_3  and  C4_4
REMARK    2  A    between atoms: C8_8  and  C9_9
REMARK    3  A    between atoms: C9_9  and  C10_10
REMARK    4  A    between atoms: C10_10  and  O1_11
REMARK    5  A    between atoms: C10_10  and  N1_13
REMARK    6  A    between atoms: N1_13  and  C11_15
REMARK    7  A    between atoms: C12_20  and  C13_21
REMARK    8  A    between atoms: C13_21  and  C14_22
REMARK    9  A    between atoms: C14_22  and  C15_23
REMARK   10  A    between atoms: C15_23  and  C16_24
REMARK   11  A    between atoms: C16_24  and  C17_25
REMARK       I    between atoms: N6_31  and  C19_33
REMARK   12  A    between atoms: C19_33  and  C20_35
REMARK   13  A    between atoms: C20_35  and  C21_36
REMARK   14  A    between atoms: C21_36  and  C22_37
REMARK   15  A    between atoms: C22_37  and  C23_38
REMARK   16  A    between atoms: C23_38  and  C24_39
REMARK   17  A    between atoms: C24_39  and  N7_40
REMARK   18  A    between atoms: C25_46  and  C26_47
ROOT
HETATM    1  C1  UNL     1      17.661  24.896   7.161  1.00  0.00     0.112 C
HETATM    2  C2  UNL     1      17.672  25.986   8.136  1.00  0.00    -0.105 C
HETATM    3  C3  UNL     1      17.693  26.886   8.968  1.00  0.00    -0.067 C
ENDROOT
BRANCH   3   4
HETATM    4  C4  UNL     1      17.749  27.944   9.951  1.00  0.00     0.024 A
HETATM    5  C5  UNL     1      16.623  28.619  10.365  1.00  0.00     0.021 A
HETATM    6  C6  UNL     1      16.696  29.636  11.293  1.00  0.00     0.002 A
HETATM    7  C7  UNL     1      17.922  29.969  11.806  1.00  0.00     0.008 A
HETATM    8  C8  UNL     1      19.076  29.290  11.394  1.00  0.00    -0.043 A
HETATM    9  C25 UNL     1      19.010  28.289  10.481  1.00  0.00    -0.033 A
BRANCH   8  10
HETATM   10  C9  UNL     1      20.334  29.711  12.033  1.00  0.00     0.123 C
BRANCH  10  11
HETATM   11  C10 UNL     1      20.333  29.364  13.459  1.00  0.00     0.121 C
BRANCH  11  12
HETATM   12  O1  UNL     1      20.746  28.152  13.713  1.00  0.00    -0.349 OA
ATOM     13  H1  UNL     1      20.829  27.956  14.638  1.00  0.00     0.219 HD
ENDBRANCH  11  12
BRANCH  11  14
HETATM   14  N1  UNL     1      19.976  30.079  14.569  1.00  0.00    -0.320 N
ATOM     15  H1  UNL     1      18.990  30.020  14.822  1.00  0.00     0.169 HD
BRANCH  14  16
HETATM   16  C11 UNL     1      20.688  30.809  15.334  1.00  0.00     0.166 A
HETATM   17  N2  UNL     1      20.827  30.931  16.651  1.00  0.00    -0.279 N
HETATM   18  N3  UNL     1      21.633  31.780  17.121  1.00  0.00    -0.296 N
ATOM     19  H2  UNL     1      20.284  30.339  17.279  1.00  0.00     0.189 HD
HETATM   20  C12 UNL     1      22.354  32.563  16.360  1.00  0.00     0.069 A
ATOM     21  H3  UNL     1      21.726  31.859  18.133  1.00  0.00     0.187 HD
HETATM   22  S2  UNL     1      21.826  32.031  14.795  1.00  0.00    -0.038 SA
BRANCH  20  23
HETATM   23  C13 UNL     1      23.355  33.618  16.657  1.00  0.00     0.066 C
BRANCH  23  24
HETATM   24  C14 UNL     1      22.797  34.865  17.162  1.00  0.00     0.007 C
BRANCH  24  25
HETATM   25  C15 UNL     1      21.852  34.855  18.279  1.00  0.00     0.007 C
BRANCH  25  26
HETATM   26  C16 UNL     1      20.547  35.526  18.228  1.00  0.00     0.066 C
BRANCH  26  27
HETATM   27  C17 UNL     1      19.778  34.869  17.086  1.00  0.00     0.069 A
HETATM   28  N4  UNL     1      19.913  35.132  15.802  1.00  0.00    -0.296 N
HETATM   29  N5  UNL     1      19.204  34.514  14.949  1.00  0.00    -0.279 N
ATOM     30  H4  UNL     1      20.588  35.832  15.494  1.00  0.00     0.187 HD
HETATM   31  C18 UNL     1      18.329  33.603  15.377  1.00  0.00     0.167 A
ATOM     32  H5  UNL     1      19.302  34.712  13.953  1.00  0.00     0.189 HD
HETATM   33  N6  UNL     1      17.513  32.868  14.655  1.00  0.00    -0.306 N
HETATM   34  S1  UNL     1      18.572  33.673  17.077  1.00  0.00    -0.038 SA
HETATM   35  C19 UNL     1      16.662  31.952  15.371  1.00  0.00     0.223 C
ATOM     36  H6  UNL     1      17.484  32.943  13.639  1.00  0.00     0.171 HD
HETATM   37  O2  UNL     1      17.090  30.772  15.470  1.00  0.00    -0.273 OA
BRANCH  35  38
HETATM   38  C20 UNL     1      15.393  32.320  15.961  1.00  0.00     0.103 C
BRANCH  38  39
HETATM   39  C21 UNL     1      15.104  33.782  15.870  1.00  0.00     0.009 C
BRANCH  39  40
HETATM   40  C22 UNL     1      14.928  34.520  17.127  1.00  0.00     0.002 C
BRANCH  40  41
HETATM   41  C23 UNL     1      15.203  35.962  17.187  1.00  0.00     0.027 C
BRANCH  41  42
HETATM   42  C24 UNL     1      15.938  36.210  18.536  1.00  0.00     0.229 C
BRANCH  42  43
HETATM   43  N7  UNL     1      15.596  37.557  18.958  1.00  0.00    -0.079 N
ATOM     44  H73 UNL     1      16.040  38.281  18.393  1.00  0.00     0.274 HD
ATOM     45  H72 UNL     1      14.629  37.810  18.754  1.00  0.00     0.274 HD
ATOM     46  H71 UNL     1      15.828  37.622  19.950  1.00  0.00     0.274 HD
ENDBRANCH  42  43
ENDBRANCH  41  42
ENDBRANCH  40  41
ENDBRANCH  39  40
ENDBRANCH  38  39
ENDBRANCH  35  38
ENDBRANCH  26  27
ENDBRANCH  25  26
ENDBRANCH  24  25
ENDBRANCH  23  24
ENDBRANCH  20  23
ENDBRANCH  14  16
ENDBRANCH  11  14
ENDBRANCH  10  11
ENDBRANCH   8  10
BRANCH   9  47
HETATM   47  C26 UNL     1      20.185  27.581   9.985  1.00  0.00     0.036 C
HETATM   48  C27 UNL     1      20.569  26.347  10.768  1.00  0.00     0.010 C
ENDBRANCH   9  47
ENDBRANCH   3   4
TORSDOF 18
ENDMDL