MODEL 5
REMARK VINA RESULT: -7.104616647      3.995     11.169
REMARK  18 active torsions:
REMARK  status: ('A' for Active; 'I' for Inactive)
REMARK    1  A    between atoms: C2_2  and  C3_3
REMARK    2  A    between atoms: C3_3  and  C4_4
REMARK    3  A    between atoms: C4_4  and  C5_5
REMARK    4  A    between atoms: C5_5  and  C6_6
REMARK    5  A    between atoms: C6_6  and  C7_7
REMARK    6  A    between atoms: C7_7  and  C8_8
REMARK    7  A    between atoms: C8_8  and  C9_9
REMARK    8  A    between atoms: C9_9  and  C10_10
REMARK    9  A    between atoms: C10_10  and  C11_11
REMARK   10  A    between atoms: C12_12  and  C13_13
REMARK   11  A    between atoms: C13_13  and  O1_14
REMARK   12  A    between atoms: O1_14  and  C14_15
REMARK   13  A    between atoms: C16_17  and  C17_18
REMARK       I    between atoms: C17_18  and  N1_20
REMARK   14  A    between atoms: C19_22  and  O3_23
REMARK   15  A    between atoms: C21_26  and  O4_27
REMARK   16  A    between atoms: C22_30  and  C23_31
REMARK   17  A    between atoms: C27_35  and  O6_36
REMARK   18  A    between atoms: C28_38  and  S1_39
ROOT
HETATM    1  C14 UNL     1      19.352  29.155  11.065  1.00  0.00     0.142 C
HETATM    2  C15 UNL     1      18.753  27.819  11.287  1.00  0.00     0.075 C
HETATM    3  C16 UNL     1      19.609  26.628  10.885  1.00  0.00     0.216 C
HETATM    4  O5  UNL     1      20.701  26.894  10.153  1.00  0.00    -0.368 OA
HETATM    5  C22 UNL     1      21.643  27.777  10.500  1.00  0.00     0.160 C
HETATM    6  C27 UNL     1      21.586  28.433  11.825  1.00  0.00     0.164 C
HETATM    7  C28 UNL     1      20.460  29.381  12.063  1.00  0.00     0.107 C
ENDROOT
BRANCH   1   8
HETATM    8  O1  UNL     1      18.372  30.099  11.091  1.00  0.00    -0.373 OA
BRANCH   8   9
HETATM    9  C13 UNL     1      17.346  29.997  11.955  1.00  0.00     0.261 C
BRANCH   9  10
HETATM   10  C12 UNL     1      17.569  30.988  13.041  1.00  0.00    -0.081 C
HETATM   11  C11 UNL     1      17.740  31.811  13.904  1.00  0.00    -0.104 C
BRANCH  11  12
HETATM   12  C10 UNL     1      17.943  32.843  14.945  1.00  0.00     0.094 C
BRANCH  12  13
HETATM   13  C9  UNL     1      17.007  34.010  14.723  1.00  0.00     0.012 C
BRANCH  13  14
HETATM   14  C8  UNL     1      15.583  33.718  15.128  1.00  0.00     0.001 C
BRANCH  14  15
HETATM   15  C7  UNL     1      15.487  32.994  16.445  1.00  0.00     0.000 C
BRANCH  15  16
HETATM   16  C6  UNL     1      15.484  33.982  17.582  1.00  0.00     0.000 C
BRANCH  16  17
HETATM   17  C5  UNL     1      14.540  35.118  17.394  1.00  0.00     0.000 C
BRANCH  17  18
HETATM   18  C4  UNL     1      15.171  36.417  17.825  1.00  0.00     0.000 C
BRANCH  18  19
HETATM   19  C3  UNL     1      16.542  36.206  18.364  1.00  0.00    -0.000 C
BRANCH  19  20
HETATM   20  C2  UNL     1      17.551  37.116  17.647  1.00  0.00    -0.005 C
HETATM   21  C1  UNL     1      16.810  38.188  16.901  1.00  0.00     0.005 C
ENDBRANCH  19  20
ENDBRANCH  18  19
ENDBRANCH  17  18
ENDBRANCH  16  17
ENDBRANCH  15  16
ENDBRANCH  14  15
ENDBRANCH  13  14
ENDBRANCH  12  13
ENDBRANCH  11  12
ENDBRANCH   9  10
ENDBRANCH   8   9
ENDBRANCH   1   8
BRANCH   7  22
HETATM   22  S1  UNL     1      21.087  31.079  11.990  1.00  0.00    -0.163 SA
HETATM   23  C29 UNL     1      21.604  31.697  13.583  1.00  0.00     0.090 C
ENDBRANCH   7  22
BRANCH   3  24
HETATM   24  C17 UNL     1      18.733  25.526  10.424  1.00  0.00     0.251 C
HETATM   25  O2  UNL     1      17.762  25.254  11.205  1.00  0.00    -0.270 OA
HETATM   26  N1  UNL     1      18.874  24.796   9.258  1.00  0.00    -0.321 N
HETATM   27  C18 UNL     1      17.958  23.708   8.850  1.00  0.00     0.160 C
HETATM   28  C21 UNL     1      19.894  24.928   8.253  1.00  0.00     0.225 C
HETATM   29  C19 UNL     1      18.184  23.504   7.372  1.00  0.00     0.140 C
HETATM   30  C20 UNL     1      19.670  23.787   7.259  1.00  0.00     0.087 C
BRANCH  29  31
HETATM   31  O3  UNL     1      17.881  22.184   7.009  1.00  0.00    -0.394 OA
ATOM     32  H3  UNL     1      18.330  21.951   6.205  1.00  0.00     0.210 HD
ENDBRANCH  29  31
BRANCH  28  33
HETATM   33  O4  UNL     1      19.812  26.115   7.522  1.00  0.00    -0.377 OA
ATOM     34  H4  UNL     1      18.946  26.507   7.529  1.00  0.00     0.212 HD
ENDBRANCH  28  33
ENDBRANCH   3  24
BRANCH   6  35
HETATM   35  O6  UNL     1      21.769  27.492  12.850  1.00  0.00    -0.392 OA
ATOM     36  H6  UNL     1      20.931  27.166  13.156  1.00  0.00     0.210 HD
ENDBRANCH   6  35
BRANCH   5  37
HETATM   37  C23 UNL     1      23.024  27.090  10.397  1.00  0.00    -0.023 C
HETATM   38  C24 UNL     1      22.985  25.658  10.799  1.00  0.00     0.017 C
HETATM   39  C25 UNL     1      23.526  27.231   8.989  1.00  0.00     0.017 C
HETATM   40  C26 UNL     1      24.039  27.819  11.289  1.00  0.00     0.017 C
ENDBRANCH   5  37
TORSDOF 18
ENDMDL