MODEL 3
REMARK VINA RESULT: -8.705591643      1.884      7.676
REMARK  15 active torsions:
REMARK  status: ('A' for Active; 'I' for Inactive)
REMARK    1  A    between atoms: C2_2  and  C3_3
REMARK    2  A    between atoms: C3_3  and  N1_6
REMARK       I    between atoms: N1_6  and  C6_8
REMARK    3  A    between atoms: C6_8  and  C7_10
REMARK    4  A    between atoms: C7_10  and  C9_12
REMARK    5  A    between atoms: C9_12  and  C10_13
REMARK    6  A    between atoms: C10_13  and  C11_15
REMARK    7  A    between atoms: C11_15  and  C12_16
REMARK    8  A    between atoms: C11_15  and  C24_34
REMARK       I    between atoms: C12_16  and  N2_18
REMARK    9  A    between atoms: N2_18  and  C13_20
REMARK   10  A    between atoms: C13_20  and  C14_21
REMARK   11  A    between atoms: C13_20  and  C21_28
REMARK   12  A    between atoms: C14_21  and  C15_22
REMARK   13  A    between atoms: C21_28  and  C22_30
REMARK   14  A    between atoms: C22_30  and  O6_32
REMARK   15  A    between atoms: C24_34  and  C26_36
ROOT
HETATM    1  C11 UNL     1      21.768  31.608  15.032  1.00  0.00     0.153 C
ENDROOT
BRANCH   1   2
HETATM    2  C10 UNL     1      22.186  31.126  13.655  1.00  0.00     0.141 C
HETATM    3  O2  UNL     1      21.730  31.693  12.690  1.00  0.00    -0.297 OA
BRANCH   2   4
HETATM    4  C9  UNL     1      23.112  30.006  13.482  1.00  0.00     0.093 C
BRANCH   4   5
HETATM    5  C7  UNL     1      22.528  28.722  13.005  1.00  0.00     0.081 C
HETATM    6  C8  UNL     1      21.115  28.517  13.553  1.00  0.00     0.020 C
BRANCH   5   7
HETATM    7  C6  UNL     1      22.520  28.460  11.583  1.00  0.00     0.222 C
HETATM    8  N1  UNL     1      23.534  27.628  11.002  1.00  0.00    -0.352 N
ATOM      9  H1  UNL     1      24.247  27.224  11.609  1.00  0.00     0.163 HD
HETATM   10  O1  UNL     1      21.671  28.925  10.809  1.00  0.00    -0.273 OA
BRANCH   8  11
HETATM   11  C3  UNL     1      23.580  27.345   9.590  1.00  0.00     0.025 C
HETATM   12  C4  UNL     1      22.346  26.604   9.155  1.00  0.00     0.038 C
HETATM   13  C5  UNL     1      23.649  28.637   8.780  1.00  0.00     0.038 C
BRANCH  11  14
HETATM   14  C2  UNL     1      24.803  26.522   9.290  1.00  0.00     0.026 C
HETATM   15  C1  UNL     1      25.746  26.444  10.462  1.00  0.00     0.007 C
ENDBRANCH  11  14
ENDBRANCH   8  11
ENDBRANCH   5   7
ENDBRANCH   4   5
ENDBRANCH   2   4
ENDBRANCH   1   2
BRANCH   1  16
HETATM   16  C12 UNL     1      20.416  31.179  15.357  1.00  0.00     0.230 C
HETATM   17  O3  UNL     1      20.013  30.558  16.365  1.00  0.00    -0.273 OA
HETATM   18  N2  UNL     1      19.377  31.492  14.413  1.00  0.00    -0.348 N
ATOM     19  H2  UNL     1      19.609  32.013  13.568  1.00  0.00     0.163 HD
BRANCH  18  20
HETATM   20  C13 UNL     1      17.966  31.066  14.646  1.00  0.00     0.165 C
BRANCH  20  21
HETATM   21  C14 UNL     1      17.151  32.306  14.489  1.00  0.00     0.038 C
BRANCH  21  22
HETATM   22  C15 UNL     1      17.463  33.509  15.260  1.00  0.00    -0.012 C
HETATM   23  C16 UNL     1      17.855  33.311  16.670  1.00  0.00     0.005 C
HETATM   24  C17 UNL     1      17.335  34.430  17.582  1.00  0.00     0.000 C
HETATM   25  C18 UNL     1      15.853  34.591  17.537  1.00  0.00     0.000 C
HETATM   26  C19 UNL     1      15.276  34.188  16.208  1.00  0.00     0.000 C
HETATM   27  C20 UNL     1      16.285  34.489  15.127  1.00  0.00     0.005 C
ENDBRANCH  21  22
ENDBRANCH  20  21
BRANCH  20  28
HETATM   28  C21 UNL     1      17.741  29.994  13.664  1.00  0.00     0.246 C
HETATM   29  O4  UNL     1      17.556  28.788  14.069  1.00  0.00    -0.284 OA
BRANCH  28  30
HETATM   30  C22 UNL     1      17.695  30.160  12.221  1.00  0.00     0.331 C
HETATM   31  O5  UNL     1      18.700  30.677  11.622  1.00  0.00    -0.256 OA
BRANCH  30  32
HETATM   32  O6  UNL     1      16.645  29.801  11.427  1.00  0.00    -0.320 OA
HETATM   33  C23 UNL     1      16.711  29.174  10.178  1.00  0.00     0.213 C
ENDBRANCH  30  32
ENDBRANCH  28  30
ENDBRANCH  20  28
ENDBRANCH  18  20
ENDBRANCH   1  16
BRANCH   1  34
HETATM   34  C24 UNL     1      22.058  33.065  15.062  1.00  0.00     0.032 C
HETATM   35  C25 UNL     1      23.565  33.248  14.883  1.00  0.00     0.013 C
BRANCH  34  36
HETATM   36  C26 UNL     1      21.552  33.868  16.199  1.00  0.00     0.190 C
HETATM   37  C27 UNL     1      22.574  34.123  17.281  1.00  0.00     0.033 C
HETATM   38  C28 UNL     1      21.988  35.061  18.314  1.00  0.00     0.004 C
HETATM   39  C29 UNL     1      21.711  36.377  17.659  1.00  0.00     0.027 C
HETATM   40  C30 UNL     1      21.647  36.284  16.148  1.00  0.00     0.232 C
HETATM   41  N3  UNL     1      20.995  35.111  15.688  1.00  0.00    -0.070 N
ATOM     42  H32 UNL     1      20.971  35.096  14.668  1.00  0.00     0.277 HD
ATOM     43  H31 UNL     1      19.996  35.160  15.887  1.00  0.00     0.277 HD
ENDBRANCH  34  36
ENDBRANCH   1  34
TORSDOF 15
ENDMDL