MODEL 3
REMARK VINA RESULT: -8.489893959      5.494      9.791
REMARK  16 active torsions:
REMARK  status: ('A' for Active; 'I' for Inactive)
REMARK    1  A    between atoms: C2_2  and  C3_3
REMARK    2  A    between atoms: C6_6  and  C8_8
REMARK    3  A    between atoms: C8_8  and  O1_9
REMARK    4  A    between atoms: O1_9  and  C9_10
REMARK    5  A    between atoms: C11_13  and  O3_14
REMARK    6  A    between atoms: C12_16  and  C13_17
REMARK    7  A    between atoms: C13_17  and  C14_18
REMARK    8  A    between atoms: C18_22  and  C19_23
REMARK    9  A    between atoms: C19_23  and  C20_24
REMARK   10  A    between atoms: C21_25  and  C23_27
REMARK   11  A    between atoms: C23_27  and  C24_28
REMARK   12  A    between atoms: C24_28  and  C25_29
REMARK   13  A    between atoms: C25_29  and  N1_30
REMARK   14  A    between atoms: C25_29  and  C26_34
REMARK       I    between atoms: C26_34  and  N2_36
REMARK   15  A    between atoms: N2_36  and  S1_38
REMARK   16  A    between atoms: S1_38  and  C27_41
ROOT
HETATM    1  C3  UNL     1      18.886  28.613  13.503  1.00  0.00     0.013 C
HETATM    2  C4  UNL     1      19.742  28.898  14.748  1.00  0.00     0.015 C
HETATM    3  C5  UNL     1      20.285  30.285  14.546  1.00  0.00     0.011 C
HETATM    4  C6  UNL     1      21.533  30.480  13.781  1.00  0.00     0.009 C
HETATM    5  C7  UNL     1      22.379  31.613  14.340  1.00  0.00     0.020 C
HETATM    6  C11 UNL     1      20.665  30.926  12.597  1.00  0.00     0.138 C
HETATM    7  C12 UNL     1      19.456  30.943  13.457  1.00  0.00    -0.001 C
HETATM    8  C18 UNL     1      18.363  29.986  13.169  1.00  0.00     0.008 C
ENDROOT
BRANCH   8   9
HETATM    9  C19 UNL     1      17.624  30.110  11.914  1.00  0.00     0.033 C
BRANCH   9  10
HETATM   10  C20 UNL     1      18.110  29.470  10.708  1.00  0.00    -0.024 C
HETATM   11  C21 UNL     1      17.293  28.758   9.949  1.00  0.00    -0.087 C
HETATM   12  C22 UNL     1      15.848  28.603  10.330  1.00  0.00     0.043 C
BRANCH  11  13
HETATM   13  C23 UNL     1      17.801  28.084   8.691  1.00  0.00     0.036 C
BRANCH  13  14
HETATM   14  C24 UNL     1      17.939  26.629   8.987  1.00  0.00     0.047 C
BRANCH  14  15
HETATM   15  C25 UNL     1      18.261  25.790   7.772  1.00  0.00     0.276 C
BRANCH  15  16
HETATM   16  N1  UNL     1      18.472  26.581   6.592  1.00  0.00    -0.066 N
ATOM     17  H13 UNL     1      18.463  25.999   5.754  1.00  0.00     0.275 HD
ATOM     18  H12 UNL     1      17.662  27.167   6.395  1.00  0.00     0.275 HD
ATOM     19  H11 UNL     1      19.324  27.140   6.639  1.00  0.00     0.275 HD
ENDBRANCH  15  16
BRANCH  15  20
HETATM   20  C26 UNL     1      19.443  24.968   8.120  1.00  0.00     0.261 C
HETATM   21  O4  UNL     1      19.332  23.861   8.687  1.00  0.00    -0.270 OA
HETATM   22  N2  UNL     1      20.731  25.457   7.801  1.00  0.00    -0.252 N
ATOM     23  H2  UNL     1      20.840  26.360   7.339  1.00  0.00     0.181 HD
BRANCH  22  24
HETATM   24  S1  UNL     1      22.126  24.503   8.204  1.00  0.00     0.237 S
HETATM   25  O5  UNL     1      22.219  24.305   9.701  1.00  0.00    -0.205 OA
HETATM   26  O6  UNL     1      22.040  23.167   7.507  1.00  0.00    -0.205 OA
BRANCH  24  27
HETATM   27  C27 UNL     1      23.588  25.367   7.683  1.00  0.00     0.130 A
HETATM   28  C28 UNL     1      23.685  26.788   8.210  1.00  0.00     0.023 A
HETATM   29  C29 UNL     1      24.636  25.715   8.691  1.00  0.00     0.023 A
ENDBRANCH  24  27
ENDBRANCH  22  24
ENDBRANCH  15  20
ENDBRANCH  14  15
ENDBRANCH  13  14
ENDBRANCH  11  13
ENDBRANCH   9  10
ENDBRANCH   8   9
BRANCH   1  30
HETATM   30  C2  UNL     1      17.806  27.678  13.878  1.00  0.00    -0.032 C
HETATM   31  C1  UNL     1      17.188  26.815  13.130  1.00  0.00     0.007 C
ENDBRANCH   1  30
BRANCH   7  32
HETATM   32  C13 UNL     1      19.006  32.345  13.779  1.00  0.00     0.040 C
BRANCH  32  33
HETATM   33  C14 UNL     1      17.542  32.410  14.139  1.00  0.00    -0.024 C
HETATM   34  C15 UNL     1      17.149  32.508  15.384  1.00  0.00    -0.091 C
HETATM   35  C16 UNL     1      18.092  32.565  16.540  1.00  0.00     0.042 C
HETATM   36  C17 UNL     1      15.656  32.564  15.636  1.00  0.00     0.042 C
ENDBRANCH  32  33
ENDBRANCH   7  32
BRANCH   6  37
HETATM   37  O3  UNL     1      21.093  32.159  12.153  1.00  0.00    -0.394 OA
ATOM     38  H3  UNL     1      21.601  32.049  11.357  1.00  0.00     0.210 HD
ENDBRANCH   6  37
BRANCH   4  39
HETATM   39  C8  UNL     1      22.361  29.314  13.383  1.00  0.00     0.191 C
BRANCH  39  40
HETATM   40  O1  UNL     1      22.346  29.021  12.021  1.00  0.00    -0.321 OA
BRANCH  40  41
HETATM   41  C9  UNL     1      22.258  27.695  11.622  1.00  0.00     0.254 C
HETATM   42  C10 UNL     1      20.990  27.148  11.034  1.00  0.00     0.126 C
HETATM   43  O2  UNL     1      23.236  26.910  11.738  1.00  0.00    -0.266 OA
ENDBRANCH  40  41
ENDBRANCH  39  40
ENDBRANCH   4  39
TORSDOF 16
ENDMDL