MODEL 4
REMARK VINA RESULT: -6.988930501      3.362      5.844
REMARK  14 active torsions:
REMARK  status: ('A' for Active; 'I' for Inactive)
REMARK    1  A    between atoms: C2_2  and  C4_4
REMARK    2  A    between atoms: C6_6  and  O1_7
REMARK    3  A    between atoms: C9_10  and  O2_11
REMARK    4  A    between atoms: C12_14  and  C13_15
REMARK    5  A    between atoms: C13_15  and  O3_18
REMARK    6  A    between atoms: C16_20  and  N1_21
REMARK       I    between atoms: N1_21  and  C17_23
REMARK    7  A    between atoms: C17_23  and  C18_25
REMARK    8  A    between atoms: C18_25  and  N2_26
REMARK    9  A    between atoms: C18_25  and  C23_35
REMARK       I    between atoms: N2_26  and  C19_28
REMARK   10  A    between atoms: C19_28  and  O6_30
REMARK   11  A    between atoms: O6_30  and  C20_31
REMARK   12  A    between atoms: C20_31  and  C21_32
REMARK   13  A    between atoms: C21_32  and  O7_33
REMARK   14  A    between atoms: C29_41  and  C30_42
ROOT
HETATM    1  C4  UNL     1      18.195  34.813  16.154  1.00  0.00     0.022 C
HETATM    2  C5  UNL     1      18.995  35.168  17.355  1.00  0.00     0.048 C
HETATM    3  C6  UNL     1      20.453  34.917  17.277  1.00  0.00     0.075 C
HETATM    4  C8  UNL     1      20.534  33.338  17.127  1.00  0.00     0.073 C
HETATM    5  C9  UNL     1      21.968  33.164  17.208  1.00  0.00     0.130 C
HETATM    6  C11 UNL     1      22.243  34.027  18.516  1.00  0.00     0.043 C
HETATM    7  C12 UNL     1      21.107  34.971  18.617  1.00  0.00     0.057 C
HETATM    8  C16 UNL     1      19.688  32.770  16.088  1.00  0.00     0.098 C
HETATM    9  C29 UNL     1      18.767  33.719  15.338  1.00  0.00     0.017 C
ENDROOT
BRANCH   8  10
HETATM   10  N1  UNL     1      20.300  31.910  15.121  1.00  0.00    -0.354 N
HETATM   11  C17 UNL     1      20.461  30.465  15.136  1.00  0.00     0.241 C
HETATM   12  O4  UNL     1      20.112  29.898  16.189  1.00  0.00    -0.271 OA
ATOM     13  H1  UNL     1      20.679  32.381  14.300  1.00  0.00     0.162 HD
BRANCH  11  14
HETATM   14  C18 UNL     1      21.002  29.786  13.974  1.00  0.00     0.183 C
BRANCH  14  15
HETATM   15  N2  UNL     1      21.958  28.760  13.899  1.00  0.00    -0.323 N
HETATM   16  C19 UNL     1      22.607  28.594  12.577  1.00  0.00     0.361 C
HETATM   17  O5  UNL     1      22.243  29.495  11.725  1.00  0.00    -0.238 OA
ATOM     18  H2  UNL     1      22.190  28.171  14.698  1.00  0.00     0.165 HD
BRANCH  16  19
HETATM   19  O6  UNL     1      23.449  27.683  12.184  1.00  0.00    -0.302 OA
BRANCH  19  20
HETATM   20  C20 UNL     1      23.842  27.008  11.075  1.00  0.00     0.207 C
BRANCH  20  21
HETATM   21  C21 UNL     1      23.077  25.833  10.553  1.00  0.00     0.193 C
BRANCH  21  22
HETATM   22  O7  UNL     1      22.265  25.311  11.599  1.00  0.00    -0.394 OA
HETATM   23  C22 UNL     1      20.922  25.282  11.255  1.00  0.00     0.201 C
ENDBRANCH  21  22
ENDBRANCH  20  21
ENDBRANCH  19  20
ENDBRANCH  16  19
ENDBRANCH  14  15
BRANCH  14  24
HETATM   24  C23 UNL     1      19.704  29.146  13.274  1.00  0.00     0.018 C
HETATM   25  C24 UNL     1      18.982  30.227  12.539  1.00  0.00     0.007 C
HETATM   26  C25 UNL     1      17.549  29.831  12.251  1.00  0.00     0.000 C
HETATM   27  C26 UNL     1      17.338  28.357  12.362  1.00  0.00     0.000 C
HETATM   28  C27 UNL     1      17.725  27.787  13.694  1.00  0.00     0.000 C
HETATM   29  C28 UNL     1      18.818  28.613  14.349  1.00  0.00     0.007 C
ENDBRANCH  14  24
ENDBRANCH  11  14
ENDBRANCH   8  10
BRANCH   9  30
HETATM   30  C30 UNL     1      17.649  33.033  14.648  1.00  0.00     0.003 C
HETATM   31  C31 UNL     1      17.046  31.792  15.217  1.00  0.00     0.005 C
ENDBRANCH   9  30
BRANCH   3  32
HETATM   32  O1  UNL     1      21.145  35.347  16.213  1.00  0.00    -0.384 OA
HETATM   33  C7  UNL     1      21.245  36.615  15.828  1.00  0.00     0.202 C
ENDBRANCH   3  32
BRANCH   5  34
HETATM   34  O2  UNL     1      22.769  33.707  16.226  1.00  0.00    -0.390 OA
HETATM   35  C10 UNL     1      23.471  32.789  15.482  1.00  0.00     0.202 C
ENDBRANCH   5  34
BRANCH   1  36
HETATM   36  C2  UNL     1      16.782  34.691  16.595  1.00  0.00    -0.088 C
HETATM   37  C1  UNL     1      15.814  35.239  15.832  1.00  0.00     0.014 C
HETATM   38  C3  UNL     1      16.360  34.052  17.855  1.00  0.00     0.043 C
ENDBRANCH   1  36
BRANCH   7  39
HETATM   39  C13 UNL     1      21.608  36.268  19.130  1.00  0.00     0.057 C
HETATM   40  C14 UNL     1      22.269  35.938  20.493  1.00  0.00     0.045 C
HETATM   41  C15 UNL     1      20.553  37.280  19.475  1.00  0.00     0.045 C
BRANCH  39  42
HETATM   42  O3  UNL     1      22.663  36.784  18.395  1.00  0.00    -0.390 OA
ATOM     43  H3  UNL     1      22.425  37.534  17.862  1.00  0.00     0.210 HD
ENDBRANCH  39  42
ENDBRANCH   7  39
TORSDOF 14
ENDMDL