MODEL 1
REMARK VINA RESULT: -8.969472561      0.000      0.000
REMARK  15 active torsions:
REMARK  status: ('A' for Active; 'I' for Inactive)
REMARK    1  A    between atoms: C2_2  and  C3_3
REMARK    2  A    between atoms: C3_3  and  C4_4
REMARK    3  A    between atoms: C4_4  and  O1_7
REMARK    4  A    between atoms: O1_7  and  C7_8
REMARK       I    between atoms: C7_8  and  N1_10
REMARK    5  A    between atoms: N1_10  and  C8_12
REMARK    6  A    between atoms: C8_12  and  C10_14
REMARK    7  A    between atoms: C10_14  and  C11_16
REMARK    8  A    between atoms: C11_16  and  C12_17
REMARK    9  A    between atoms: C11_16  and  N2_20
REMARK   10  A    between atoms: C17_23  and  C18_24
REMARK   11  A    between atoms: C18_24  and  N3_26
REMARK   12  A    between atoms: N3_26  and  C20_28
REMARK   13  A    between atoms: C20_28  and  C21_29
REMARK   14  A    between atoms: C21_29  and  O4_32
REMARK   15  A    between atoms: O4_32  and  C24_33
REMARK       I    between atoms: C24_33  and  N4_35
ROOT
HETATM    1  N2  UNL     1      20.347  32.000  15.401  1.00  0.00    -0.401 N
HETATM    2  C15 UNL     1      19.701  31.153  16.279  1.00  0.00     0.118 C
HETATM    3  C16 UNL     1      18.389  30.652  15.603  1.00  0.00     0.026 C
HETATM    4  C17 UNL     1      18.677  30.439  14.157  1.00  0.00     0.010 C
HETATM    5  C30 UNL     1      18.847  31.804  13.473  1.00  0.00     0.026 C
HETATM    6  C31 UNL     1      19.417  32.713  14.539  1.00  0.00     0.118 C
ENDROOT
BRANCH   1   7
HETATM    7  C11 UNL     1      21.465  32.784  15.729  1.00  0.00     0.154 C
BRANCH   7   8
HETATM    8  C10 UNL     1      21.533  33.465  17.016  1.00  0.00     0.171 C
HETATM    9  O3  UNL     1      22.171  32.779  17.865  1.00  0.00    -0.293 OA
BRANCH   8  10
HETATM   10  C8  UNL     1      21.070  34.700  17.573  1.00  0.00     0.154 C
HETATM   11  C9  UNL     1      21.580  35.967  16.906  1.00  0.00     0.040 C
BRANCH  10  12
HETATM   12  N1  UNL     1      19.611  34.820  17.343  1.00  0.00    -0.326 N
HETATM   13  C7  UNL     1      18.693  35.004  18.410  1.00  0.00     0.361 C
HETATM   14  O2  UNL     1      19.091  35.077  19.613  1.00  0.00    -0.238 OA
ATOM     15  H1  UNL     1      19.256  34.769  16.388  1.00  0.00     0.165 HD
BRANCH  13  16
HETATM   16  O1  UNL     1      17.400  35.124  18.387  1.00  0.00    -0.294 OA
BRANCH  16  17
HETATM   17  C4  UNL     1      16.188  35.325  18.052  1.00  0.00     0.065 C
HETATM   18  C5  UNL     1      15.599  36.437  18.987  1.00  0.00     0.046 C
HETATM   19  C6  UNL     1      16.383  36.287  16.763  1.00  0.00     0.046 C
BRANCH  17  20
HETATM   20  C3  UNL     1      15.075  34.489  17.669  1.00  0.00     0.037 C
BRANCH  20  21
HETATM   21  C2  UNL     1      15.285  33.081  17.214  1.00  0.00    -0.002 C
HETATM   22  C1  UNL     1      15.654  32.860  15.792  1.00  0.00     0.005 C
ENDBRANCH  20  21
ENDBRANCH  17  20
ENDBRANCH  16  17
ENDBRANCH  13  16
ENDBRANCH  10  12
ENDBRANCH   8  10
ENDBRANCH   7   8
BRANCH   7  23
HETATM   23  C12 UNL     1      22.736  32.048  15.354  1.00  0.00     0.007 C
HETATM   24  C13 UNL     1      22.418  31.199  14.151  1.00  0.00     0.012 C
HETATM   25  C14 UNL     1      23.747  33.095  14.871  1.00  0.00     0.012 C
ENDBRANCH   7  23
ENDBRANCH   1   7
BRANCH   4  26
HETATM   26  C18 UNL     1      17.901  29.461  13.394  1.00  0.00     0.076 C
HETATM   27  C19 UNL     1      17.910  28.156  14.266  1.00  0.00     0.032 C
BRANCH  26  28
HETATM   28  N3  UNL     1      18.370  29.053  12.141  1.00  0.00    -0.414 N
ATOM     29  H3  UNL     1      19.352  29.205  11.911  1.00  0.00     0.153 HD
BRANCH  28  30
HETATM   30  C20 UNL     1      17.541  28.442  11.187  1.00  0.00     0.152 C
BRANCH  30  31
HETATM   31  C21 UNL     1      18.250  27.214  10.598  1.00  0.00     0.080 C
HETATM   32  C22 UNL     1      17.456  26.807   9.386  1.00  0.00     0.048 C
HETATM   33  C23 UNL     1      18.121  26.100  11.630  1.00  0.00     0.048 C
BRANCH  31  34
HETATM   34  O4  UNL     1      19.597  27.408  10.350  1.00  0.00    -0.292 OA
BRANCH  34  35
HETATM   35  C24 UNL     1      20.601  26.458  10.323  1.00  0.00     0.363 C
HETATM   36  O5  UNL     1      20.503  25.534   9.478  1.00  0.00    -0.238 OA
HETATM   37  N4  UNL     1      21.727  26.514  11.224  1.00  0.00    -0.328 N
HETATM   38  C25 UNL     1      21.867  27.549  12.203  1.00  0.00     0.128 C
HETATM   39  C29 UNL     1      22.732  25.485  11.121  1.00  0.00     0.128 C
HETATM   40  C26 UNL     1      23.200  28.218  12.033  1.00  0.00     0.020 C
HETATM   41  C27 UNL     1      24.339  27.238  11.967  1.00  0.00     0.003 C
HETATM   42  C28 UNL     1      24.083  26.111  11.017  1.00  0.00     0.020 C
ENDBRANCH  34  35
ENDBRANCH  31  34
ENDBRANCH  30  31
ENDBRANCH  28  30
ENDBRANCH  26  28
ENDBRANCH   4  26
TORSDOF 15
ENDMDL