MODEL 2
REMARK VINA RESULT: -8.683152315      2.436      7.399
REMARK  17 active torsions:
REMARK  status: ('A' for Active; 'I' for Inactive)
REMARK    1  A    between atoms: C2_2  and  C3_3
REMARK    2  A    between atoms: C3_3  and  C5_5
REMARK    3  A    between atoms: C5_5  and  C6_6
REMARK    4  A    between atoms: C6_6  and  C7_7
REMARK    5  A    between atoms: C7_7  and  N1_8
REMARK    6  A    between atoms: C7_7  and  C23_35
REMARK    7  A    between atoms: N1_8  and  C8_10
REMARK    8  A    between atoms: C8_10  and  O1_11
REMARK    9  A    between atoms: C8_10  and  C15_23
REMARK   10  A    between atoms: O1_11  and  C9_12
REMARK   11  A    between atoms: C9_12  and  C10_13
REMARK   12  A    between atoms: C13_16  and  N2_17
REMARK       I    between atoms: C15_23  and  N3_25
REMARK   13  A    between atoms: C18_28  and  C19_29
REMARK   14  A    between atoms: C19_29  and  O4_31
REMARK   15  A    between atoms: C23_35  and  O5_36
REMARK   16  A    between atoms: C23_35  and  N4_38
REMARK   17  A    between atoms: N4_38  and  C24_40
ROOT
HETATM    1  C8  UNL     1      18.680  29.256  13.988  1.00  0.00     0.310 C
ENDROOT
BRANCH   1   2
HETATM    2  N1  UNL     1      20.017  29.583  13.954  1.00  0.00    -0.378 N
ATOM      3  H1  UNL     1      20.492  29.551  14.857  1.00  0.00     0.157 HD
BRANCH   2   4
HETATM    4  C7  UNL     1      20.816  29.946  12.887  1.00  0.00     0.153 C
BRANCH   4   5
HETATM    5  C6  UNL     1      22.162  29.219  12.985  1.00  0.00     0.033 C
BRANCH   5   6
HETATM    6  C5  UNL     1      22.057  27.740  12.655  1.00  0.00     0.007 C
BRANCH   6   7
HETATM    7  C3  UNL     1      22.760  27.408  11.379  1.00  0.00    -0.019 C
HETATM    8  C4  UNL     1      23.348  28.646  10.715  1.00  0.00     0.010 C
BRANCH   7   9
HETATM    9  C2  UNL     1      23.874  26.418  11.561  1.00  0.00    -0.000 C
HETATM   10  C1  UNL     1      25.169  27.139  11.962  1.00  0.00     0.005 C
ENDBRANCH   7   9
ENDBRANCH   6   7
ENDBRANCH   5   6
ENDBRANCH   4   5
BRANCH   4  11
HETATM   11  C23 UNL     1      21.152  31.399  12.880  1.00  0.00     0.134 C
BRANCH  11  12
HETATM   12  O5  UNL     1      20.465  32.062  11.990  1.00  0.00    -0.348 OA
ATOM     13  H5  UNL     1      20.238  32.935  12.288  1.00  0.00     0.219 HD
ENDBRANCH  11  12
BRANCH  11  14
HETATM   14  N4  UNL     1      22.071  32.059  13.685  1.00  0.00    -0.368 N
ATOM     15  H4  UNL     1      23.029  32.128  13.341  1.00  0.00     0.161 HD
BRANCH  14  16
HETATM   16  C24 UNL     1      21.781  32.664  14.985  1.00  0.00     0.083 C
HETATM   17  C25 UNL     1      22.920  32.349  15.978  1.00  0.00     0.025 C
HETATM   18  C26 UNL     1      22.433  32.817  17.322  1.00  0.00     0.002 C
HETATM   19  C27 UNL     1      22.160  34.306  17.341  1.00  0.00     0.000 C
HETATM   20  C28 UNL     1      21.256  34.722  16.214  1.00  0.00     0.002 C
HETATM   21  C29 UNL     1      21.642  34.138  14.896  1.00  0.00     0.025 C
ENDBRANCH  14  16
ENDBRANCH  11  14
ENDBRANCH   4  11
ENDBRANCH   2   4
ENDBRANCH   1   2
BRANCH   1  22
HETATM   22  O1  UNL     1      17.869  30.083  14.797  1.00  0.00    -0.358 OA
BRANCH  22  23
HETATM   23  C9  UNL     1      18.560  31.034  15.491  1.00  0.00     0.176 C
BRANCH  23  24
HETATM   24  C10 UNL     1      17.825  32.292  15.836  1.00  0.00     0.019 C
HETATM   25  C11 UNL     1      16.358  32.046  16.056  1.00  0.00     0.010 C
HETATM   26  C12 UNL     1      15.515  33.255  15.808  1.00  0.00     0.044 C
HETATM   27  C13 UNL     1      16.169  34.574  16.020  1.00  0.00     0.244 C
HETATM   28  S1  UNL     1      17.356  34.432  17.374  1.00  0.00    -0.136 SA
HETATM   29  C14 UNL     1      18.408  33.002  17.062  1.00  0.00     0.082 C
BRANCH  27  30
HETATM   30  N2  UNL     1      16.705  35.203  14.838  1.00  0.00    -0.066 N
ATOM     31  H23 UNL     1      16.087  35.037  14.044  1.00  0.00     0.275 HD
ATOM     32  H22 UNL     1      16.629  36.217  14.918  1.00  0.00     0.275 HD
ATOM     33  H21 UNL     1      17.661  34.945  14.595  1.00  0.00     0.275 HD
ENDBRANCH  27  30
ENDBRANCH  23  24
ENDBRANCH  22  23
ENDBRANCH   1  22
BRANCH   1  34
HETATM   34  C15 UNL     1      18.123  29.289  12.584  1.00  0.00     0.268 C
HETATM   35  O2  UNL     1      17.934  30.405  12.063  1.00  0.00    -0.268 OA
HETATM   36  N3  UNL     1      17.814  28.137  11.828  1.00  0.00    -0.348 N
HETATM   37  C16 UNL     1      17.266  28.290  10.461  1.00  0.00     0.127 C
HETATM   38  C22 UNL     1      18.018  26.762  12.213  1.00  0.00     0.127 C
HETATM   39  C17 UNL     1      17.895  27.230   9.597  1.00  0.00     0.034 C
HETATM   40  C18 UNL     1      19.264  26.793  10.052  1.00  0.00     0.088 C
HETATM   41  C21 UNL     1      19.232  26.224  11.456  1.00  0.00     0.034 C
BRANCH  40  42
HETATM   42  C19 UNL     1      19.701  25.675   9.171  1.00  0.00     0.262 C
HETATM   43  O3  UNL     1      19.015  25.306   8.194  1.00  0.00    -0.265 OA
BRANCH  42  44
HETATM   44  O4  UNL     1      20.896  24.992   9.396  1.00  0.00    -0.326 OA
HETATM   45  C20 UNL     1      21.958  24.920   8.488  1.00  0.00     0.213 C
ENDBRANCH  42  44
ENDBRANCH  40  42
ENDBRANCH   1  34
TORSDOF 17
ENDMDL