MODEL 1
REMARK VINA RESULT: -8.244126556      0.000      0.000
REMARK  16 active torsions:
REMARK  status: ('A' for Active; 'I' for Inactive)
REMARK    1  A    between atoms: C2_2  and  C3_3
REMARK    2  A    between atoms: C3_3  and  C4_4
REMARK    3  A    between atoms: C4_4  and  C5_5
REMARK    4  A    between atoms: C5_5  and  C6_6
REMARK    5  A    between atoms: C5_5  and  N1_11
REMARK    6  A    between atoms: C6_6  and  O1_7
REMARK    7  A    between atoms: O1_7  and  C7_8
REMARK       I    between atoms: N1_11  and  C9_13
REMARK    8  A    between atoms: C9_13  and  C10_15
REMARK    9  A    between atoms: C10_15  and  N2_17
REMARK   10  A    between atoms: C17_24  and  C18_25
REMARK   11  A    between atoms: C19_26  and  C20_27
REMARK   12  A    between atoms: C22_29  and  C23_30
REMARK   13  A    between atoms: C23_30  and  C24_31
REMARK   14  A    between atoms: C24_31  and  C25_32
REMARK   15  A    between atoms: C25_32  and  C27_34
REMARK   16  A    between atoms: C33_42  and  O6_43
ROOT
HETATM    1  C3  UNL     1      18.390  32.177  15.883  1.00  0.00     0.014 C
HETATM    2  C13 UNL     1      17.970  32.369  14.500  1.00  0.00    -0.072 C
HETATM    3  C14 UNL     1      18.467  33.630  13.805  1.00  0.00     0.044 C
HETATM    4  C15 UNL     1      17.855  31.356  13.485  1.00  0.00     0.011 C
HETATM    5  C16 UNL     1      18.118  30.152  13.004  1.00  0.00    -0.047 C
HETATM    6  C17 UNL     1      17.554  29.844  11.728  1.00  0.00     0.008 C
HETATM    7  C28 UNL     1      18.877  29.054  13.583  1.00  0.00     0.089 C
HETATM    8  C29 UNL     1      17.910  27.944  14.043  1.00  0.00     0.023 C
HETATM    9  C30 UNL     1      19.731  29.385  14.738  1.00  0.00     0.162 C
HETATM   10  O5  UNL     1      19.918  28.327  15.375  1.00  0.00    -0.292 OA
HETATM   11  C31 UNL     1      20.364  30.563  15.278  1.00  0.00    -0.008 C
HETATM   12  C32 UNL     1      21.236  31.240  14.241  1.00  0.00     0.050 C
HETATM   13  C33 UNL     1      19.637  31.417  16.195  1.00  0.00     0.163 C
ENDROOT
BRANCH   1  14
HETATM   14  C2  UNL     1      17.270  31.779  16.821  1.00  0.00     0.012 C
HETATM   15  C1  UNL     1      15.880  32.092  16.398  1.00  0.00     0.006 C
ENDBRANCH   1  14
BRANCH   1  16
HETATM   16  C4  UNL     1      18.734  33.550  16.411  1.00  0.00     0.044 C
BRANCH  16  17
HETATM   17  C5  UNL     1      18.486  34.234  17.621  1.00  0.00     0.110 C
BRANCH  17  18
HETATM   18  C6  UNL     1      19.528  35.076  18.309  1.00  0.00     0.204 C
BRANCH  18  19
HETATM   19  O1  UNL     1      20.240  35.856  17.295  1.00  0.00    -0.320 OA
BRANCH  19  20
HETATM   20  C7  UNL     1      21.608  35.827  17.207  1.00  0.00     0.254 C
HETATM   21  C8  UNL     1      22.456  36.981  17.573  1.00  0.00     0.126 C
HETATM   22  O2  UNL     1      22.168  34.774  16.797  1.00  0.00    -0.266 OA
ENDBRANCH  19  20
ENDBRANCH  18  19
ENDBRANCH  17  18
BRANCH  17  23
HETATM   23  N1  UNL     1      17.482  35.307  17.240  1.00  0.00    -0.353 N
HETATM   24  C9  UNL     1      16.314  35.483  17.998  1.00  0.00     0.240 C
HETATM   25  O3  UNL     1      16.060  34.753  19.025  1.00  0.00    -0.271 OA
ATOM     26  H1  UNL     1      17.657  35.902  16.430  1.00  0.00     0.163 HD
BRANCH  24  27
HETATM   27  C10 UNL     1      15.286  36.501  17.698  1.00  0.00     0.165 C
HETATM   28  C11 UNL     1      13.959  35.744  17.539  1.00  0.00     0.042 C
BRANCH  27  29
HETATM   29  N2  UNL     1      15.190  37.533  18.676  1.00  0.00    -0.414 N
HETATM   30  C12 UNL     1      16.380  38.311  18.856  1.00  0.00     0.140 C
ATOM     31  H2  UNL     1      14.337  37.705  19.209  1.00  0.00     0.153 HD
ENDBRANCH  27  29
ENDBRANCH  24  27
ENDBRANCH  17  23
ENDBRANCH  16  17
ENDBRANCH   1  16
BRANCH  13  32
HETATM   32  O6  UNL     1      20.648  32.186  16.824  1.00  0.00    -0.390 OA
ATOM     33  H6  UNL     1      21.484  31.743  16.902  1.00  0.00     0.210 HD
ENDBRANCH  13  32
BRANCH   6  34
HETATM   34  C18 UNL     1      17.530  28.896  10.866  1.00  0.00     0.001 C
HETATM   35  C19 UNL     1      18.421  28.029  10.204  1.00  0.00     0.007 C
BRANCH  35  36
HETATM   36  C20 UNL     1      18.101  27.064   9.302  1.00  0.00    -0.062 C
HETATM   37  C21 UNL     1      17.617  25.770   9.727  1.00  0.00     0.048 C
HETATM   38  C22 UNL     1      18.290  27.406   7.910  1.00  0.00     0.007 C
BRANCH  38  39
HETATM   39  C23 UNL     1      18.107  26.813   6.804  1.00  0.00     0.001 C
BRANCH  39  40
HETATM   40  C24 UNL     1      18.865  26.830   5.601  1.00  0.00     0.010 C
BRANCH  40  41
HETATM   41  C25 UNL     1      19.651  25.831   5.179  1.00  0.00    -0.024 C
HETATM   42  C26 UNL     1      19.239  25.001   4.022  1.00  0.00     0.051 C
BRANCH  41  43
HETATM   43  C27 UNL     1      20.896  25.551   5.841  1.00  0.00     0.265 C
HETATM   44  O4  UNL     1      21.992  25.739   5.186  1.00  0.00    -0.302 OA
ENDBRANCH  41  43
ENDBRANCH  40  41
ENDBRANCH  39  40
ENDBRANCH  38  39
ENDBRANCH  35  36
ENDBRANCH   6  34
TORSDOF 16
ENDMDL