MODEL 2
REMARK VINA RESULT: -8.767656571      3.146      5.250
REMARK  15 active torsions:
REMARK  status: ('A' for Active; 'I' for Inactive)
REMARK    1  A    between atoms: C2_2  and  C3_3
REMARK    2  A    between atoms: C2_2  and  C29_34
REMARK    3  A    between atoms: C3_3  and  C4_4
REMARK    4  A    between atoms: C4_4  and  C5_5
REMARK    5  A    between atoms: C5_5  and  C6_6
REMARK    6  A    between atoms: C6_6  and  O2_27
REMARK    7  A    between atoms: C7_7  and  C8_8
REMARK    8  A    between atoms: C8_8  and  C9_9
REMARK    9  A    between atoms: C9_9  and  C10_10
REMARK   10  A    between atoms: O2_27  and  C26_28
REMARK   11  A    between atoms: C26_28  and  C27_29
REMARK   12  A    between atoms: C27_29  and  O3_30
REMARK   13  A    between atoms: O3_30  and  C28_31
REMARK       I    between atoms: C29_34  and  N2_36
REMARK   14  A    between atoms: C30_38  and  O6_39
REMARK   15  A    between atoms: C30_38  and  C31_41
ROOT
HETATM    1  C6  UNL     1      19.704  27.030  11.426  1.00  0.00     0.106 C
HETATM    2  C7  UNL     1      19.828  28.185  12.167  1.00  0.00     0.019 C
ENDROOT
BRANCH   1   3
HETATM    3  C5  UNL     1      18.587  26.902  10.658  1.00  0.00    -0.120 C
BRANCH   3   4
HETATM    4  C4  UNL     1      17.557  26.782   9.948  1.00  0.00     0.088 C
BRANCH   4   5
HETATM    5  C3  UNL     1      17.661  25.833   8.727  1.00  0.00     0.025 C
BRANCH   5   6
HETATM    6  C2  UNL     1      18.768  26.399   7.885  1.00  0.00     0.075 C
HETATM    7  C1  UNL     1      18.245  27.427   6.918  1.00  0.00     0.020 C
BRANCH   6   8
HETATM    8  C29 UNL     1      19.667  25.415   7.313  1.00  0.00     0.227 C
HETATM    9  O5  UNL     1      19.295  24.199   7.259  1.00  0.00    -0.273 OA
HETATM   10  N2  UNL     1      20.957  25.676   6.790  1.00  0.00    -0.302 N
HETATM   11  C30 UNL     1      21.881  24.748   6.921  1.00  0.00     0.221 C
ATOM     12  H2  UNL     1      21.165  26.560   6.323  1.00  0.00     0.171 HD
BRANCH  11  13
HETATM   13  O6  UNL     1      21.563  23.584   7.546  1.00  0.00    -0.341 OA
ATOM     14  H6  UNL     1      21.004  22.958   7.101  1.00  0.00     0.219 HD
ENDBRANCH  11  13
BRANCH  11  15
HETATM   15  C31 UNL     1      23.190  25.001   6.395  1.00  0.00     0.252 C
HETATM   16  O7  UNL     1      24.199  24.916   7.130  1.00  0.00    -0.641 OA
HETATM   17  O8  UNL     1      23.421  25.353   5.059  1.00  0.00    -0.641 OA
ENDBRANCH  11  15
ENDBRANCH   6   8
ENDBRANCH   5   6
ENDBRANCH   4   5
ENDBRANCH   3   4
ENDBRANCH   1   3
BRANCH   1  18
HETATM   18  O2  UNL     1      20.759  26.135  11.578  1.00  0.00    -0.342 OA
BRANCH  18  19
HETATM   19  C26 UNL     1      21.282  25.307  10.576  1.00  0.00     0.203 C
BRANCH  19  20
HETATM   20  C27 UNL     1      22.768  25.311  10.446  1.00  0.00     0.207 C
BRANCH  20  21
HETATM   21  O3  UNL     1      23.355  26.047  11.473  1.00  0.00    -0.304 OA
BRANCH  21  22
HETATM   22  C28 UNL     1      24.284  27.035  11.403  1.00  0.00     0.372 C
HETATM   23  N1  UNL     1      25.399  27.004  12.308  1.00  0.00    -0.032 NA
HETATM   24  O4  UNL     1      24.190  27.952  10.586  1.00  0.00    -0.242 OA
ENDBRANCH  21  22
ENDBRANCH  20  21
ENDBRANCH  19  20
ENDBRANCH  18  19
ENDBRANCH   1  18
BRANCH   2  25
HETATM   25  C8  UNL     1      20.997  28.399  13.028  1.00  0.00     0.034 C
BRANCH  25  26
HETATM   26  C9  UNL     1      21.757  29.633  12.527  1.00  0.00     0.031 C
BRANCH  26  27
HETATM   27  C10 UNL     1      22.278  30.415  13.640  1.00  0.00    -0.019 C
HETATM   28  C11 UNL     1      21.716  31.214  14.503  1.00  0.00    -0.055 C
HETATM   29  C12 UNL     1      22.586  31.861  15.558  1.00  0.00     0.039 C
HETATM   30  C17 UNL     1      20.312  31.601  14.491  1.00  0.00    -0.047 C
HETATM   31  C13 UNL     1      21.921  32.858  16.403  1.00  0.00     0.006 C
HETATM   32  C14 UNL     1      20.465  33.061  16.338  1.00  0.00     0.015 C
HETATM   33  C15 UNL     1      19.688  31.851  15.831  1.00  0.00    -0.009 C
HETATM   34  C16 UNL     1      19.980  30.731  16.811  1.00  0.00     0.021 C
HETATM   35  C24 UNL     1      18.231  32.056  15.762  1.00  0.00    -0.024 C
HETATM   36  C20 UNL     1      17.660  32.643  14.522  1.00  0.00     0.030 C
HETATM   37  C23 UNL     1      17.692  32.994  16.814  1.00  0.00     0.045 C
HETATM   38  C25 UNL     1      17.541  30.698  15.952  1.00  0.00     0.017 C
HETATM   39  C19 UNL     1      18.262  32.156  13.241  1.00  0.00     0.035 C
HETATM   40  C21 UNL     1      17.768  34.111  14.725  1.00  0.00     0.156 A
HETATM   41  C18 UNL     1      19.679  31.771  13.372  1.00  0.00    -0.018 C
HETATM   42  O1  UNL     1      16.684  34.756  15.359  1.00  0.00    -0.375 OA
HETATM   43  C22 UNL     1      17.703  34.367  16.207  1.00  0.00     0.152 A
ENDBRANCH  26  27
ENDBRANCH  25  26
ENDBRANCH   2  25
TORSDOF 15
ENDMDL