MODEL 4
REMARK VINA RESULT: -8.722973043      1.569      1.937
REMARK  13 active torsions:
REMARK  status: ('A' for Active; 'I' for Inactive)
REMARK    1  A    between atoms: O1_2  and  C2_3
REMARK    2  A    between atoms: C8_9  and  C9_10
REMARK    3  A    between atoms: C10_13  and  O4_14
REMARK    4  A    between atoms: C13_18  and  C14_19
REMARK    5  A    between atoms: C15_20  and  C16_21
REMARK    6  A    between atoms: C16_21  and  C17_22
REMARK    7  A    between atoms: C22_28  and  C23_29
REMARK    8  A    between atoms: C23_29  and  C24_30
REMARK    9  A    between atoms: C24_30  and  C25_31
REMARK   10  A    between atoms: C26_32  and  C27_33
REMARK   11  A    between atoms: C27_33  and  C28_34
REMARK   12  A    between atoms: C28_34  and  C29_35
REMARK   13  A    between atoms: C30_39  and  O9_40
ROOT
HETATM    1  C2  UNL     1      16.934  34.185  16.842  1.00  0.00     0.126 C
HETATM    2  C3  UNL     1      16.414  33.446  15.594  1.00  0.00     0.032 C
HETATM    3  C4  UNL     1      17.277  33.966  14.466  1.00  0.00     0.003 C
HETATM    4  C5  UNL     1      18.717  33.548  14.652  1.00  0.00     0.008 C
HETATM    5  C6  UNL     1      18.962  32.938  16.003  1.00  0.00     0.031 C
HETATM    6  C7  UNL     1      18.331  33.753  17.124  1.00  0.00     0.039 C
HETATM    7  C8  UNL     1      19.320  34.853  17.327  1.00  0.00     0.131 C
HETATM    8  C10 UNL     1      20.659  34.156  17.150  1.00  0.00     0.103 C
HETATM    9  C11 UNL     1      21.462  35.089  16.264  1.00  0.00     0.043 C
HETATM   10  C12 UNL     1      22.253  34.181  15.415  1.00  0.00     0.014 C
HETATM   11  C13 UNL     1      21.357  32.982  15.200  1.00  0.00     0.046 C
HETATM   12  C30 UNL     1      20.418  32.897  16.397  1.00  0.00     0.103 C
ENDROOT
BRANCH  11  13
HETATM   13  C14 UNL     1      22.255  31.806  15.107  1.00  0.00    -0.023 C
HETATM   14  C15 UNL     1      22.252  30.929  14.136  1.00  0.00    -0.025 C
BRANCH  14  15
HETATM   15  C16 UNL     1      21.383  30.902  12.941  1.00  0.00     0.087 C
BRANCH  15  16
HETATM   16  C17 UNL     1      20.543  29.618  12.903  1.00  0.00     0.264 C
HETATM   17  O5  UNL     1      19.518  29.707  13.808  1.00  0.00    -0.356 OA
HETATM   18  C18 UNL     1      18.290  30.031  13.283  1.00  0.00     0.126 C
HETATM   19  C19 UNL     1      17.296  30.153  14.416  1.00  0.00     0.040 C
HETATM   20  C20 UNL     1      17.900  28.885  12.328  1.00  0.00     0.039 C
HETATM   21  C21 UNL     1      16.766  29.447  11.490  1.00  0.00     0.015 C
HETATM   22  C22 UNL     1      19.072  28.507  11.510  1.00  0.00     0.131 C
HETATM   23  O8  UNL     1      20.112  29.456  11.594  1.00  0.00    -0.355 OA
BRANCH  22  24
HETATM   24  C23 UNL     1      19.589  27.122  11.576  1.00  0.00     0.036 C
BRANCH  24  25
HETATM   25  C24 UNL     1      20.861  26.773  10.908  1.00  0.00     0.029 C
BRANCH  25  26
HETATM   26  C25 UNL     1      22.028  26.392  11.671  1.00  0.00    -0.031 C
HETATM   27  C26 UNL     1      23.234  26.170  11.122  1.00  0.00    -0.030 C
BRANCH  27  28
HETATM   28  C27 UNL     1      23.545  26.277   9.702  1.00  0.00     0.037 C
BRANCH  28  29
HETATM   29  C28 UNL     1      23.432  24.922   9.010  1.00  0.00     0.117 C
BRANCH  29  30
HETATM   30  C29 UNL     1      22.470  24.990   7.888  1.00  0.00     0.172 C
HETATM   31  O6  UNL     1      21.311  24.576   8.014  1.00  0.00    -0.648 OA
HETATM   32  O7  UNL     1      22.888  25.528   6.686  1.00  0.00    -0.648 OA
ENDBRANCH  29  30
ENDBRANCH  28  29
ENDBRANCH  27  28
ENDBRANCH  25  26
ENDBRANCH  24  25
ENDBRANCH  22  24
ENDBRANCH  15  16
ENDBRANCH  14  15
ENDBRANCH  11  13
BRANCH  12  33
HETATM   33  O9  UNL     1      20.798  31.769  17.034  1.00  0.00    -0.381 OA
HETATM   34  C31 UNL     1      20.058  30.662  17.080  1.00  0.00     0.202 C
ENDBRANCH  12  33
BRANCH   8  35
HETATM   35  O4  UNL     1      21.365  34.024  18.325  1.00  0.00    -0.386 OA
ATOM     36  H4  UNL     1      21.948  34.754  18.498  1.00  0.00     0.210 HD
ENDBRANCH   8  35
BRANCH   7  37
HETATM   37  C9  UNL     1      19.261  35.379  18.703  1.00  0.00     0.180 C
HETATM   38  O2  UNL     1      18.638  34.737  19.594  1.00  0.00    -0.648 OA
HETATM   39  O3  UNL     1      19.859  36.565  19.106  1.00  0.00    -0.648 OA
ENDBRANCH   7  37
BRANCH   1  40
HETATM   40  O1  UNL     1      16.762  35.555  16.691  1.00  0.00    -0.390 OA
HETATM   41  C1  UNL     1      15.697  36.034  17.490  1.00  0.00     0.202 C
ENDBRANCH   1  40
TORSDOF 13
ENDMDL