MODEL 1
REMARK VINA RESULT: -8.924604170      0.000      0.000
REMARK  14 active torsions:
REMARK  status: ('A' for Active; 'I' for Inactive)
REMARK    1  A    between atoms: N1_2  and  C2_4
REMARK    2  A    between atoms: C4_6  and  N2_7
REMARK       I    between atoms: N3_14  and  C8_15
REMARK    3  A    between atoms: C8_15  and  C9_17
REMARK    4  A    between atoms: C9_17  and  O2_18
REMARK    5  A    between atoms: O2_18  and  C10_19
REMARK    6  A    between atoms: C10_19  and  C11_21
REMARK    7  A    between atoms: C11_21  and  C12_22
REMARK    8  A    between atoms: C11_21  and  N4_29
REMARK    9  A    between atoms: C12_22  and  C13_23
REMARK       I    between atoms: N4_29  and  C19_31
REMARK   10  A    between atoms: C19_31  and  C20_33
REMARK   11  A    between atoms: C20_33  and  C21_34
REMARK   12  A    between atoms: C21_34  and  C22_35
REMARK   13  A    between atoms: C22_35  and  C23_36
REMARK   14  A    between atoms: C23_36  and  C24_37
ROOT
HETATM    1  C10 UNL     1      18.392  31.092  13.830  1.00  0.00     0.282 C
HETATM    2  O3  UNL     1      18.337  31.153  12.552  1.00  0.00    -0.263 OA
ENDROOT
BRANCH   1   3
HETATM    3  O2  UNL     1      17.929  29.921  14.371  1.00  0.00    -0.310 OA
BRANCH   3   4
HETATM    4  C9  UNL     1      18.824  28.826  14.559  1.00  0.00     0.281 C
BRANCH   4   5
HETATM    5  C8  UNL     1      18.899  28.002  13.326  1.00  0.00     0.244 C
HETATM    6  N3  UNL     1      20.071  27.981  12.484  1.00  0.00    -0.350 N
HETATM    7  C7  UNL     1      21.139  28.864  12.833  1.00  0.00     0.126 C
HETATM    8  C27 UNL     1      20.043  27.039  11.388  1.00  0.00     0.132 C
HETATM    9  C6  UNL     1      22.428  28.566  12.119  1.00  0.00     0.027 C
HETATM   10  C5  UNL     1      22.454  27.112  11.760  1.00  0.00     0.025 C
HETATM   11  C4  UNL     1      23.666  26.694  10.960  1.00  0.00     0.190 C
HETATM   12  C28 UNL     1      21.354  26.902  10.714  1.00  0.00     0.032 C
HETATM   13  C3  UNL     1      23.171  25.377  10.340  1.00  0.00     0.058 C
HETATM   14  C2  UNL     1      21.669  25.511  10.208  1.00  0.00     0.084 C
HETATM   15  O1  UNL     1      17.867  27.305  13.047  1.00  0.00    -0.271 OA
BRANCH  11  16
HETATM   16  N2  UNL     1      24.736  26.486  11.891  1.00  0.00    -0.075 N
ATOM     17  H23 UNL     1      25.195  27.366  12.128  1.00  0.00     0.274 HD
ATOM     18  H22 UNL     1      24.380  26.234  12.813  1.00  0.00     0.274 HD
ATOM     19  H21 UNL     1      25.410  25.797  11.557  1.00  0.00     0.274 HD
ENDBRANCH  11  16
BRANCH  14  20
HETATM   20  N1  UNL     1      21.315  25.430   8.829  1.00  0.00    -0.421 N
HETATM   21  C1  UNL     1      22.225  24.705   7.998  1.00  0.00     0.140 C
ATOM     22  H1  UNL     1      20.468  25.862   8.459  1.00  0.00     0.153 HD
ENDBRANCH  14  20
ENDBRANCH   4   5
ENDBRANCH   3   4
ENDBRANCH   1   3
BRANCH   1  23
HETATM   23  C11 UNL     1      18.931  32.260  14.524  1.00  0.00     0.184 C
BRANCH  23  24
HETATM   24  C12 UNL     1      18.081  32.884  15.567  1.00  0.00     0.040 C
BRANCH  24  25
HETATM   25  C13 UNL     1      16.717  33.293  15.104  1.00  0.00    -0.012 C
HETATM   26  C14 UNL     1      16.527  34.778  14.956  1.00  0.00     0.005 C
HETATM   27  C15 UNL     1      16.496  35.503  16.265  1.00  0.00     0.000 C
HETATM   28  C16 UNL     1      15.283  34.968  17.040  1.00  0.00     0.000 C
HETATM   29  C17 UNL     1      15.564  33.511  17.315  1.00  0.00     0.000 C
HETATM   30  C18 UNL     1      15.648  32.716  16.041  1.00  0.00     0.005 C
ENDBRANCH  24  25
ENDBRANCH  23  24
BRANCH  23  31
HETATM   31  N4  UNL     1      20.251  31.928  15.048  1.00  0.00    -0.347 N
HETATM   32  C19 UNL     1      21.398  32.119  14.263  1.00  0.00     0.218 C
HETATM   33  O4  UNL     1      21.328  32.572  13.094  1.00  0.00    -0.274 OA
ATOM     34  H4  UNL     1      20.341  31.554  15.993  1.00  0.00     0.163 HD
BRANCH  32  35
HETATM   35  C20 UNL     1      22.731  31.775  14.834  1.00  0.00     0.103 C
BRANCH  35  36
HETATM   36  C21 UNL     1      23.403  33.040  15.297  1.00  0.00     0.009 C
BRANCH  36  37
HETATM   37  C22 UNL     1      22.806  33.547  16.610  1.00  0.00     0.002 C
BRANCH  37  38
HETATM   38  C23 UNL     1      22.065  34.811  16.346  1.00  0.00     0.016 C
BRANCH  38  39
HETATM   39  C24 UNL     1      21.546  35.500  17.566  1.00  0.00     0.059 C
HETATM   40  C25 UNL     1      22.060  34.822  18.790  1.00  0.00     0.027 C
HETATM   41  C26 UNL     1      21.419  35.513  19.993  1.00  0.00     0.087 C
HETATM   42  S1  UNL     1      22.157  37.206  19.891  1.00  0.00    -0.097 SA
HETATM   43  S2  UNL     1      22.278  37.189  17.724  1.00  0.00    -0.093 SA
ENDBRANCH  38  39
ENDBRANCH  37  38
ENDBRANCH  36  37
ENDBRANCH  35  36
ENDBRANCH  32  35
ENDBRANCH  23  31
ENDBRANCH   1  23
TORSDOF 14
ENDMDL