MODEL 2
REMARK VINA RESULT: -8.840123735      2.101     10.034
REMARK  16 active torsions:
REMARK  status: ('A' for Active; 'I' for Inactive)
REMARK    1  A    between atoms: O1_2  and  C2_3
REMARK    2  A    between atoms: C2_3  and  C3_4
REMARK    3  A    between atoms: C3_4  and  C4_5
REMARK    4  A    between atoms: C4_5  and  C5_6
REMARK    5  A    between atoms: C4_5  and  O5_36
REMARK    6  A    between atoms: C5_6  and  C6_7
REMARK    7  A    between atoms: C6_7  and  C7_8
REMARK    8  A    between atoms: C7_8  and  C8_9
REMARK    9  A    between atoms: C9_10  and  O2_11
REMARK   10  A    between atoms: C19_22  and  O3_23
REMARK   11  A    between atoms: O5_36  and  C30_37
REMARK   12  A    between atoms: C30_37  and  C31_38
REMARK   13  A    between atoms: C31_38  and  O6_39
REMARK   14  A    between atoms: O6_39  and  C32_40
REMARK   15  A    between atoms: C32_40  and  C33_41
REMARK   16  A    between atoms: C33_41  and  O7_42
ROOT
HETATM    1  C8  UNL     1      19.863  32.763  14.286  1.00  0.00     0.042 C
HETATM    2  C9  UNL     1      21.171  33.167  14.805  1.00  0.00     0.126 C
HETATM    3  C10 UNL     1      21.635  32.028  15.721  1.00  0.00     0.033 C
HETATM    4  C11 UNL     1      21.828  30.870  14.715  1.00  0.00     0.012 C
HETATM    5  C12 UNL     1      20.465  30.265  14.385  1.00  0.00    -0.033 C
HETATM    6  C13 UNL     1      20.293  29.199  15.392  1.00  0.00     0.016 C
HETATM    7  C14 UNL     1      19.458  31.336  14.560  1.00  0.00     0.004 C
HETATM    8  C15 UNL     1      18.166  31.150  13.813  1.00  0.00     0.006 C
HETATM    9  C16 UNL     1      17.979  29.766  13.243  1.00  0.00     0.006 C
HETATM   10  C17 UNL     1      19.173  29.500  12.346  1.00  0.00     0.001 C
HETATM   11  C18 UNL     1      20.484  29.802  12.934  1.00  0.00     0.028 C
HETATM   12  C19 UNL     1      21.568  28.896  12.535  1.00  0.00     0.123 C
HETATM   13  C20 UNL     1      21.185  27.427  12.371  1.00  0.00     0.038 C
HETATM   14  C21 UNL     1      20.138  27.469  11.253  1.00  0.00     0.012 C
HETATM   15  C22 UNL     1      20.032  26.175  10.587  1.00  0.00     0.018 C
HETATM   16  C23 UNL     1      21.145  26.121   9.512  1.00  0.00     0.023 C
HETATM   17  C24 UNL     1      20.281  24.961  11.448  1.00  0.00     0.023 C
HETATM   18  C25 UNL     1      18.778  26.039   9.783  1.00  0.00     0.135 C
HETATM   19  O4  UNL     1      18.672  25.083   9.058  1.00  0.00    -0.297 OA
HETATM   20  C26 UNL     1      17.674  27.023   9.842  1.00  0.00     0.080 C
HETATM   21  C27 UNL     1      18.065  28.327  10.443  1.00  0.00     0.017 C
HETATM   22  C28 UNL     1      18.906  28.164  11.701  1.00  0.00    -0.035 C
HETATM   23  C29 UNL     1      18.009  27.325  12.600  1.00  0.00     0.016 C
ENDROOT
BRANCH   1  24
HETATM   24  C7  UNL     1      18.795  33.633  14.822  1.00  0.00    -0.019 C
BRANCH  24  25
HETATM   25  C6  UNL     1      18.465  33.852  16.190  1.00  0.00    -0.005 C
BRANCH  25  26
HETATM   26  C5  UNL     1      18.747  34.201  17.367  1.00  0.00     0.004 C
BRANCH  26  27
HETATM   27  C4  UNL     1      18.316  35.142  18.410  1.00  0.00     0.146 C
BRANCH  27  28
HETATM   28  C3  UNL     1      17.320  36.167  18.051  1.00  0.00     0.062 C
BRANCH  28  29
HETATM   29  C2  UNL     1      15.994  35.940  18.725  1.00  0.00     0.169 C
BRANCH  29  30
HETATM   30  O1  UNL     1      15.529  34.709  18.865  1.00  0.00    -0.396 OA
HETATM   31  C1  UNL     1      15.020  33.980  17.862  1.00  0.00     0.201 C
ENDBRANCH  29  30
ENDBRANCH  28  29
ENDBRANCH  27  28
BRANCH  27  32
HETATM   32  O5  UNL     1      19.494  35.799  18.833  1.00  0.00    -0.380 OA
BRANCH  32  33
HETATM   33  C30 UNL     1      19.988  36.715  17.962  1.00  0.00     0.194 C
BRANCH  33  34
HETATM   34  C31 UNL     1      20.604  37.911  18.668  1.00  0.00     0.193 C
BRANCH  34  35
HETATM   35  O6  UNL     1      21.048  37.659  19.938  1.00  0.00    -0.387 OA
BRANCH  35  36
HETATM   36  C32 UNL     1      22.362  37.230  20.036  1.00  0.00     0.193 C
BRANCH  36  37
HETATM   37  C33 UNL     1      22.455  35.895  20.760  1.00  0.00     0.190 C
BRANCH  37  38
HETATM   38  O7  UNL     1      21.199  35.515  21.249  1.00  0.00    -0.399 OA
ATOM     39  H7  UNL     1      21.181  34.583  21.431  1.00  0.00     0.209 HD
ENDBRANCH  37  38
ENDBRANCH  36  37
ENDBRANCH  35  36
ENDBRANCH  34  35
ENDBRANCH  33  34
ENDBRANCH  32  33
ENDBRANCH  27  32
ENDBRANCH  26  27
ENDBRANCH  25  26
ENDBRANCH  24  25
ENDBRANCH   1  24
BRANCH   2  40
HETATM   40  O2  UNL     1      22.199  33.226  13.833  1.00  0.00    -0.395 OA
ATOM     41  H2  UNL     1      23.080  33.170  14.184  1.00  0.00     0.210 HD
ENDBRANCH   2  40
BRANCH  12  42
HETATM   42  O3  UNL     1      22.761  28.992  13.219  1.00  0.00    -0.395 OA
ATOM     43  H3  UNL     1      23.480  29.437  12.786  1.00  0.00     0.210 HD
ENDBRANCH  12  42
TORSDOF 16
ENDMDL