MODEL 3
REMARK VINA RESULT: -9.045851834      1.509      3.620
REMARK  14 active torsions:
REMARK  status: ('A' for Active; 'I' for Inactive)
REMARK       I    between atoms: C2_2  and  N1_4
REMARK    1  A    between atoms: C3_6  and  C4_7
REMARK    2  A    between atoms: C3_6  and  C8_12
REMARK    3  A    between atoms: C8_12  and  N2_13
REMARK    4  A    between atoms: C8_12  and  C28_42
REMARK       I    between atoms: N2_13  and  C9_15
REMARK    5  A    between atoms: C9_15  and  C10_17
REMARK    6  A    between atoms: C10_17  and  C11_18
REMARK       I    between atoms: C11_18  and  N3_20
REMARK    7  A    between atoms: N3_20  and  C12_21
REMARK    8  A    between atoms: C12_21  and  C13_22
REMARK    9  A    between atoms: C12_21  and  C20_29
REMARK   10  A    between atoms: C13_22  and  C14_23
REMARK       I    between atoms: C20_29  and  N4_31
REMARK   11  A    between atoms: N4_31  and  C21_33
REMARK   12  A    between atoms: C21_33  and  C23_35
REMARK   13  A    between atoms: C23_35  and  O7_37
REMARK   14  A    between atoms: O7_37  and  C24_38
ROOT
HETATM    1  C11 UNL     1      21.130  32.040  13.905  1.00  0.00     0.301 C
HETATM    2  O4  UNL     1      21.243  32.254  12.684  1.00  0.00    -0.257 OA
HETATM    3  N3  UNL     1      20.333  32.783  14.772  1.00  0.00    -0.365 NA
ENDROOT
BRANCH   1   4
HETATM    4  C10 UNL     1      21.960  30.880  14.395  1.00  0.00     0.221 C
BRANCH   4   5
HETATM    5  C9  UNL     1      21.230  29.643  14.116  1.00  0.00     0.228 C
HETATM    6  N2  UNL     1      20.414  29.539  12.943  1.00  0.00    -0.350 N
ATOM      7  H2  UNL     1      20.351  30.304  12.272  1.00  0.00     0.163 HD
HETATM    8  O3  UNL     1      21.298  28.648  14.906  1.00  0.00    -0.273 OA
BRANCH   6   9
HETATM    9  C8  UNL     1      19.690  28.312  12.747  1.00  0.00     0.140 C
BRANCH   9  10
HETATM   10  C3  UNL     1      20.103  27.502  11.573  1.00  0.00     0.069 C
HETATM   11  N1  UNL     1      19.169  27.169  10.808  1.00  0.00    -0.327 N
HETATM   12  C2  UNL     1      18.829  26.543   9.676  1.00  0.00     0.218 C
ATOM     13  H1  UNL     1      18.306  27.522  11.222  1.00  0.00     0.168 HD
HETATM   14  C1  UNL     1      18.465  27.354   8.459  1.00  0.00     0.117 C
HETATM   15  O1  UNL     1      18.785  25.291   9.544  1.00  0.00    -0.274 OA
BRANCH  10  16
HETATM   16  C4  UNL     1      21.473  27.135  11.249  1.00  0.00     0.099 A
HETATM   17  C5  UNL     1      21.960  25.874  11.126  1.00  0.00     0.041 A
HETATM   18  C6  UNL     1      23.323  25.999  10.814  1.00  0.00     0.027 A
HETATM   19  C7  UNL     1      23.545  27.348  10.773  1.00  0.00     0.142 A
HETATM   20  O2  UNL     1      22.439  27.971  11.033  1.00  0.00    -0.321 OA
ENDBRANCH  10  16
ENDBRANCH   9  10
BRANCH   9  21
HETATM   21  C28 UNL     1      18.252  28.563  12.955  1.00  0.00     0.006 C
HETATM   22  C29 UNL     1      17.511  27.853  14.018  1.00  0.00     0.012 C
HETATM   23  C30 UNL     1      17.912  30.067  12.994  1.00  0.00     0.012 C
ENDBRANCH   9  21
ENDBRANCH   6   9
ENDBRANCH   4   5
ENDBRANCH   1   4
BRANCH   3  24
HETATM   24  C12 UNL     1      19.564  33.501  15.609  1.00  0.00     0.178 C
BRANCH  24  25
HETATM   25  C13 UNL     1      18.297  34.139  15.230  1.00  0.00     0.053 C
BRANCH  25  26
HETATM   26  C14 UNL     1      17.130  34.192  16.108  1.00  0.00    -0.076 C
HETATM   27  C15 UNL     1      16.566  35.513  16.493  1.00  0.00     0.034 C
HETATM   28  C16 UNL     1      15.162  35.443  17.041  1.00  0.00     0.004 C
HETATM   29  C17 UNL     1      15.058  34.251  17.929  1.00  0.00     0.001 C
HETATM   30  C18 UNL     1      15.148  33.006  17.105  1.00  0.00     0.004 C
HETATM   31  C19 UNL     1      16.101  33.096  15.961  1.00  0.00     0.034 C
ENDBRANCH  25  26
ENDBRANCH  24  25
BRANCH  24  32
HETATM   32  C20 UNL     1      20.393  34.389  16.533  1.00  0.00     0.283 C
HETATM   33  O5  UNL     1      21.355  33.828  17.137  1.00  0.00    -0.265 OA
HETATM   34  N4  UNL     1      20.149  35.758  16.746  1.00  0.00    -0.341 N
ATOM     35  H4  UNL     1      19.380  36.227  16.268  1.00  0.00     0.163 HD
BRANCH  34  36
HETATM   36  C21 UNL     1      21.025  36.506  17.673  1.00  0.00     0.180 C
HETATM   37  C22 UNL     1      21.530  37.705  16.945  1.00  0.00     0.043 C
BRANCH  36  38
HETATM   38  C23 UNL     1      20.178  36.924  18.829  1.00  0.00     0.282 C
HETATM   39  O6  UNL     1      20.614  37.107  19.983  1.00  0.00    -0.263 OA
BRANCH  38  40
HETATM   40  O7  UNL     1      18.824  37.127  18.589  1.00  0.00    -0.310 OA
BRANCH  40  41
HETATM   41  C24 UNL     1      18.225  38.384  18.505  1.00  0.00     0.060 C
HETATM   42  C25 UNL     1      18.961  39.412  19.317  1.00  0.00     0.045 C
HETATM   43  C26 UNL     1      18.084  38.830  17.058  1.00  0.00     0.045 C
HETATM   44  C27 UNL     1      16.812  38.253  19.061  1.00  0.00     0.045 C
ENDBRANCH  40  41
ENDBRANCH  38  40
ENDBRANCH  36  38
ENDBRANCH  34  36
ENDBRANCH  24  32
ENDBRANCH   3  24
TORSDOF 14
ENDMDL