MODEL 5
REMARK VINA RESULT: -9.262668277      1.248      1.865
REMARK  13 active torsions:
REMARK  status: ('A' for Active; 'I' for Inactive)
REMARK    1  A    between atoms: C7_7  and  O1_8
REMARK    2  A    between atoms: C8_10  and  N1_11
REMARK    3  A    between atoms: C10_13  and  C11_14
REMARK       I    between atoms: C11_14  and  N2_16
REMARK    4  A    between atoms: N2_16  and  C12_18
REMARK    5  A    between atoms: C12_18  and  C13_19
REMARK    6  A    between atoms: C13_19  and  C14_20
REMARK    7  A    between atoms: C14_20  and  C15_21
REMARK    8  A    between atoms: C15_21  and  C16_22
REMARK    9  A    between atoms: C16_22  and  C17_23
REMARK   10  A    between atoms: C17_23  and  C18_24
REMARK   11  A    between atoms: C18_24  and  C19_25
REMARK   12  A    between atoms: C19_25  and  N3_26
REMARK       I    between atoms: N3_26  and  C20_28
REMARK   13  A    between atoms: C20_28  and  C21_30
ROOT
HETATM    1  C11 UNL     1      21.914  32.854  16.898  1.00  0.00     0.271 C
HETATM    2  O2  UNL     1      23.053  33.143  16.519  1.00  0.00    -0.266 OA
HETATM    3  N2  UNL     1      21.300  33.662  17.929  1.00  0.00    -0.356 N
ATOM      4  H2  UNL     1      20.359  33.435  18.251  1.00  0.00     0.162 HD
ENDROOT
BRANCH   3   5
HETATM    5  C12 UNL     1      21.989  34.768  18.499  1.00  0.00     0.123 C
BRANCH   5   6
HETATM    6  C13 UNL     1      21.797  36.078  17.841  1.00  0.00     0.020 C
BRANCH   6   7
HETATM    7  C14 UNL     1      20.456  36.653  17.703  1.00  0.00     0.002 C
BRANCH   7   8
HETATM    8  C15 UNL     1      19.677  37.152  18.837  1.00  0.00     0.000 C
BRANCH   8   9
HETATM    9  C16 UNL     1      19.441  38.645  18.879  1.00  0.00     0.000 C
BRANCH   9  10
HETATM   10  C17 UNL     1      18.158  39.062  18.246  1.00  0.00     0.002 C
BRANCH  10  11
HETATM   11  C18 UNL     1      17.047  39.334  19.243  1.00  0.00     0.020 C
BRANCH  11  12
HETATM   12  C19 UNL     1      15.861  38.529  18.793  1.00  0.00     0.122 C
BRANCH  12  13
HETATM   13  N3  UNL     1      16.141  37.438  17.931  1.00  0.00    -0.360 N
HETATM   14  C20 UNL     1      15.921  36.102  18.314  1.00  0.00     0.226 C
HETATM   15  O3  UNL     1      15.461  35.792  19.440  1.00  0.00    -0.273 OA
ATOM     16  H3  UNL     1      16.515  37.628  17.001  1.00  0.00     0.162 HD
BRANCH  14  17
HETATM   17  C21 UNL     1      16.252  35.019  17.334  1.00  0.00     0.042 C
HETATM   18  C22 UNL     1      15.230  33.912  17.355  1.00  0.00     0.024 C
HETATM   19  C23 UNL     1      15.663  32.866  16.372  1.00  0.00    -0.013 C
HETATM   20  C24 UNL     1      15.722  33.470  15.002  1.00  0.00     0.009 C
HETATM   21  C28 UNL     1      16.981  32.279  16.809  1.00  0.00     0.009 C
HETATM   22  C25 UNL     1      16.793  34.536  14.974  1.00  0.00    -0.013 C
HETATM   23  C26 UNL     1      18.134  33.996  15.408  1.00  0.00     0.009 C
HETATM   24  C30 UNL     1      16.391  35.610  15.955  1.00  0.00     0.024 C
HETATM   25  C27 UNL     1      18.029  33.374  16.767  1.00  0.00    -0.013 C
HETATM   26  C29 UNL     1      17.597  34.459  17.735  1.00  0.00     0.024 C
ENDBRANCH  14  17
ENDBRANCH  12  13
ENDBRANCH  11  12
ENDBRANCH  10  11
ENDBRANCH   9  10
ENDBRANCH   8   9
ENDBRANCH   7   8
ENDBRANCH   6   7
ENDBRANCH   5   6
ENDBRANCH   3   5
BRANCH   1  27
HETATM   27  C10 UNL     1      21.183  31.745  16.348  1.00  0.00     0.134 A
HETATM   28  C9  UNL     1      21.063  31.503  14.977  1.00  0.00     0.148 A
HETATM   29  N1  UNL     1      20.323  30.399  14.861  1.00  0.00    -0.279 N
HETATM   30  N5  UNL     1      20.007  29.991  16.073  1.00  0.00    -0.240 N
HETATM   31  N4  UNL     1      20.502  30.767  16.991  1.00  0.00    -0.280 N
ATOM     32  H5  UNL     1      19.442  29.165  16.268  1.00  0.00     0.208 HD
ATOM     33  H4  UNL     1      20.398  30.660  18.000  1.00  0.00     0.189 HD
BRANCH  29  34
HETATM   34  C8  UNL     1      19.964  29.803  13.571  1.00  0.00     0.140 C
HETATM   35  C7  UNL     1      18.457  29.662  13.480  1.00  0.00     0.143 C
HETATM   36  C6  UNL     1      17.965  29.507  12.074  1.00  0.00     0.034 C
HETATM   37  C5  UNL     1      17.782  28.058  11.683  1.00  0.00     0.010 C
HETATM   38  C4  UNL     1      18.941  27.187  12.128  1.00  0.00     0.017 C
HETATM   39  C3  UNL     1      19.094  26.078  11.118  1.00  0.00     0.038 C
HETATM   40  C32 UNL     1      20.250  27.909  12.053  1.00  0.00     0.128 C
HETATM   41  C2  UNL     1      20.582  25.862  11.150  1.00  0.00     0.118 C
HETATM   42  C1  UNL     1      21.148  25.492   9.798  1.00  0.00     0.039 C
HETATM   43  O4  UNL     1      21.161  27.002  11.611  1.00  0.00    -0.381 OA
HETATM   44  C31 UNL     1      20.558  28.417  13.452  1.00  0.00     0.062 C
BRANCH  35  45
HETATM   45  O1  UNL     1      17.866  30.793  14.016  1.00  0.00    -0.393 OA
ATOM     46  H1  UNL     1      17.903  30.722  14.963  1.00  0.00     0.210 HD
ENDBRANCH  35  45
ENDBRANCH  29  34
ENDBRANCH   1  27
TORSDOF 13
ENDMDL