MODEL 5
REMARK VINA RESULT: -8.012423960      1.770      2.488
REMARK  19 active torsions:
REMARK  status: ('A' for Active; 'I' for Inactive)
REMARK    1  A    between atoms: C3_3  and  C4_4
REMARK    2  A    between atoms: C5_5  and  C6_6
REMARK    3  A    between atoms: C7_7  and  C8_8
REMARK    4  A    between atoms: C14_16  and  N2_17
REMARK    5  A    between atoms: N2_17  and  C15_18
REMARK    6  A    between atoms: C15_18  and  C16_19
REMARK    7  A    between atoms: C16_19  and  C17_20
REMARK    8  A    between atoms: C17_20  and  N3_21
REMARK    9  A    between atoms: N4_24  and  C20_25
REMARK   10  A    between atoms: C20_25  and  C21_26
REMARK   11  A    between atoms: C21_26  and  O1_27
REMARK   12  A    between atoms: O1_27  and  C22_28
REMARK   13  A    between atoms: C22_28  and  N5_30
REMARK   14  A    between atoms: N7_38  and  C28_40
REMARK   15  A    between atoms: C28_40  and  C29_41
REMARK   16  A    between atoms: C29_41  and  C30_42
REMARK   17  A    between atoms: C30_42  and  C31_43
REMARK   18  A    between atoms: C31_43  and  C32_44
REMARK   19  A    between atoms: C32_44  and  N8_45
ROOT
HETATM    1  C6  UNL     1      20.816  30.294  12.480  1.00  0.00     0.035 A
HETATM    2  C7  UNL     1      22.199  30.352  12.545  1.00  0.00     0.060 A
HETATM    3  N1  UNL     1      22.751  31.431  13.123  1.00  0.00    -0.315 N
ATOM      4  H1  UNL     1      23.769  31.476  13.176  1.00  0.00     0.170 HD
HETATM    5  C14 UNL     1      22.036  32.471  13.644  1.00  0.00     0.260 A
HETATM    6  N6  UNL     1      20.676  32.371  13.551  1.00  0.00    -0.302 N
ATOM      7  H6  UNL     1      20.112  33.133  13.929  1.00  0.00     0.171 HD
HETATM    8  C27 UNL     1      20.044  31.340  12.998  1.00  0.00     0.117 A
HETATM    9  N7  UNL     1      18.732  31.335  12.954  1.00  0.00    -0.375 N
ATOM     10  H7  UNL     1      18.265  30.537  12.525  1.00  0.00     0.161 HD
ENDROOT
BRANCH   5  11
HETATM   11  N2  UNL     1      22.606  33.397  14.144  1.00  0.00    -0.388 NA
BRANCH  11  12
HETATM   12  C15 UNL     1      23.193  34.421  14.749  1.00  0.00     0.161 C
BRANCH  12  13
HETATM   13  C16 UNL     1      22.290  35.634  15.032  1.00  0.00     0.089 C
BRANCH  13  14
HETATM   14  C17 UNL     1      22.186  35.878  16.527  1.00  0.00     0.279 C
BRANCH  14  15
HETATM   15  N3  UNL     1      21.429  34.857  17.174  1.00  0.00     0.091 N
HETATM   16  C18 UNL     1      20.270  34.406  16.475  1.00  0.00     0.292 C
HETATM   17  C19 UNL     1      18.989  34.725  17.183  1.00  0.00     0.152 C
HETATM   18  N4  UNL     1      19.055  36.000  17.881  1.00  0.00    -0.388 N
HETATM   19  C25 UNL     1      20.110  36.079  18.814  1.00  0.00     0.152 C
HETATM   20  C26 UNL     1      21.249  35.112  18.558  1.00  0.00     0.292 C
BRANCH  18  21
HETATM   21  C20 UNL     1      17.790  36.521  18.215  1.00  0.00     0.084 C
BRANCH  21  22
HETATM   22  C21 UNL     1      17.236  37.397  17.121  1.00  0.00     0.222 C
BRANCH  22  23
HETATM   23  O1  UNL     1      17.723  38.688  17.091  1.00  0.00    -0.322 OA
BRANCH  23  24
HETATM   24  C22 UNL     1      17.150  39.883  17.341  1.00  0.00     0.211 C
HETATM   25  S1  UNL     1      17.781  41.178  16.504  1.00  0.00    -0.033 SA
BRANCH  24  26
HETATM   26  N5  UNL     1      16.089  40.196  18.214  1.00  0.00    -0.361 N
HETATM   27  C23 UNL     1      14.977  41.069  17.886  1.00  0.00     0.152 C
HETATM   28  C24 UNL     1      16.050  39.625  19.573  1.00  0.00     0.152 C
ENDBRANCH  24  26
ENDBRANCH  23  24
ENDBRANCH  22  23
ENDBRANCH  21  22
ENDBRANCH  18  21
ENDBRANCH  14  15
ENDBRANCH  13  14
ENDBRANCH  12  13
ENDBRANCH  11  12
ENDBRANCH   5  11
BRANCH   2  29
HETATM   29  C8  UNL     1      23.083  29.298  12.019  1.00  0.00    -0.008 A
HETATM   30  C9  UNL     1      24.032  28.835  12.927  1.00  0.00     0.014 A
HETATM   31  C10 UNL     1      24.993  27.933  12.551  1.00  0.00     0.001 A
HETATM   32  C11 UNL     1      25.017  27.475  11.250  1.00  0.00     0.000 A
HETATM   33  C12 UNL     1      24.079  27.933  10.353  1.00  0.00     0.001 A
HETATM   34  C13 UNL     1      23.124  28.839  10.750  1.00  0.00     0.014 A
ENDBRANCH   2  29
BRANCH   1  35
HETATM   35  C5  UNL     1      20.182  29.074  12.073  1.00  0.00     0.017 C
HETATM   36  C4  UNL     1      19.955  28.003  12.756  1.00  0.00     0.001 C
BRANCH  36  37
HETATM   37  C3  UNL     1      19.278  26.877  12.076  1.00  0.00    -0.004 C
HETATM   38  C2  UNL     1      18.048  26.589  12.385  1.00  0.00    -0.031 C
HETATM   39  C1  UNL     1      17.307  27.385  13.428  1.00  0.00     0.036 C
ENDBRANCH  36  37
ENDBRANCH   1  35
BRANCH   9  40
HETATM   40  C28 UNL     1      17.928  32.391  13.476  1.00  0.00     0.121 C
BRANCH  40  41
HETATM   41  C29 UNL     1      17.157  31.982  14.717  1.00  0.00     0.020 C
BRANCH  41  42
HETATM   42  C30 UNL     1      17.760  30.715  15.317  1.00  0.00     0.003 C
BRANCH  42  43
HETATM   43  C31 UNL     1      18.574  31.038  16.552  1.00  0.00     0.027 C
BRANCH  43  44
HETATM   44  C32 UNL     1      19.994  30.523  16.420  1.00  0.00     0.229 C
BRANCH  44  45
HETATM   45  N8  UNL     1      20.043  29.102  16.197  1.00  0.00    -0.079 N
ATOM     46  H83 UNL     1      19.173  28.764  15.786  1.00  0.00     0.274 HD
ATOM     47  H82 UNL     1      20.682  28.872  15.436  1.00  0.00     0.274 HD
ATOM     48  H81 UNL     1      20.277  28.583  17.043  1.00  0.00     0.274 HD
ENDBRANCH  44  45
ENDBRANCH  43  44
ENDBRANCH  42  43
ENDBRANCH  41  42
ENDBRANCH  40  41
ENDBRANCH   9  40
TORSDOF 19
ENDMDL