MODEL 4
REMARK VINA RESULT: -7.227978174      2.682      5.652
REMARK  16 active torsions:
REMARK  status: ('A' for Active; 'I' for Inactive)
REMARK    1  A    between atoms: C2_2  and  O1_3
REMARK    2  A    between atoms: O1_3  and  C3_4
REMARK    3  A    between atoms: C4_5  and  N1_6
REMARK    4  A    between atoms: C8_14  and  C9_15
REMARK       I    between atoms: C9_15  and  N3_17
REMARK    5  A    between atoms: N3_17  and  C10_19
REMARK    6  A    between atoms: C16_25  and  O4_26
REMARK    7  A    between atoms: C18_28  and  C19_29
REMARK       I    between atoms: C19_29  and  N4_31
REMARK    8  A    between atoms: N4_31  and  C20_33
REMARK    9  A    between atoms: C20_33  and  C21_34
REMARK   10  A    between atoms: C21_34  and  C22_35
REMARK   11  A    between atoms: C22_35  and  C23_36
REMARK   12  A    between atoms: C23_36  and  C24_37
REMARK   13  A    between atoms: C24_37  and  C25_38
REMARK   14  A    between atoms: C25_38  and  C26_39
REMARK   15  A    between atoms: C26_39  and  C27_40
REMARK   16  A    between atoms: C27_40  and  N5_41
ROOT
HETATM    1  C3  UNL     1      18.133  36.533  17.159  1.00  0.00     0.114 A
HETATM    2  C4  UNL     1      17.167  37.465  17.255  1.00  0.00     0.072 A
HETATM    3  C14 UNL     1      15.873  37.048  16.896  1.00  0.00     0.035 A
HETATM    4  C15 UNL     1      15.579  35.780  16.462  1.00  0.00     0.040 A
HETATM    5  C16 UNL     1      16.585  34.853  16.365  1.00  0.00     0.086 A
HETATM    6  C18 UNL     1      17.894  35.215  16.714  1.00  0.00     0.101 A
ENDROOT
BRANCH   6   7
HETATM    7  C19 UNL     1      18.926  34.239  16.474  1.00  0.00     0.268 C
HETATM    8  O5  UNL     1      19.050  33.191  17.201  1.00  0.00    -0.266 OA
HETATM    9  N4  UNL     1      19.905  34.320  15.415  1.00  0.00    -0.292 N
ATOM     10  H4  UNL     1      19.837  35.124  14.791  1.00  0.00     0.178 HD
BRANCH   9  11
HETATM   11  C20 UNL     1      20.900  33.447  15.165  1.00  0.00    -0.068 C
BRANCH  11  12
HETATM   12  C21 UNL     1      21.964  32.528  14.906  1.00  0.00     0.104 C
BRANCH  12  13
HETATM   13  C22 UNL     1      21.912  31.963  13.493  1.00  0.00     0.013 C
BRANCH  13  14
HETATM   14  C23 UNL     1      22.639  30.687  13.355  1.00  0.00     0.001 C
BRANCH  14  15
HETATM   15  C24 UNL     1      22.212  29.907  12.145  1.00  0.00     0.000 C
BRANCH  15  16
HETATM   16  C25 UNL     1      22.151  28.443  12.595  1.00  0.00     0.002 C
BRANCH  16  17
HETATM   17  C26 UNL     1      20.841  27.776  12.270  1.00  0.00     0.030 C
BRANCH  17  18
HETATM   18  C27 UNL     1      19.855  28.906  11.968  1.00  0.00     0.272 C
BRANCH  18  19
HETATM   19  N5  UNL     1      18.605  28.607  12.603  1.00  0.00     0.088 N
HETATM   20  C28 UNL     1      18.712  28.444  14.050  1.00  0.00     0.272 C
HETATM   21  C29 UNL     1      19.298  29.675  14.714  1.00  0.00     0.030 C
HETATM   22  C30 UNL     1      18.317  30.815  14.469  1.00  0.00     0.003 C
HETATM   23  C31 UNL     1      18.126  30.956  12.982  1.00  0.00     0.030 C
HETATM   24  C32 UNL     1      17.631  29.683  12.358  1.00  0.00     0.272 C
ENDBRANCH  18  19
ENDBRANCH  17  18
ENDBRANCH  16  17
ENDBRANCH  15  16
ENDBRANCH  14  15
ENDBRANCH  13  14
ENDBRANCH  12  13
ENDBRANCH  11  12
ENDBRANCH   9  11
ENDBRANCH   6   7
BRANCH   1  25
HETATM   25  O1  UNL     1      19.448  36.770  17.514  1.00  0.00    -0.348 OA
BRANCH  25  26
HETATM   26  C2  UNL     1      19.860  36.671  18.850  1.00  0.00     0.171 C
HETATM   27  C1  UNL     1      20.870  35.676  19.241  1.00  0.00     0.034 C
ENDBRANCH  25  26
ENDBRANCH   1  25
BRANCH   5  28
HETATM   28  O4  UNL     1      16.382  33.557  15.935  1.00  0.00    -0.355 OA
HETATM   29  C17 UNL     1      15.465  32.640  16.424  1.00  0.00     0.210 C
ENDBRANCH   5  28
BRANCH   2  30
HETATM   30  N1  UNL     1      17.404  38.841  17.518  1.00  0.00    -0.298 N
HETATM   31  C5  UNL     1      17.036  39.156  18.915  1.00  0.00     0.251 C
HETATM   32  O2  UNL     1      16.013  38.568  19.427  1.00  0.00    -0.271 OA
HETATM   33  C6  UNL     1      17.822  40.121  19.711  1.00  0.00     0.335 C
HETATM   34  N2  UNL     1      18.469  41.102  18.845  1.00  0.00    -0.064 N
HETATM   35  C7  UNL     1      17.707  41.210  17.614  1.00  0.00     0.268 C
ATOM     36  H22 UNL     1      18.598  42.004  19.304  1.00  0.00     0.277 HD
ATOM     37  H21 UNL     1      19.452  40.888  18.677  1.00  0.00     0.277 HD
HETATM   38  C8  UNL     1      17.871  39.908  16.772  1.00  0.00     0.210 C
BRANCH  38  39
HETATM   39  C9  UNL     1      19.225  39.987  16.251  1.00  0.00     0.243 C
HETATM   40  O3  UNL     1      19.605  41.195  15.987  1.00  0.00    -0.271 OA
HETATM   41  N3  UNL     1      20.170  38.987  15.992  1.00  0.00    -0.351 N
ATOM     42  H3  UNL     1      19.938  38.010  16.175  1.00  0.00     0.163 HD
BRANCH  41  43
HETATM   43  C10 UNL     1      21.483  39.333  15.462  1.00  0.00     0.022 C
HETATM   44  C11 UNL     1      22.316  38.078  15.548  1.00  0.00     0.037 C
HETATM   45  C12 UNL     1      21.392  39.783  14.016  1.00  0.00     0.037 C
HETATM   46  C13 UNL     1      22.173  40.426  16.225  1.00  0.00     0.037 C
ENDBRANCH  41  43
ENDBRANCH  38  39
ENDBRANCH   2  30
TORSDOF 16
ENDMDL