MODEL 2
REMARK VINA RESULT: -8.234258347      0.469      2.054
REMARK  18 active torsions:
REMARK  status: ('A' for Active; 'I' for Inactive)
REMARK    1  A    between atoms: O1_2  and  C2_3
REMARK    2  A    between atoms: C4_5  and  N1_6
REMARK       I    between atoms: N1_6  and  C5_8
REMARK    3  A    between atoms: C5_8  and  C6_10
REMARK    4  A    between atoms: C6_10  and  N2_11
REMARK    5  A    between atoms: N2_11  and  C7_12
REMARK    6  A    between atoms: N2_11  and  C21_33
REMARK    7  A    between atoms: C7_12  and  N3_14
REMARK    8  A    between atoms: N3_14  and  C8_16
REMARK    9  A    between atoms: C8_16  and  C9_17
REMARK   10  A    between atoms: C9_17  and  C10_18
REMARK   11  A    between atoms: C10_18  and  C11_19
REMARK   12  A    between atoms: C11_19  and  C12_20
REMARK       I    between atoms: C12_20  and  N4_22
REMARK   13  A    between atoms: N4_22  and  C13_24
REMARK   14  A    between atoms: C13_24  and  C14_25
REMARK   15  A    between atoms: C14_25  and  C15_26
REMARK   16  A    between atoms: C15_26  and  N5_27
REMARK   17  A    between atoms: C27_39  and  O4_40
REMARK   18  A    between atoms: C29_42  and  O5_43
ROOT
HETATM    1  N2  UNL     1      20.864  31.286  14.655  1.00  0.00    -0.345 N
ENDROOT
BRANCH   1   2
HETATM    2  C6  UNL     1      19.640  31.203  15.392  1.00  0.00     0.228 C
BRANCH   2   3
HETATM    3  C5  UNL     1      18.876  32.441  15.616  1.00  0.00     0.240 C
HETATM    4  N1  UNL     1      18.983  33.010  16.932  1.00  0.00    -0.326 N
ATOM      5  H1  UNL     1      19.560  32.518  17.613  1.00  0.00     0.169 HD
HETATM    6  O2  UNL     1      18.157  33.028  14.782  1.00  0.00    -0.271 OA
BRANCH   4   7
HETATM    7  C4  UNL     1      18.352  34.193  17.348  1.00  0.00     0.040 A
HETATM    8  C3  UNL     1      19.123  35.361  17.418  1.00  0.00     0.069 A
HETATM    9  C2  UNL     1      18.596  36.569  17.789  1.00  0.00     0.106 A
HETATM   10  C29 UNL     1      17.257  36.663  18.108  1.00  0.00     0.135 A
HETATM   11  C27 UNL     1      16.458  35.548  18.053  1.00  0.00     0.106 A
HETATM   12  C26 UNL     1      17.023  34.332  17.675  1.00  0.00     0.069 A
BRANCH   9  13
HETATM   13  O1  UNL     1      19.379  37.714  17.852  1.00  0.00    -0.353 OA
HETATM   14  C1  UNL     1      20.738  37.670  17.499  1.00  0.00     0.210 C
ENDBRANCH   9  13
BRANCH  10  15
HETATM   15  O5  UNL     1      16.765  37.907  18.477  1.00  0.00    -0.351 OA
HETATM   16  C30 UNL     1      16.310  38.772  17.453  1.00  0.00     0.210 C
ENDBRANCH  10  15
BRANCH  11  17
HETATM   17  O4  UNL     1      15.130  35.710  18.382  1.00  0.00    -0.353 OA
HETATM   18  C28 UNL     1      14.135  35.583  17.380  1.00  0.00     0.210 C
ENDBRANCH  11  17
ENDBRANCH   4   7
ENDBRANCH   2   3
ENDBRANCH   1   2
BRANCH   1  19
HETATM   19  C7  UNL     1      21.008  30.484  13.477  1.00  0.00     0.170 C
HETATM   20  S1  UNL     1      20.598  31.056  12.007  1.00  0.00    -0.041 SA
BRANCH  19  21
HETATM   21  N3  UNL     1      21.553  29.156  13.478  1.00  0.00    -0.367 N
ATOM     22  H3  UNL     1      20.939  28.379  13.236  1.00  0.00     0.161 HD
BRANCH  21  23
HETATM   23  C8  UNL     1      22.914  28.873  13.800  1.00  0.00     0.122 C
BRANCH  23  24
HETATM   24  C9  UNL     1      23.958  29.295  12.830  1.00  0.00     0.020 C
BRANCH  24  25
HETATM   25  C10 UNL     1      24.878  28.160  12.429  1.00  0.00     0.011 C
BRANCH  25  26
HETATM   26  C11 UNL     1      24.532  27.683  11.016  1.00  0.00     0.103 C
BRANCH  26  27
HETATM   27  C12 UNL     1      23.749  26.406  11.104  1.00  0.00     0.217 C
HETATM   28  O3  UNL     1      24.295  25.386  11.583  1.00  0.00    -0.274 OA
HETATM   29  N4  UNL     1      22.418  26.339  10.656  1.00  0.00    -0.361 N
ATOM     30  H4  UNL     1      22.006  27.197  10.289  1.00  0.00     0.162 HD
BRANCH  29  31
HETATM   31  C13 UNL     1      21.588  25.162  10.671  1.00  0.00     0.124 C
BRANCH  31  32
HETATM   32  C14 UNL     1      20.135  25.488  10.546  1.00  0.00     0.050 C
BRANCH  32  33
HETATM   33  C15 UNL     1      19.581  26.484  11.464  1.00  0.00     0.274 C
BRANCH  33  34
HETATM   34  N5  UNL     1      18.203  26.749  11.579  1.00  0.00     0.088 N
HETATM   35  C16 UNL     1      17.960  27.956  10.727  1.00  0.00     0.272 C
HETATM   36  C17 UNL     1      16.887  28.833  11.275  1.00  0.00     0.030 C
HETATM   37  C18 UNL     1      17.292  29.472  12.591  1.00  0.00     0.003 C
HETATM   38  C19 UNL     1      18.034  28.415  13.396  1.00  0.00     0.030 C
HETATM   39  C20 UNL     1      17.647  27.037  12.861  1.00  0.00     0.272 C
ENDBRANCH  33  34
ENDBRANCH  32  33
ENDBRANCH  31  32
ENDBRANCH  29  31
ENDBRANCH  26  27
ENDBRANCH  25  26
ENDBRANCH  24  25
ENDBRANCH  23  24
ENDBRANCH  21  23
ENDBRANCH  19  21
ENDBRANCH   1  19
BRANCH   1  40
HETATM   40  C21 UNL     1      21.961  32.190  14.963  1.00  0.00     0.087 C
HETATM   41  C22 UNL     1      21.770  33.593  14.554  1.00  0.00     0.025 C
HETATM   42  C23 UNL     1      22.307  34.495  15.610  1.00  0.00     0.002 C
HETATM   43  C24 UNL     1      22.554  33.618  16.782  1.00  0.00     0.002 C
HETATM   44  C25 UNL     1      22.250  32.201  16.443  1.00  0.00     0.025 C
ENDBRANCH   1  40
TORSDOF 18
ENDMDL