MODEL 2
REMARK VINA RESULT: -8.187794474      2.519      9.587
REMARK  17 active torsions:
REMARK  status: ('A' for Active; 'I' for Inactive)
REMARK    1  A    between atoms: C2_2  and  C4_4
REMARK    2  A    between atoms: C4_4  and  C5_5
REMARK    3  A    between atoms: C5_5  and  O2_7
REMARK    4  A    between atoms: O2_7  and  C6_8
REMARK    5  A    between atoms: C6_8  and  C8_10
REMARK    6  A    between atoms: C8_10  and  N1_12
REMARK       I    between atoms: N1_12  and  C10_14
REMARK    7  A    between atoms: C10_14  and  C11_16
REMARK    8  A    between atoms: C11_16  and  C12_17
REMARK    9  A    between atoms: C11_16  and  N2_21
REMARK   10  A    between atoms: C12_17  and  C13_18
REMARK       I    between atoms: N2_21  and  C16_23
REMARK   11  A    between atoms: C16_23  and  C17_25
REMARK   12  A    between atoms: C21_30  and  C22_31
REMARK       I    between atoms: C22_31  and  N3_33
REMARK   13  A    between atoms: N3_33  and  C23_35
REMARK   14  A    between atoms: C23_35  and  C24_36
REMARK   15  A    between atoms: C23_35  and  C28_40
REMARK   16  A    between atoms: C24_36  and  C25_37
REMARK   17  A    between atoms: C28_40  and  C29_42
ROOT
HETATM    1  N2  UNL     1      19.431  35.567  16.894  1.00  0.00    -0.347 N
ATOM      2  H2  UNL     1      19.113  35.602  15.925  1.00  0.00     0.163 HD
HETATM    3  C16 UNL     1      18.626  34.937  17.858  1.00  0.00     0.223 C
HETATM    4  O4  UNL     1      18.997  34.873  19.047  1.00  0.00    -0.273 OA
ENDROOT
BRANCH   3   5
HETATM    5  C17 UNL     1      17.305  34.325  17.503  1.00  0.00     0.098 C
HETATM    6  C18 UNL     1      16.319  35.518  17.596  1.00  0.00     0.093 C
HETATM    7  C19 UNL     1      15.170  34.963  16.845  1.00  0.00     0.128 C
HETATM    8  O5  UNL     1      13.989  35.047  17.101  1.00  0.00    -0.298 OA
HETATM    9  C20 UNL     1      15.747  34.265  15.688  1.00  0.00     0.093 C
HETATM   10  C21 UNL     1      17.208  34.046  16.025  1.00  0.00     0.098 C
BRANCH  10  11
HETATM   11  C22 UNL     1      17.709  32.711  15.623  1.00  0.00     0.223 C
HETATM   12  O6  UNL     1      17.789  31.818  16.497  1.00  0.00    -0.273 OA
HETATM   13  N3  UNL     1      18.094  32.427  14.302  1.00  0.00    -0.349 N
ATOM     14  H3  UNL     1      18.009  33.182  13.621  1.00  0.00     0.163 HD
BRANCH  13  15
HETATM   15  C23 UNL     1      18.607  31.145  13.812  1.00  0.00     0.155 C
BRANCH  15  16
HETATM   16  C24 UNL     1      17.449  30.518  13.076  1.00  0.00     0.037 C
BRANCH  16  17
HETATM   17  C25 UNL     1      17.846  29.191  12.419  1.00  0.00    -0.020 C
HETATM   18  C26 UNL     1      16.994  28.849  11.236  1.00  0.00     0.009 C
HETATM   19  C27 UNL     1      17.772  28.107  13.479  1.00  0.00     0.009 C
ENDBRANCH  16  17
ENDBRANCH  15  16
BRANCH  15  20
HETATM   20  C28 UNL     1      19.809  31.369  12.978  1.00  0.00     0.157 C
HETATM   21  O7  UNL     1      19.717  32.143  12.037  1.00  0.00    -0.295 OA
BRANCH  20  22
HETATM   22  C29 UNL     1      21.110  30.727  13.198  1.00  0.00     0.012 C
HETATM   23  C30 UNL     1      21.527  29.911  11.949  1.00  0.00     0.022 C
HETATM   24  C31 UNL     1      22.235  31.714  13.422  1.00  0.00     0.022 C
HETATM   25  C32 UNL     1      21.075  29.661  14.304  1.00  0.00     0.022 C
ENDBRANCH  20  22
ENDBRANCH  15  20
ENDBRANCH  13  15
ENDBRANCH  10  11
ENDBRANCH   3   5
BRANCH   1  26
HETATM   26  C11 UNL     1      20.736  36.182  17.254  1.00  0.00     0.177 C
BRANCH  26  27
HETATM   27  C10 UNL     1      20.445  37.571  17.559  1.00  0.00     0.240 C
HETATM   28  N1  UNL     1      19.774  38.496  16.710  1.00  0.00    -0.353 N
ATOM     29  H1  UNL     1      19.454  38.188  15.792  1.00  0.00     0.163 HD
HETATM   30  O3  UNL     1      20.826  38.030  18.700  1.00  0.00    -0.271 OA
BRANCH  28  31
HETATM   31  C8  UNL     1      19.536  39.863  17.116  1.00  0.00     0.109 C
HETATM   32  C9  UNL     1      18.142  40.319  16.783  1.00  0.00     0.035 C
BRANCH  31  33
HETATM   33  C6  UNL     1      20.496  40.788  16.358  1.00  0.00     0.150 C
HETATM   34  C7  UNL     1      19.985  42.194  16.538  1.00  0.00     0.042 C
BRANCH  33  35
HETATM   35  O2  UNL     1      20.391  40.518  14.955  1.00  0.00    -0.314 OA
BRANCH  35  36
HETATM   36  C5  UNL     1      21.439  40.046  14.193  1.00  0.00     0.259 C
HETATM   37  O1  UNL     1      21.714  38.837  14.199  1.00  0.00    -0.265 OA
BRANCH  36  38
HETATM   38  C4  UNL     1      22.227  40.986  13.373  1.00  0.00     0.115 C
BRANCH  38  39
HETATM   39  C2  UNL     1      22.899  40.331  12.210  1.00  0.00    -0.013 C
HETATM   40  C1  UNL     1      21.917  40.046  11.097  1.00  0.00     0.010 C
HETATM   41  C3  UNL     1      24.035  41.207  11.733  1.00  0.00     0.010 C
ENDBRANCH  38  39
ENDBRANCH  36  38
ENDBRANCH  35  36
ENDBRANCH  33  35
ENDBRANCH  31  33
ENDBRANCH  28  31
ENDBRANCH  26  27
BRANCH  26  42
HETATM   42  C12 UNL     1      21.603  35.991  16.055  1.00  0.00     0.038 C
BRANCH  42  43
HETATM   43  C13 UNL     1      22.159  34.673  15.733  1.00  0.00    -0.020 C
HETATM   44  C14 UNL     1      22.261  33.704  16.899  1.00  0.00     0.009 C
HETATM   45  C15 UNL     1      23.385  34.589  14.897  1.00  0.00     0.009 C
ENDBRANCH  42  43
ENDBRANCH  26  42
ENDBRANCH   1  26
TORSDOF 17
ENDMDL