MODEL 4
REMARK VINA RESULT: -7.411583619      3.458     11.127
REMARK  17 active torsions:
REMARK  status: ('A' for Active; 'I' for Inactive)
REMARK    1  A    between atoms: C2_2  and  C3_3
REMARK    2  A    between atoms: C3_3  and  C5_5
REMARK    3  A    between atoms: C5_5  and  N1_6
REMARK    4  A    between atoms: C5_5  and  C19_27
REMARK       I    between atoms: N1_6  and  C6_8
REMARK       I    between atoms: C6_8  and  N2_10
REMARK       I    between atoms: N3_13  and  C9_14
REMARK    5  A    between atoms: C9_14  and  C10_16
REMARK    6  A    between atoms: C17_23  and  C18_24
REMARK    7  A    between atoms: C19_27  and  C20_29
REMARK    8  A    between atoms: C20_29  and  C21_30
REMARK    9  A    between atoms: C20_29  and  C22_32
REMARK   10  A    between atoms: C22_32  and  C23_33
REMARK   11  A    between atoms: C22_32  and  C27_40
REMARK   12  A    between atoms: C23_33  and  C24_34
REMARK   13  A    between atoms: C24_34  and  S1_35
REMARK   14  A    between atoms: S1_35  and  C25_36
REMARK   15  A    between atoms: C25_36  and  C26_37
REMARK   16  A    between atoms: C26_37  and  O7_38
REMARK   17  A    between atoms: C27_40  and  C28_41
ROOT
HETATM    1  C5  UNL     1      20.452  31.374  15.579  1.00  0.00     0.160 C
ENDROOT
BRANCH   1   2
HETATM    2  C3  UNL     1      21.648  32.176  15.301  1.00  0.00     0.011 C
HETATM    3  C4  UNL     1      21.701  32.747  13.875  1.00  0.00     0.012 C
BRANCH   2   4
HETATM    4  C2  UNL     1      22.259  33.122  16.223  1.00  0.00     0.002 C
HETATM    5  C1  UNL     1      22.586  34.491  15.692  1.00  0.00     0.005 C
ENDBRANCH   2   4
ENDBRANCH   1   2
BRANCH   1   6
HETATM    6  N1  UNL     1      20.225  30.476  14.397  1.00  0.00    -0.331 N
HETATM    7  C6  UNL     1      21.185  29.542  13.952  1.00  0.00     0.319 C
HETATM    8  O1  UNL     1      22.312  29.406  14.531  1.00  0.00    -0.247 OA
HETATM    9  N2  UNL     1      20.951  28.700  12.833  1.00  0.00    -0.316 N
HETATM   10  C7  UNL     1      21.959  27.743  12.443  1.00  0.00     0.148 C
HETATM   11  C17 UNL     1      19.742  28.752  12.047  1.00  0.00     0.207 C
HETATM   12  C8  UNL     1      21.283  26.445  12.001  1.00  0.00     0.145 C
HETATM   13  N3  UNL     1      20.385  26.698  10.888  1.00  0.00    -0.348 N
HETATM   14  C9  UNL     1      20.010  25.611  10.058  1.00  0.00     0.224 C
HETATM   15  C16 UNL     1      19.924  28.040  10.719  1.00  0.00     0.162 C
HETATM   16  O2  UNL     1      20.410  24.434  10.286  1.00  0.00    -0.273 OA
ATOM     17  H1  UNL     1      19.340  30.544  13.895  1.00  0.00     0.165 HD
BRANCH  14  18
HETATM   18  C10 UNL     1      19.124  25.801   8.865  1.00  0.00     0.078 C
HETATM   19  C11 UNL     1      17.732  25.361   9.201  1.00  0.00     0.014 C
HETATM   20  C12 UNL     1      16.865  25.161   7.983  1.00  0.00     0.001 C
HETATM   21  C13 UNL     1      17.502  23.975   7.254  1.00  0.00     0.000 C
HETATM   22  C14 UNL     1      18.815  24.443   6.733  1.00  0.00     0.001 C
HETATM   23  C15 UNL     1      19.726  25.115   7.687  1.00  0.00     0.014 C
ENDBRANCH  14  18
BRANCH  11  24
HETATM   24  C18 UNL     1      18.574  28.209  12.733  1.00  0.00     0.198 C
HETATM   25  O3  UNL     1      18.652  27.852  13.927  1.00  0.00    -0.646 OA
HETATM   26  O4  UNL     1      17.372  28.083  12.076  1.00  0.00    -0.646 OA
ENDBRANCH  11  24
ENDBRANCH   1   6
BRANCH   1  27
HETATM   27  C19 UNL     1      19.197  31.988  15.973  1.00  0.00     0.161 C
HETATM   28  O5  UNL     1      18.501  31.353  16.789  1.00  0.00    -0.295 OA
BRANCH  27  29
HETATM   29  C20 UNL     1      18.676  33.257  15.527  1.00  0.00     0.126 C
BRANCH  29  30
HETATM   30  C21 UNL     1      17.790  33.119  14.352  1.00  0.00     0.244 C
HETATM   31  O6  UNL     1      17.796  32.173  13.571  1.00  0.00    -0.306 OA
ENDBRANCH  29  30
BRANCH  29  32
HETATM   32  C22 UNL     1      17.861  33.995  16.706  1.00  0.00     0.027 C
BRANCH  32  33
HETATM   33  C23 UNL     1      18.953  34.658  17.422  1.00  0.00    -0.014 C
BRANCH  33  34
HETATM   34  C24 UNL     1      19.163  36.095  17.540  1.00  0.00     0.041 C
BRANCH  34  35
HETATM   35  S1  UNL     1      20.239  36.835  18.700  1.00  0.00    -0.140 SA
BRANCH  35  36
HETATM   36  C25 UNL     1      21.941  36.282  18.700  1.00  0.00     0.104 C
BRANCH  36  37
HETATM   37  C26 UNL     1      22.026  35.101  19.672  1.00  0.00     0.174 C
BRANCH  37  38
HETATM   38  O7  UNL     1      20.858  35.006  20.402  1.00  0.00    -0.400 OA
ATOM     39  H7  UNL     1      20.181  35.540  20.002  1.00  0.00     0.209 HD
ENDBRANCH  37  38
ENDBRANCH  36  37
ENDBRANCH  35  36
ENDBRANCH  34  35
ENDBRANCH  33  34
ENDBRANCH  32  33
BRANCH  32  40
HETATM   40  C27 UNL     1      16.808  34.674  15.968  1.00  0.00     0.013 C
BRANCH  40  41
HETATM   41  C28 UNL     1      15.493  35.024  16.510  1.00  0.00    -0.022 C
HETATM   42  C29 UNL     1      15.420  36.288  17.312  1.00  0.00     0.009 C
HETATM   43  C30 UNL     1      15.148  33.924  17.623  1.00  0.00     0.009 C
ENDBRANCH  40  41
ENDBRANCH  32  40
ENDBRANCH  29  32
ENDBRANCH  27  29
ENDBRANCH   1  27
TORSDOF 17
ENDMDL