MODEL 2
REMARK VINA RESULT: -8.256557723      2.333      5.482
REMARK  18 active torsions:
REMARK  status: ('A' for Active; 'I' for Inactive)
REMARK    1  A    between atoms: N1_2  and  C3_4
REMARK    2  A    between atoms: C3_4  and  C4_5
REMARK    3  A    between atoms: C4_5  and  C5_6
REMARK    4  A    between atoms: C5_6  and  C6_7
REMARK    5  A    between atoms: C6_7  and  N2_8
REMARK       I    between atoms: N2_8  and  C8_10
REMARK    6  A    between atoms: C8_10  and  C9_12
REMARK    7  A    between atoms: C9_12  and  C10_13
REMARK    8  A    between atoms: C9_12  and  N4_25
REMARK    9  A    between atoms: C10_13  and  C11_14
REMARK   10  A    between atoms: C11_14  and  C12_15
REMARK   11  A    between atoms: C12_15  and  C13_16
REMARK   12  A    between atoms: C13_16  and  C14_17
REMARK   13  A    between atoms: C14_17  and  C15_18
REMARK   14  A    between atoms: C15_18  and  O2_19
REMARK   15  A    between atoms: N3_21  and  O3_23
REMARK       I    between atoms: N4_25  and  C16_27
REMARK   16  A    between atoms: C16_27  and  C17_29
REMARK       I    between atoms: N5_33  and  C21_34
REMARK   17  A    between atoms: C21_34  and  O6_36
REMARK   18  A    between atoms: O6_36  and  C22_37
ROOT
HETATM    1  C9  UNL     1      18.503  30.471  13.480  1.00  0.00     0.176 C
ENDROOT
BRANCH   1   2
HETATM    2  C8  UNL     1      19.838  30.761  12.894  1.00  0.00     0.242 C
HETATM    3  N2  UNL     1      21.033  30.101  13.325  1.00  0.00    -0.355 N
HETATM    4  C7  UNL     1      21.023  29.141  14.410  1.00  0.00     0.152 C
HETATM    5  O1  UNL     1      19.982  31.618  11.976  1.00  0.00    -0.271 OA
BRANCH   3   6
HETATM    6  C6  UNL     1      22.286  30.399  12.718  1.00  0.00     0.125 C
BRANCH   6   7
HETATM    7  C5  UNL     1      23.359  29.382  12.827  1.00  0.00     0.022 C
BRANCH   7   8
HETATM    8  C4  UNL     1      23.480  28.488  11.623  1.00  0.00     0.032 C
BRANCH   8   9
HETATM    9  C3  UNL     1      22.908  27.099  11.914  1.00  0.00     0.271 C
BRANCH   9  10
HETATM   10  N1  UNL     1      23.866  26.097  11.587  1.00  0.00     0.080 N
HETATM   11  C1  UNL     1      23.571  25.317  10.436  1.00  0.00     0.309 C
HETATM   12  C2  UNL     1      25.217  26.594  11.527  1.00  0.00     0.309 C
ENDBRANCH   9  10
ENDBRANCH   8   9
ENDBRANCH   7   8
ENDBRANCH   6   7
ENDBRANCH   3   6
ENDBRANCH   1   2
BRANCH   1  13
HETATM   13  C10 UNL     1      17.551  30.152  12.311  1.00  0.00     0.035 C
BRANCH  13  14
HETATM   14  C11 UNL     1      17.371  28.674  12.114  1.00  0.00     0.002 C
BRANCH  14  15
HETATM   15  C12 UNL     1      17.024  28.464  10.661  1.00  0.00     0.001 C
BRANCH  15  16
HETATM   16  C13 UNL     1      17.684  27.210  10.149  1.00  0.00     0.008 C
BRANCH  16  17
HETATM   17  C14 UNL     1      18.923  26.907  10.937  1.00  0.00     0.086 C
BRANCH  17  18
HETATM   18  C15 UNL     1      18.819  25.481  11.392  1.00  0.00     0.135 C
HETATM   19  N3  UNL     1      19.896  24.905  11.786  1.00  0.00    -0.251 N
ATOM     20  H3  UNL     1      20.764  25.441  11.771  1.00  0.00     0.196 HD
BRANCH  18  21
HETATM   21  O2  UNL     1      17.637  24.777  11.403  1.00  0.00    -0.348 OA
ATOM     22  H2  UNL     1      17.310  24.297  10.651  1.00  0.00     0.219 HD
ENDBRANCH  18  21
BRANCH  19  23
HETATM   23  O3  UNL     1      19.941  23.610  12.225  1.00  0.00    -0.288 OA
ATOM     24  H3  UNL     1      19.360  23.263  12.893  1.00  0.00     0.244 HD
ENDBRANCH  19  23
ENDBRANCH  17  18
ENDBRANCH  16  17
ENDBRANCH  15  16
ENDBRANCH  14  15
ENDBRANCH  13  14
ENDBRANCH   1  13
BRANCH   1  25
HETATM   25  N4  UNL     1      17.951  31.673  14.143  1.00  0.00    -0.346 N
HETATM   26  C16 UNL     1      17.170  31.586  15.286  1.00  0.00     0.241 C
HETATM   27  O4  UNL     1      16.938  30.409  15.737  1.00  0.00    -0.271 OA
ATOM     28  H4  UNL     1      18.150  32.592  13.749  1.00  0.00     0.163 HD
BRANCH  26  29
HETATM   29  C17 UNL     1      16.596  32.704  16.003  1.00  0.00     0.181 C
HETATM   30  C18 UNL     1      15.752  33.564  15.007  1.00  0.00     0.037 C
HETATM   31  C19 UNL     1      15.924  34.984  15.469  1.00  0.00     0.022 C
HETATM   32  C20 UNL     1      16.575  34.836  16.823  1.00  0.00     0.129 C
HETATM   33  N5  UNL     1      17.430  33.685  16.577  1.00  0.00    -0.315 N
HETATM   34  C21 UNL     1      18.787  33.679  16.949  1.00  0.00     0.363 C
HETATM   35  O5  UNL     1      19.594  32.718  16.861  1.00  0.00    -0.238 OA
BRANCH  34  36
HETATM   36  O6  UNL     1      19.394  34.842  17.487  1.00  0.00    -0.298 OA
BRANCH  36  37
HETATM   37  C22 UNL     1      20.311  35.634  16.761  1.00  0.00     0.142 C
HETATM   38  C23 UNL     1      21.711  35.048  16.809  1.00  0.00     0.016 C
HETATM   39  C24 UNL     1      22.304  35.203  18.192  1.00  0.00     0.012 C
HETATM   40  C28 UNL     1      22.542  35.820  15.806  1.00  0.00     0.012 C
HETATM   41  C25 UNL     1      22.368  36.668  18.553  1.00  0.00    -0.013 C
HETATM   42  C26 UNL     1      23.232  37.375  17.547  1.00  0.00     0.009 C
HETATM   43  C31 UNL     1      20.958  37.204  18.597  1.00  0.00     0.012 C
HETATM   44  C27 UNL     1      22.573  37.300  16.199  1.00  0.00    -0.013 C
HETATM   45  C29 UNL     1      21.164  37.860  16.257  1.00  0.00     0.012 C
HETATM   46  C30 UNL     1      20.328  37.054  17.223  1.00  0.00     0.016 C
ENDBRANCH  36  37
ENDBRANCH  34  36
ENDBRANCH  26  29
ENDBRANCH   1  25
TORSDOF 18
ENDMDL