MODEL 3
REMARK VINA RESULT: -8.789563349      1.978      5.075
REMARK  16 active torsions:
REMARK  status: ('A' for Active; 'I' for Inactive)
REMARK    1  A    between atoms: C2_2  and  C3_3
REMARK    2  A    between atoms: N2_9  and  C7_10
REMARK    3  A    between atoms: C7_10  and  C8_11
REMARK       I    between atoms: N3_15  and  C12_16
REMARK    4  A    between atoms: C12_16  and  C13_18
REMARK    5  A    between atoms: C13_18  and  C14_19
REMARK    6  A    between atoms: C14_19  and  C15_20
REMARK    7  A    between atoms: C16_23  and  C17_24
REMARK    8  A    between atoms: C17_24  and  C18_25
REMARK    9  A    between atoms: C21_30  and  O2_31
REMARK   10  A    between atoms: O2_31  and  C22_32
REMARK   11  A    between atoms: C22_32  and  C23_33
REMARK   12  A    between atoms: C23_33  and  O3_34
REMARK   13  A    between atoms: C23_33  and  C24_36
REMARK   14  A    between atoms: C24_36  and  N6_37
REMARK       I    between atoms: N6_37  and  C25_39
REMARK   15  A    between atoms: C25_39  and  C26_41
REMARK   16  A    between atoms: C26_41  and  C27_42
ROOT
HETATM    1  C15 UNL     1      18.371  28.764  12.043  1.00  0.00     0.062 A
HETATM    2  N4  UNL     1      17.776  27.947  11.128  1.00  0.00    -0.346 N
ATOM      3  H4  UNL     1      17.107  28.250  10.419  1.00  0.00     0.167 HD
HETATM    4  C16 UNL     1      18.201  26.685  11.298  1.00  0.00     0.083 A
HETATM    5  N5  UNL     1      19.061  26.669  12.309  1.00  0.00    -0.325 N
ATOM      6  H5  UNL     1      19.546  25.845  12.664  1.00  0.00     0.169 HD
HETATM    7  C21 UNL     1      19.189  27.950  12.797  1.00  0.00     0.167 A
ENDROOT
BRANCH   1   8
HETATM    8  C14 UNL     1      18.165  30.221  12.099  1.00  0.00     0.071 C
BRANCH   8   9
HETATM    9  C13 UNL     1      17.450  30.725  13.314  1.00  0.00     0.109 C
BRANCH   9  10
HETATM   10  C12 UNL     1      18.019  31.907  13.981  1.00  0.00     0.220 C
HETATM   11  N3  UNL     1      17.589  32.412  15.199  1.00  0.00    -0.346 N
HETATM   12  C8  UNL     1      18.015  33.485  16.039  1.00  0.00     0.105 C
HETATM   13  C11 UNL     1      16.385  31.942  15.910  1.00  0.00     0.126 C
HETATM   14  C9  UNL     1      16.721  34.360  15.776  1.00  0.00     0.028 C
HETATM   15  C10 UNL     1      15.648  33.305  15.952  1.00  0.00     0.022 C
HETATM   16  O1  UNL     1      18.984  32.461  13.342  1.00  0.00    -0.273 OA
BRANCH  12  17
HETATM   17  C7  UNL     1      19.207  34.245  15.686  1.00  0.00     0.150 C
BRANCH  17  18
HETATM   18  N2  UNL     1      19.976  34.804  16.750  1.00  0.00    -0.363 N
HETATM   19  C3  UNL     1      19.596  36.021  17.537  1.00  0.00     0.103 C
HETATM   20  C4  UNL     1      19.915  35.485  18.920  1.00  0.00     0.146 C
HETATM   21  N1  UNL     1      21.132  34.761  18.668  1.00  0.00    -0.378 N
HETATM   22  C5  UNL     1      21.165  34.376  17.395  1.00  0.00     0.071 C
ATOM     23  H1  UNL     1      21.859  34.573  19.360  1.00  0.00     0.160 HD
HETATM   24  C6  UNL     1      22.295  33.607  16.826  1.00  0.00     0.088 C
BRANCH  19  25
HETATM   25  C2  UNL     1      20.597  37.085  17.137  1.00  0.00     0.022 C
HETATM   26  C1  UNL     1      20.577  38.284  18.071  1.00  0.00     0.007 C
ENDBRANCH  19  25
ENDBRANCH  17  18
ENDBRANCH  12  17
ENDBRANCH   9  10
ENDBRANCH   8   9
ENDBRANCH   1   8
BRANCH   7  27
HETATM   27  O2  UNL     1      19.966  28.297  13.812  1.00  0.00    -0.332 OA
BRANCH  27  28
HETATM   28  C22 UNL     1      20.097  28.444  15.129  1.00  0.00     0.210 C
BRANCH  28  29
HETATM   29  C23 UNL     1      20.191  29.858  15.685  1.00  0.00     0.160 C
BRANCH  29  30
HETATM   30  O3  UNL     1      20.132  29.946  17.033  1.00  0.00    -0.392 OA
ATOM     31  H3  UNL     1      20.617  30.671  17.409  1.00  0.00     0.210 HD
ENDBRANCH  29  30
BRANCH  29  32
HETATM   32  C24 UNL     1      21.312  30.582  15.057  1.00  0.00     0.156 C
BRANCH  32  33
HETATM   33  N6  UNL     1      22.377  29.782  14.567  1.00  0.00    -0.359 N
HETATM   34  C25 UNL     1      22.933  29.710  13.284  1.00  0.00     0.217 C
HETATM   35  O4  UNL     1      22.528  30.395  12.324  1.00  0.00    -0.274 OA
ATOM     36  H6  UNL     1      22.804  29.163  15.257  1.00  0.00     0.162 HD
BRANCH  34  37
HETATM   37  C26 UNL     1      24.073  28.769  13.029  1.00  0.00     0.107 C
BRANCH  37  38
HETATM   38  C27 UNL     1      23.907  27.961  11.787  1.00  0.00    -0.006 C
HETATM   39  C28 UNL     1      25.154  27.106  11.614  1.00  0.00     0.005 C
HETATM   40  C29 UNL     1      25.122  26.383  10.309  1.00  0.00     0.000 C
HETATM   41  C30 UNL     1      23.893  25.562  10.172  1.00  0.00     0.000 C
HETATM   42  C31 UNL     1      22.849  25.747  11.222  1.00  0.00     0.000 C
HETATM   43  C32 UNL     1      22.661  27.149  11.705  1.00  0.00     0.005 C
ENDBRANCH  37  38
ENDBRANCH  34  37
ENDBRANCH  32  33
ENDBRANCH  29  32
ENDBRANCH  28  29
ENDBRANCH  27  28
ENDBRANCH   7  27
BRANCH   4  44
HETATM   44  C17 UNL     1      17.749  25.541  10.441  1.00  0.00     0.080 C
BRANCH  44  45
HETATM   45  C18 UNL     1      17.922  25.818   8.967  1.00  0.00    -0.016 C
HETATM   46  C19 UNL     1      16.971  25.013   8.126  1.00  0.00     0.010 C
HETATM   47  C20 UNL     1      19.368  25.534   8.607  1.00  0.00     0.010 C
ENDBRANCH  44  45
ENDBRANCH   4  44
TORSDOF 16
ENDMDL