MODEL 3
REMARK VINA RESULT: -8.709896866      1.845      4.459
REMARK  16 active torsions:
REMARK  status: ('A' for Active; 'I' for Inactive)
REMARK    1  A    between atoms: C2_2  and  C3_3
REMARK    2  A    between atoms: C3_3  and  C4_4
REMARK    3  A    between atoms: C4_4  and  N1_5
REMARK    4  A    between atoms: N1_5  and  C5_6
REMARK    5  A    between atoms: N1_5  and  C8_9
REMARK    6  A    between atoms: C5_6  and  C6_7
REMARK    7  A    between atoms: C8_9  and  C9_10
REMARK    8  A    between atoms: C8_9  and  C10_12
REMARK    9  A    between atoms: C10_12  and  C11_13
REMARK   10  A    between atoms: C10_12  and  N2_20
REMARK   11  A    between atoms: C11_13  and  C12_14
REMARK       I    between atoms: N2_20  and  C18_22
REMARK   12  A    between atoms: C18_22  and  C19_24
REMARK   13  A    between atoms: C19_24  and  N3_25
REMARK       I    between atoms: N3_25  and  C20_27
REMARK   14  A    between atoms: C20_27  and  O4_29
REMARK   15  A    between atoms: O4_29  and  C21_30
REMARK   16  A    between atoms: C21_30  and  C22_31
ROOT
HETATM    1  C22 UNL     1      18.874  36.583  18.036  1.00  0.00     0.022 C
HETATM    2  C23 UNL     1      18.670  37.772  17.547  1.00  0.00     0.092 C
HETATM    3  C24 UNL     1      17.361  38.366  17.550  1.00  0.00     0.087 C
HETATM    4  N4  UNL     1      16.300  38.862  17.559  1.00  0.00    -0.192 NA
ENDROOT
BRANCH   1   5
HETATM    5  C21 UNL     1      20.220  35.991  18.026  1.00  0.00     0.094 C
HETATM    6  C25 UNL     1      20.716  35.866  19.473  1.00  0.00     0.070 C
HETATM    7  C26 UNL     1      22.102  35.230  19.362  1.00  0.00     0.235 C
HETATM    8  N5  UNL     1      22.957  36.241  18.762  1.00  0.00    -0.075 N
HETATM    9  C27 UNL     1      22.558  36.423  17.380  1.00  0.00     0.235 C
ATOM     10  H52 UNL     1      22.958  37.115  19.287  1.00  0.00     0.277 HD
ATOM     11  H51 UNL     1      23.949  36.021  18.856  1.00  0.00     0.277 HD
HETATM   12  C28 UNL     1      21.163  36.968  17.363  1.00  0.00     0.070 C
BRANCH   5  13
HETATM   13  O4  UNL     1      20.274  34.697  17.479  1.00  0.00    -0.288 OA
BRANCH  13  14
HETATM   14  C20 UNL     1      19.334  34.255  16.536  1.00  0.00     0.362 C
HETATM   15  N3  UNL     1      18.078  33.810  16.980  1.00  0.00    -0.319 N
ATOM     16  H3  UNL     1      17.912  33.834  17.986  1.00  0.00     0.166 HD
HETATM   17  O3  UNL     1      19.734  34.309  15.346  1.00  0.00    -0.238 OA
BRANCH  15  18
HETATM   18  C19 UNL     1      16.999  33.321  16.155  1.00  0.00     0.116 C
HETATM   19  C29 UNL     1      16.668  34.252  15.010  1.00  0.00     0.041 C
HETATM   20  C30 UNL     1      16.007  35.515  15.481  1.00  0.00     0.008 C
HETATM   21  C31 UNL     1      14.853  35.296  16.388  1.00  0.00    -0.010 A
HETATM   22  C32 UNL     1      15.198  35.421  17.875  1.00  0.00     0.010 A
HETATM   23  C33 UNL     1      14.844  34.122  17.231  1.00  0.00    -0.007 A
HETATM   24  C34 UNL     1      15.805  33.035  17.012  1.00  0.00     0.046 C
BRANCH  18  25
HETATM   25  C18 UNL     1      17.411  32.008  15.526  1.00  0.00     0.246 C
HETATM   26  N2  UNL     1      18.145  31.956  14.337  1.00  0.00    -0.352 N
ATOM     27  H2  UNL     1      18.361  32.872  13.945  1.00  0.00     0.163 HD
HETATM   28  O2  UNL     1      17.047  30.998  16.147  1.00  0.00    -0.271 OA
BRANCH  26  29
HETATM   29  C10 UNL     1      18.652  30.861  13.568  1.00  0.00     0.125 C
BRANCH  29  30
HETATM   30  C8  UNL     1      20.074  30.520  14.036  1.00  0.00     0.306 C
BRANCH  30  31
HETATM   31  N1  UNL     1      21.024  30.695  12.930  1.00  0.00     0.101 N
BRANCH  31  32
HETATM   32  C4  UNL     1      21.383  29.389  12.457  1.00  0.00     0.273 C
BRANCH  32  33
HETATM   33  C3  UNL     1      22.440  29.289  11.415  1.00  0.00     0.030 C
BRANCH  33  34
HETATM   34  C2  UNL     1      23.429  28.205  11.898  1.00  0.00    -0.003 C
HETATM   35  C1  UNL     1      24.482  28.765  12.795  1.00  0.00     0.005 C
ENDBRANCH  33  34
ENDBRANCH  32  33
ENDBRANCH  31  32
BRANCH  31  36
HETATM   36  C5  UNL     1      22.068  31.577  13.208  1.00  0.00     0.273 C
BRANCH  36  37
HETATM   37  C6  UNL     1      22.242  32.299  14.459  1.00  0.00     0.026 C
HETATM   38  C7  UNL     1      22.970  33.632  14.079  1.00  0.00     0.007 C
ENDBRANCH  36  37
ENDBRANCH  31  36
ENDBRANCH  30  31
BRANCH  30  39
HETATM   39  C9  UNL     1      20.113  29.149  14.563  1.00  0.00     0.269 C
HETATM   40  O1  UNL     1      20.338  28.778  15.680  1.00  0.00    -0.304 OA
ENDBRANCH  30  39
ENDBRANCH  29  30
BRANCH  29  41
HETATM   41  C11 UNL     1      17.747  29.685  13.545  1.00  0.00     0.032 C
BRANCH  41  42
HETATM   42  C12 UNL     1      17.861  28.676  12.489  1.00  0.00    -0.013 C
HETATM   43  C13 UNL     1      17.082  29.053  11.222  1.00  0.00     0.005 C
HETATM   44  C14 UNL     1      17.056  27.955  10.206  1.00  0.00     0.000 C
HETATM   45  C15 UNL     1      18.360  27.198  10.263  1.00  0.00     0.000 C
HETATM   46  C16 UNL     1      18.493  26.507  11.580  1.00  0.00     0.000 C
HETATM   47  C17 UNL     1      17.727  27.239  12.707  1.00  0.00     0.005 C
ENDBRANCH  41  42
ENDBRANCH  29  41
ENDBRANCH  26  29
ENDBRANCH  18  25
ENDBRANCH  15  18
ENDBRANCH  13  14
ENDBRANCH   5  13
ENDBRANCH   1   5
TORSDOF 16
ENDMDL