MODEL 5
REMARK VINA RESULT: -7.662432918      1.325      1.995
REMARK  15 active torsions:
REMARK  status: ('A' for Active; 'I' for Inactive)
REMARK    1  A    between atoms: C2_2  and  C3_3
REMARK    2  A    between atoms: C3_3  and  C4_4
REMARK    3  A    between atoms: C4_4  and  C5_5
REMARK    4  A    between atoms: C5_5  and  C6_6
REMARK    5  A    between atoms: C6_6  and  C7_7
REMARK    6  A    between atoms: C7_7  and  C8_8
REMARK    7  A    between atoms: C8_8  and  C9_9
REMARK    8  A    between atoms: C9_9  and  C10_10
REMARK    9  A    between atoms: C10_10  and  C11_11
REMARK   10  A    between atoms: C11_11  and  N1_12
REMARK   11  A    between atoms: N1_12  and  S1_14
REMARK   12  A    between atoms: S1_14  and  N2_17
REMARK       I    between atoms: N2_17  and  C12_19
REMARK   13  A    between atoms: N4_21  and  C13_23
REMARK   14  A    between atoms: C23_35  and  C25_37
REMARK   15  A    between atoms: C25_37  and  O5_39
ROOT
HETATM    1  N2  UNL     1      21.998  30.413  11.908  1.00  0.00    -0.241 N
ATOM      2  H2  UNL     1      22.492  30.893  11.156  1.00  0.00     0.183 HD
HETATM    3  C12 UNL     1      20.959  31.096  12.580  1.00  0.00     0.201 C
HETATM    4  N3  UNL     1      20.003  31.780  11.805  1.00  0.00    -0.063 NA
HETATM    5  N4  UNL     1      20.914  31.073  13.886  1.00  0.00    -0.337 N
ATOM      6  H4  UNL     1      21.632  30.560  14.397  1.00  0.00     0.164 HD
ENDROOT
BRANCH   5   7
HETATM    7  C13 UNL     1      19.889  31.745  14.615  1.00  0.00     0.226 C
HETATM    8  O3  UNL     1      20.389  32.818  15.392  1.00  0.00    -0.366 OA
HETATM    9  C14 UNL     1      19.237  33.617  15.618  1.00  0.00     0.176 C
HETATM   10  C15 UNL     1      18.469  32.971  16.707  1.00  0.00     0.022 C
HETATM   11  C16 UNL     1      18.155  31.522  16.408  1.00  0.00    -0.000 C
HETATM   12  C27 UNL     1      17.220  33.613  17.158  1.00  0.00     0.047 C
HETATM   13  C17 UNL     1      16.773  31.301  15.865  1.00  0.00     0.006 C
HETATM   14  C28 UNL     1      19.231  30.833  15.599  1.00  0.00     0.035 C
HETATM   15  C18 UNL     1      16.185  32.505  15.154  1.00  0.00     0.007 C
HETATM   16  C19 UNL     1      16.105  33.604  16.135  1.00  0.00     0.026 C
HETATM   17  C20 UNL     1      16.039  34.990  15.618  1.00  0.00     0.224 C
HETATM   18  C21 UNL     1      16.021  35.126  14.125  1.00  0.00     0.043 C
HETATM   19  N5  UNL     1      17.159  35.696  16.239  1.00  0.00     0.108 N
HETATM   20  C22 UNL     1      16.978  37.105  16.299  1.00  0.00     0.312 C
HETATM   21  C23 UNL     1      17.259  35.050  17.531  1.00  0.00     0.246 C
HETATM   22  C24 UNL     1      16.001  35.314  18.366  1.00  0.00     0.061 C
HETATM   23  C29 UNL     1      18.719  29.621  14.875  1.00  0.00     0.015 C
BRANCH  21  24
HETATM   24  C25 UNL     1      18.383  35.485  18.348  1.00  0.00     0.298 C
HETATM   25  O4  UNL     1      18.662  34.797  19.367  1.00  0.00    -0.262 OA
BRANCH  24  26
HETATM   26  O5  UNL     1      19.169  36.584  18.100  1.00  0.00    -0.324 OA
HETATM   27  C26 UNL     1      20.521  36.438  17.670  1.00  0.00     0.213 C
ENDBRANCH  24  26
ENDBRANCH  21  24
ENDBRANCH   5   7
BRANCH   1  28
HETATM   28  S1  UNL     1      22.462  28.806  12.305  1.00  0.00     0.321 S
HETATM   29  O1  UNL     1      23.858  28.903  12.894  1.00  0.00    -0.182 OA
HETATM   30  O2  UNL     1      21.564  28.227  13.344  1.00  0.00    -0.182 OA
BRANCH  28  31
HETATM   31  N1  UNL     1      22.504  27.772  10.924  1.00  0.00    -0.302 N
ATOM     32  H1  UNL     1      22.551  28.086   9.954  1.00  0.00     0.173 HD
BRANCH  31  33
HETATM   33  C11 UNL     1      22.462  26.388  11.355  1.00  0.00     0.133 C
BRANCH  33  34
HETATM   34  C10 UNL     1      21.589  25.559  10.429  1.00  0.00     0.020 C
BRANCH  34  35
HETATM   35  C9  UNL     1      20.435  25.038  11.222  1.00  0.00     0.002 C
BRANCH  35  36
HETATM   36  C8  UNL     1      19.367  26.080  11.317  1.00  0.00     0.000 C
BRANCH  36  37
HETATM   37  C7  UNL     1      18.055  25.517  10.892  1.00  0.00     0.000 C
BRANCH  37  38
HETATM   38  C6  UNL     1      17.583  26.261   9.658  1.00  0.00     0.000 C
BRANCH  38  39
HETATM   39  C5  UNL     1      17.024  25.366   8.600  1.00  0.00     0.000 C
BRANCH  39  40
HETATM   40  C4  UNL     1      18.115  24.874   7.681  1.00  0.00     0.000 C
BRANCH  40  41
HETATM   41  C3  UNL     1      19.014  25.997   7.253  1.00  0.00    -0.000 C
BRANCH  41  42
HETATM   42  C2  UNL     1      18.751  26.457   5.844  1.00  0.00    -0.005 C
HETATM   43  C1  UNL     1      18.133  27.837   5.916  1.00  0.00     0.005 C
ENDBRANCH  41  42
ENDBRANCH  40  41
ENDBRANCH  39  40
ENDBRANCH  38  39
ENDBRANCH  37  38
ENDBRANCH  36  37
ENDBRANCH  35  36
ENDBRANCH  34  35
ENDBRANCH  33  34
ENDBRANCH  31  33
ENDBRANCH  28  31
ENDBRANCH   1  28
TORSDOF 15
ENDMDL