MODEL 4
REMARK VINA RESULT: -8.617453980      2.286      6.463
REMARK  18 active torsions:
REMARK  status: ('A' for Active; 'I' for Inactive)
REMARK    1  A    between atoms: O1_2  and  C2_3
REMARK    2  A    between atoms: C2_3  and  C3_5
REMARK    3  A    between atoms: C3_5  and  C4_6
REMARK    4  A    between atoms: C4_6  and  C5_7
REMARK    5  A    between atoms: C5_7  and  C6_8
REMARK    6  A    between atoms: C6_8  and  C7_9
REMARK    7  A    between atoms: C6_8  and  C18_29
REMARK    8  A    between atoms: C7_9  and  C8_10
REMARK    9  A    between atoms: C8_10  and  O3_11
REMARK   10  A    between atoms: C8_10  and  C9_13
REMARK   11  A    between atoms: C10_14  and  C11_15
REMARK   12  A    between atoms: C13_18  and  O5_19
REMARK   13  A    between atoms: N1_22  and  C15_23
REMARK   14  A    between atoms: C15_23  and  C16_24
REMARK   15  A    between atoms: C18_29  and  C19_30
REMARK   16  A    between atoms: C19_30  and  C21_32
REMARK   17  A    between atoms: C21_32  and  C22_33
REMARK   18  A    between atoms: C22_33  and  C23_34
ROOT
HETATM    1  C6  UNL     1      21.538  29.873  14.144  1.00  0.00    -0.012 C
ENDROOT
BRANCH   1   2
HETATM    2  C5  UNL     1      22.910  29.536  13.749  1.00  0.00     0.005 C
BRANCH   2   3
HETATM    3  C4  UNL     1      22.962  29.189  12.266  1.00  0.00     0.010 C
BRANCH   3   4
HETATM    4  C3  UNL     1      24.084  28.241  11.955  1.00  0.00     0.111 C
BRANCH   4   5
HETATM    5  C2  UNL     1      23.604  26.859  11.924  1.00  0.00     0.258 C
HETATM    6  O2  UNL     1      24.442  25.921  11.905  1.00  0.00    -0.265 OA
BRANCH   5   7
HETATM    7  O1  UNL     1      22.270  26.492  11.914  1.00  0.00    -0.326 OA
HETATM    8  C1  UNL     1      21.796  25.350  11.218  1.00  0.00     0.213 C
ENDBRANCH   5   7
ENDBRANCH   4   5
ENDBRANCH   3   4
ENDBRANCH   2   3
ENDBRANCH   1   2
BRANCH   1   9
HETATM    9  C7  UNL     1      21.515  31.136  14.984  1.00  0.00     0.040 C
BRANCH   9  10
HETATM   10  C8  UNL     1      22.241  32.313  14.440  1.00  0.00     0.141 C
BRANCH  10  11
HETATM   11  O3  UNL     1      21.563  33.011  13.450  1.00  0.00    -0.392 OA
ATOM     12  H3  UNL     1      20.873  33.583  13.765  1.00  0.00     0.210 HD
ENDBRANCH  10  11
BRANCH  10  13
HETATM   13  C9  UNL     1      22.572  33.306  15.502  1.00  0.00     0.002 C
HETATM   14  C10 UNL     1      22.027  34.499  15.472  1.00  0.00    -0.007 C
BRANCH  14  15
HETATM   15  C11 UNL     1      22.260  35.582  16.452  1.00  0.00     0.172 C
HETATM   16  C12 UNL     1      21.469  35.500  17.676  1.00  0.00     0.173 C
HETATM   17  O4  UNL     1      21.560  34.538  18.407  1.00  0.00    -0.294 OA
HETATM   18  C13 UNL     1      20.548  36.608  18.022  1.00  0.00     0.206 C
HETATM   19  C14 UNL     1      21.197  37.958  17.844  1.00  0.00     0.166 C
HETATM   20  N1  UNL     1      21.736  38.045  16.512  1.00  0.00    -0.338 N
HETATM   21  C17 UNL     1      21.955  36.867  15.770  1.00  0.00     0.235 C
HETATM   22  O8  UNL     1      21.882  36.936  14.498  1.00  0.00    -0.272 OA
BRANCH  18  23
HETATM   23  O5  UNL     1      19.389  36.581  17.242  1.00  0.00    -0.386 OA
ATOM     24  H5  UNL     1      18.735  37.191  17.561  1.00  0.00     0.210 HD
ENDBRANCH  18  23
BRANCH  20  25
HETATM   25  C15 UNL     1      22.073  39.322  15.891  1.00  0.00     0.239 C
BRANCH  25  26
HETATM   26  C16 UNL     1      20.964  40.272  16.032  1.00  0.00     0.191 C
HETATM   27  O6  UNL     1      19.931  40.119  15.339  1.00  0.00    -0.647 OA
HETATM   28  O7  UNL     1      21.011  41.342  16.909  1.00  0.00    -0.647 OA
ENDBRANCH  25  26
ENDBRANCH  20  25
ENDBRANCH  14  15
ENDBRANCH  10  13
ENDBRANCH   9  10
ENDBRANCH   1   9
BRANCH   1  29
HETATM   29  C18 UNL     1      20.507  30.016  13.047  1.00  0.00     0.009 C
BRANCH  29  30
HETATM   30  C19 UNL     1      19.314  29.178  13.072  1.00  0.00    -0.018 C
HETATM   31  C20 UNL     1      19.000  28.379  14.298  1.00  0.00     0.010 C
BRANCH  30  32
HETATM   32  C21 UNL     1      18.096  30.136  12.961  1.00  0.00     0.005 C
BRANCH  32  33
HETATM   33  C22 UNL     1      18.450  31.557  13.164  1.00  0.00     0.005 C
BRANCH  33  34
HETATM   34  C23 UNL     1      17.396  32.226  14.012  1.00  0.00    -0.006 C
HETATM   35  C24 UNL     1      17.704  33.697  14.213  1.00  0.00    -0.010 C
HETATM   36  C25 UNL     1      16.425  34.441  14.316  1.00  0.00     0.005 C
HETATM   37  C30 UNL     1      18.688  33.940  15.304  1.00  0.00     0.009 C
HETATM   38  C26 UNL     1      15.946  34.676  15.717  1.00  0.00     0.005 C
HETATM   39  C27 UNL     1      16.085  33.466  16.604  1.00  0.00    -0.014 C
HETATM   40  C28 UNL     1      17.376  33.563  17.353  1.00  0.00     0.009 C
HETATM   41  C33 UNL     1      15.858  32.179  15.900  1.00  0.00     0.009 C
HETATM   42  C29 UNL     1      18.534  33.082  16.508  1.00  0.00    -0.013 C
HETATM   43  C31 UNL     1      18.290  31.625  16.214  1.00  0.00     0.010 C
HETATM   44  C32 UNL     1      17.089  31.543  15.299  1.00  0.00    -0.009 C
ENDBRANCH  33  34
ENDBRANCH  32  33
ENDBRANCH  30  32
ENDBRANCH  29  30
ENDBRANCH   1  29
TORSDOF 18
ENDMDL