MODEL 3
REMARK VINA RESULT: -8.894235206      1.874      3.728
REMARK  15 active torsions:
REMARK  status: ('A' for Active; 'I' for Inactive)
REMARK    1  A    between atoms: C2_2  and  C3_3
REMARK    2  A    between atoms: C2_2  and  C28_37
REMARK    3  A    between atoms: C4_4  and  C5_5
REMARK    4  A    between atoms: C6_6  and  O1_7
REMARK    5  A    between atoms: C8_10  and  O2_11
REMARK    6  A    between atoms: C14_18  and  O3_20
REMARK    7  A    between atoms: O3_20  and  C16_21
REMARK    8  A    between atoms: C16_21  and  C17_23
REMARK    9  A    between atoms: C18_24  and  C19_25
REMARK   10  A    between atoms: C19_25  and  C20_27
REMARK   11  A    between atoms: C20_27  and  C21_28
REMARK   12  A    between atoms: C21_28  and  C22_29
REMARK   13  A    between atoms: C22_29  and  C23_30
REMARK       I    between atoms: C23_30  and  N1_32
REMARK   14  A    between atoms: C28_37  and  C30_39
REMARK   15  A    between atoms: C30_39  and  O7_42
ROOT
HETATM    1  C5  UNL     1      20.681  34.049  15.806  1.00  0.00     0.042 C
HETATM    2  C6  UNL     1      22.093  33.617  15.955  1.00  0.00     0.128 C
HETATM    3  C7  UNL     1      22.455  32.217  15.574  1.00  0.00     0.065 C
HETATM    4  C8  UNL     1      21.476  31.583  14.571  1.00  0.00     0.132 C
HETATM    5  C9  UNL     1      20.191  31.618  15.235  1.00  0.00     0.018 C
HETATM    6  C10 UNL     1      20.342  30.991  16.630  1.00  0.00     0.021 C
HETATM    7  C11 UNL     1      19.713  33.049  15.341  1.00  0.00     0.009 C
HETATM    8  C12 UNL     1      18.500  32.801  16.193  1.00  0.00     0.009 C
HETATM    9  C13 UNL     1      17.886  31.604  15.485  1.00  0.00     0.039 C
HETATM   10  C14 UNL     1      18.988  30.970  14.660  1.00  0.00     0.077 C
HETATM   11  C15 UNL     1      18.726  31.217  13.222  1.00  0.00     0.047 C
ENDROOT
BRANCH  10  12
HETATM   12  O3  UNL     1      19.106  29.578  14.871  1.00  0.00    -0.306 OA
BRANCH  12  13
HETATM   13  C16 UNL     1      19.126  28.649  13.789  1.00  0.00     0.283 C
HETATM   14  O4  UNL     1      20.265  28.577  13.266  1.00  0.00    -0.260 OA
BRANCH  13  15
HETATM   15  C17 UNL     1      17.944  27.934  13.415  1.00  0.00     0.086 C
HETATM   16  C18 UNL     1      17.409  27.836  12.252  1.00  0.00     0.056 C
BRANCH  16  17
HETATM   17  C19 UNL     1      17.755  28.365  10.969  1.00  0.00     0.149 C
HETATM   18  O5  UNL     1      17.223  29.322  10.374  1.00  0.00    -0.293 OA
BRANCH  17  19
HETATM   19  C20 UNL     1      18.890  27.721  10.201  1.00  0.00     0.083 C
BRANCH  19  20
HETATM   20  C21 UNL     1      18.832  26.228  10.363  1.00  0.00     0.017 C
BRANCH  20  21
HETATM   21  C22 UNL     1      20.037  25.713  11.069  1.00  0.00     0.103 C
BRANCH  21  22
HETATM   22  C23 UNL     1      21.160  25.592  10.108  1.00  0.00     0.219 C
HETATM   23  O6  UNL     1      20.956  25.046   9.004  1.00  0.00    -0.273 OA
HETATM   24  N1  UNL     1      22.443  26.085  10.443  1.00  0.00    -0.352 N
HETATM   25  C24 UNL     1      23.671  26.043   9.668  1.00  0.00     0.126 C
HETATM   26  C27 UNL     1      22.816  26.779  11.680  1.00  0.00     0.126 C
HETATM   27  C25 UNL     1      24.378  27.364   9.929  1.00  0.00     0.021 C
HETATM   28  C26 UNL     1      23.627  27.947  11.110  1.00  0.00     0.021 C
ENDBRANCH  21  22
ENDBRANCH  20  21
ENDBRANCH  19  20
ENDBRANCH  17  19
ENDBRANCH  16  17
ENDBRANCH  13  15
ENDBRANCH  12  13
ENDBRANCH  10  12
BRANCH   4  29
HETATM   29  O2  UNL     1      21.640  32.300  13.406  1.00  0.00    -0.395 OA
ATOM     30  H2  UNL     1      21.623  33.212  13.672  1.00  0.00     0.210 HD
ENDBRANCH   4  29
BRANCH   1  31
HETATM   31  C4  UNL     1      20.285  34.810  17.012  1.00  0.00    -0.023 C
HETATM   32  C3  UNL     1      19.822  36.036  17.071  1.00  0.00    -0.025 C
BRANCH  32  33
HETATM   33  C2  UNL     1      19.438  36.740  18.312  1.00  0.00     0.010 C
HETATM   34  C1  UNL     1      19.912  35.805  19.452  1.00  0.00     0.015 C
BRANCH  33  35
HETATM   35  C28 UNL     1      18.010  37.019  18.538  1.00  0.00     0.022 C
HETATM   36  C29 UNL     1      17.145  35.762  18.531  1.00  0.00     0.014 C
BRANCH  35  37
HETATM   37  C30 UNL     1      17.386  38.112  17.721  1.00  0.00     0.054 C
HETATM   38  C31 UNL     1      18.323  39.308  17.575  1.00  0.00     0.045 C
HETATM   39  C32 UNL     1      16.178  38.708  18.486  1.00  0.00     0.045 C
BRANCH  37  40
HETATM   40  O7  UNL     1      17.015  37.692  16.481  1.00  0.00    -0.390 OA
ATOM     41  H7  UNL     1      16.699  38.402  15.935  1.00  0.00     0.210 HD
ENDBRANCH  37  40
ENDBRANCH  35  37
ENDBRANCH  33  35
ENDBRANCH  32  33
ENDBRANCH   1  31
BRANCH   2  42
HETATM   42  O1  UNL     1      22.590  33.782  17.263  1.00  0.00    -0.395 OA
ATOM     43  H1  UNL     1      23.538  33.843  17.300  1.00  0.00     0.210 HD
ENDBRANCH   2  42
TORSDOF 15
ENDMDL