MODEL 3
REMARK VINA RESULT: -8.581816972      2.171      3.819
REMARK  12 active torsions:
REMARK  status: ('A' for Active; 'I' for Inactive)
REMARK    1  A    between atoms: C2_2  and  C3_3
REMARK    2  A    between atoms: C3_3  and  N1_4
REMARK       I    between atoms: N1_4  and  C4_6
REMARK    3  A    between atoms: C4_6  and  C5_8
REMARK    4  A    between atoms: C5_8  and  C6_9
REMARK    5  A    between atoms: C5_8  and  N2_31
REMARK    6  A    between atoms: C6_9  and  S1_10
REMARK    7  A    between atoms: S1_10  and  S2_11
REMARK    8  A    between atoms: S2_11  and  C7_12
REMARK    9  A    between atoms: C7_12  and  C8_13
REMARK       I    between atoms: N2_31  and  C23_33
REMARK   10  A    between atoms: C23_33  and  C24_35
REMARK   11  A    between atoms: C24_35  and  C25_36
REMARK   12  A    between atoms: C25_36  and  C26_37
ROOT
HETATM    1  S2  UNL     1      16.934  29.158  10.880  1.00  0.00    -0.097 SA
ENDROOT
BRANCH   1   2
HETATM    2  S1  UNL     1      17.655  27.179  10.621  1.00  0.00    -0.095 SA
BRANCH   2   3
HETATM    3  C6  UNL     1      19.112  27.220   9.605  1.00  0.00     0.120 C
BRANCH   3   4
HETATM    4  C5  UNL     1      19.724  25.850   9.312  1.00  0.00     0.186 C
BRANCH   4   5
HETATM    5  C4  UNL     1      20.763  25.693  10.393  1.00  0.00     0.241 C
HETATM    6  N1  UNL     1      21.870  26.568  10.309  1.00  0.00    -0.359 N
ATOM      7  H1  UNL     1      21.915  27.248   9.550  1.00  0.00     0.162 HD
HETATM    8  O1  UNL     1      20.684  24.861  11.305  1.00  0.00    -0.271 OA
BRANCH   6   9
HETATM    9  C3  UNL     1      22.932  26.517  11.276  1.00  0.00     0.122 C
BRANCH   9  10
HETATM   10  C2  UNL     1      23.959  27.578  10.988  1.00  0.00     0.015 C
HETATM   11  C1  UNL     1      25.176  27.300  11.873  1.00  0.00     0.006 C
ENDBRANCH   9  10
ENDBRANCH   6   9
ENDBRANCH   4   5
BRANCH   4  12
HETATM   12  N2  UNL     1      20.391  25.838   8.054  1.00  0.00    -0.347 N
HETATM   13  C23 UNL     1      20.620  24.951   7.021  1.00  0.00     0.218 C
HETATM   14  O5  UNL     1      20.228  23.762   6.891  1.00  0.00    -0.274 OA
ATOM     15  H2  UNL     1      20.823  26.741   7.862  1.00  0.00     0.163 HD
BRANCH  13  16
HETATM   16  C24 UNL     1      21.466  25.457   5.855  1.00  0.00     0.113 C
BRANCH  16  17
HETATM   17  C25 UNL     1      22.843  24.897   5.870  1.00  0.00     0.122 C
BRANCH  17  18
HETATM   18  C26 UNL     1      23.508  25.012   7.186  1.00  0.00     0.172 C
HETATM   19  O6  UNL     1      23.724  26.082   7.793  1.00  0.00    -0.648 OA
HETATM   20  O7  UNL     1      23.943  23.841   7.839  1.00  0.00    -0.648 OA
ENDBRANCH  17  18
ENDBRANCH  16  17
ENDBRANCH  13  16
ENDBRANCH   4  12
ENDBRANCH   3   4
ENDBRANCH   2   3
ENDBRANCH   1   2
BRANCH   1  21
HETATM   21  C7  UNL     1      17.737  30.022  12.199  1.00  0.00     0.101 C
BRANCH  21  22
HETATM   22  C8  UNL     1      18.911  29.341  12.850  1.00  0.00     0.102 C
HETATM   23  C9  UNL     1      20.129  30.046  12.344  1.00  0.00     0.135 C
HETATM   24  O2  UNL     1      20.890  29.327  11.715  1.00  0.00    -0.297 OA
HETATM   25  C10 UNL     1      20.733  31.439  12.373  1.00  0.00     0.086 C
HETATM   26  C11 UNL     1      21.636  31.586  13.506  1.00  0.00     0.035 C
HETATM   27  C12 UNL     1      21.754  32.881  14.250  1.00  0.00    -0.003 C
HETATM   28  C15 UNL     1      21.241  30.779  14.755  1.00  0.00     0.104 C
HETATM   29  C13 UNL     1      22.988  32.460  15.090  1.00  0.00     0.009 C
HETATM   30  C21 UNL     1      20.656  32.925  15.326  1.00  0.00    -0.007 C
HETATM   31  C14 UNL     1      22.422  31.153  15.649  1.00  0.00     0.042 C
HETATM   32  C20 UNL     1      20.005  31.594  15.049  1.00  0.00     0.028 C
HETATM   33  C22 UNL     1      19.771  34.097  15.033  1.00  0.00     0.011 C
HETATM   34  C19 UNL     1      19.046  31.018  15.968  1.00  0.00     0.011 C
HETATM   35  C18 UNL     1      18.065  30.195  15.092  1.00  0.00     0.042 C
HETATM   36  C16 UNL     1      18.829  29.140  14.303  1.00  0.00     0.104 C
HETATM   37  O4  UNL     1      20.008  28.956  14.971  1.00  0.00    -0.228 OA
HETATM   38  C17 UNL     1      18.060  27.825  14.555  1.00  0.00     0.050 C
HETATM   39  O3  UNL     1      21.082  29.467  14.572  1.00  0.00    -0.228 OA
ENDBRANCH  21  22
ENDBRANCH   1  21
TORSDOF 12
ENDMDL