MODEL 5
REMARK VINA RESULT: -8.504212784      1.850      2.798
REMARK  12 active torsions:
REMARK  status: ('A' for Active; 'I' for Inactive)
REMARK    1  A    between atoms: C2_2  and  C3_3
REMARK    2  A    between atoms: C5_5  and  O1_6
REMARK    3  A    between atoms: C6_8  and  O2_9
REMARK    4  A    between atoms: O2_9  and  C7_10
REMARK    5  A    between atoms: C7_10  and  C8_12
REMARK    6  A    between atoms: C8_12  and  C9_13
REMARK    7  A    between atoms: C9_13  and  C10_14
REMARK    8  A    between atoms: C10_14  and  C11_15
REMARK    9  A    between atoms: C20_26  and  C21_27
REMARK   10  A    between atoms: C20_26  and  C25_31
REMARK   11  A    between atoms: C22_28  and  C23_29
REMARK   12  A    between atoms: C26_34  and  C27_35
ROOT
HETATM    1  C3  UNL     1      18.826  27.195  11.459  1.00  0.00     0.005 C
HETATM    2  C4  UNL     1      18.337  25.845  12.016  1.00  0.00     0.022 C
HETATM    3  C5  UNL     1      19.989  26.902  10.570  1.00  0.00     0.160 C
HETATM    4  C6  UNL     1      21.335  27.042  11.150  1.00  0.00     0.162 C
HETATM    5  C12 UNL     1      21.364  27.509  12.604  1.00  0.00     0.041 C
HETATM    6  C13 UNL     1      20.484  28.734  12.627  1.00  0.00     0.010 C
HETATM    7  C14 UNL     1      19.070  28.178  12.558  1.00  0.00     0.005 C
HETATM    8  C15 UNL     1      18.064  29.262  12.674  1.00  0.00     0.007 C
HETATM    9  C16 UNL     1      18.704  30.642  12.587  1.00  0.00     0.015 C
HETATM   10  C17 UNL     1      19.825  30.943  13.484  1.00  0.00    -0.004 C
HETATM   11  C18 UNL     1      20.746  31.721  12.506  1.00  0.00     0.021 C
HETATM   12  C19 UNL     1      19.735  31.688  14.715  1.00  0.00    -0.042 C
HETATM   13  C20 UNL     1      18.738  32.112  15.526  1.00  0.00     0.044 C
HETATM   14  C26 UNL     1      21.101  32.164  15.183  1.00  0.00     0.085 C
HETATM   15  C28 UNL     1      22.096  31.031  15.240  1.00  0.00     0.095 C
HETATM   16  C29 UNL     1      21.960  30.066  14.136  1.00  0.00     0.137 C
HETATM   17  O9  UNL     1      23.003  29.740  13.637  1.00  0.00    -0.297 OA
HETATM   18  C30 UNL     1      20.608  29.622  13.773  1.00  0.00     0.032 C
HETATM   19  C31 UNL     1      20.101  28.941  15.012  1.00  0.00     0.025 C
ENDROOT
BRANCH   4  20
HETATM   20  O2  UNL     1      22.191  25.949  10.931  1.00  0.00    -0.313 OA
BRANCH  20  21
HETATM   21  C7  UNL     1      23.544  26.057  10.616  1.00  0.00     0.259 C
HETATM   22  O3  UNL     1      24.308  25.689  11.505  1.00  0.00    -0.265 OA
BRANCH  21  23
HETATM   23  C8  UNL     1      23.889  26.575   9.314  1.00  0.00     0.111 C
BRANCH  23  24
HETATM   24  C9  UNL     1      23.951  25.696   8.140  1.00  0.00     0.020 C
BRANCH  24  25
HETATM   25  C10 UNL     1      22.863  24.704   7.970  1.00  0.00     0.113 C
BRANCH  25  26
HETATM   26  C11 UNL     1      21.741  25.000   7.096  1.00  0.00     0.172 C
HETATM   27  O4  UNL     1      21.911  25.682   6.024  1.00  0.00    -0.648 OA
HETATM   28  O5  UNL     1      20.469  24.531   7.445  1.00  0.00    -0.648 OA
ENDBRANCH  25  26
ENDBRANCH  24  25
ENDBRANCH  23  24
ENDBRANCH  21  23
ENDBRANCH  20  21
ENDBRANCH   4  20
BRANCH   3  29
HETATM   29  O1  UNL     1      19.872  25.565  10.104  1.00  0.00    -0.392 OA
ATOM     30  H1  UNL     1      20.703  25.125  10.240  1.00  0.00     0.210 HD
ENDBRANCH   3  29
BRANCH   1  31
HETATM   31  C2  UNL     1      17.716  27.601  10.541  1.00  0.00    -0.025 C
HETATM   32  C1  UNL     1      17.240  26.922   9.541  1.00  0.00     0.008 C
ENDBRANCH   1  31
BRANCH  13  33
HETATM   33  C21 UNL     1      19.058  32.878  16.796  1.00  0.00     0.014 C
HETATM   34  C22 UNL     1      18.471  34.137  17.128  1.00  0.00    -0.026 C
BRANCH  34  35
HETATM   35  C23 UNL     1      17.035  34.419  17.294  1.00  0.00     0.022 C
HETATM   36  C24 UNL     1      16.683  35.561  16.297  1.00  0.00     0.009 C
ENDBRANCH  34  35
ENDBRANCH  13  33
BRANCH  13  37
HETATM   37  C25 UNL     1      17.319  32.003  15.360  1.00  0.00     0.209 C
HETATM   38  O6  UNL     1      16.472  32.463  14.616  1.00  0.00    -0.644 OA
HETATM   39  O7  UNL     1      16.650  31.107  16.295  1.00  0.00    -0.644 OA
ENDBRANCH  13  37
BRANCH  14  40
HETATM   40  C27 UNL     1      21.685  33.308  14.449  1.00  0.00     0.240 C
HETATM   41  O8  UNL     1      22.789  33.515  14.074  1.00  0.00    -0.306 OA
ENDBRANCH  14  40
TORSDOF 12
ENDMDL