MODEL 3
REMARK VINA RESULT: -8.617356875      1.149      2.024
REMARK  13 active torsions:
REMARK  status: ('A' for Active; 'I' for Inactive)
REMARK    1  A    between atoms: C2_2  and  C3_3
REMARK    2  A    between atoms: C3_3  and  C4_4
REMARK    3  A    between atoms: C4_4  and  C5_5
REMARK    4  A    between atoms: C5_5  and  N1_6
REMARK    5  A    between atoms: N1_6  and  C6_8
REMARK    6  A    between atoms: C7_11  and  N3_12
REMARK    7  A    between atoms: N4_15  and  C10_16
REMARK    8  A    between atoms: C10_16  and  C11_17
REMARK    9  A    between atoms: C11_17  and  O1_18
REMARK   10  A    between atoms: C17_26  and  N6_27
REMARK   11  A    between atoms: N6_27  and  C18_29
REMARK   12  A    between atoms: C23_36  and  C24_37
REMARK   13  A    between atoms: C30_45  and  O2_46
ROOT
HETATM    1  C6  UNL     1      21.191  30.870  14.452  1.00  0.00     0.153 C
HETATM    2  N2  UNL     1      20.155  31.590  14.928  1.00  0.00    -0.174 N
ATOM      3  H2  UNL     1      20.417  32.455  15.401  1.00  0.00     0.186 HD
HETATM    4  C7  UNL     1      18.824  31.354  14.880  1.00  0.00     0.682 C
HETATM    5  N5  UNL     1      18.173  30.298  14.332  1.00  0.00    -0.189 N
ATOM      6  H5  UNL     1      17.173  30.255  14.528  1.00  0.00     0.184 HD
HETATM    7  C15 UNL     1      18.654  29.293  13.562  1.00  0.00     0.082 A
HETATM    8  C16 UNL     1      17.945  28.253  13.009  1.00  0.00     0.081 A
HETATM    9  C17 UNL     1      18.830  27.454  12.298  1.00  0.00     0.108 A
HETATM   10  N8  UNL     1      20.060  27.977  12.402  1.00  0.00    -0.338 N
ATOM     11  H8  UNL     1      20.895  27.579  11.971  1.00  0.00     0.167 HD
HETATM   12  C29 UNL     1      20.048  29.089  13.148  1.00  0.00     0.099 A
HETATM   13  C30 UNL     1      21.134  29.886  13.466  1.00  0.00     0.141 C
ENDROOT
BRANCH   9  14
HETATM   14  N6  UNL     1      18.487  26.398  11.662  1.00  0.00    -0.342 N
ATOM     15  H6  UNL     1      18.083  25.615  12.177  1.00  0.00     0.167 HD
BRANCH  14  16
HETATM   16  C18 UNL     1      18.657  26.289  10.242  1.00  0.00     0.040 A
HETATM   17  C19 UNL     1      17.641  26.706   9.440  1.00  0.00     0.032 A
HETATM   18  C20 UNL     1      17.807  26.601   8.077  1.00  0.00     0.033 A
HETATM   19  C21 UNL     1      18.983  26.086   7.549  1.00  0.00     0.043 A
HETATM   20  N7  UNL     1      19.375  25.891   6.277  1.00  0.00    -0.365 N
HETATM   21  C26 UNL     1      20.017  25.663   8.404  1.00  0.00     0.006 A
HETATM   22  C22 UNL     1      20.597  25.369   6.284  1.00  0.00     0.096 A
ATOM     23  H7  UNL     1      18.826  26.108   5.445  1.00  0.00     0.165 HD
HETATM   24  C23 UNL     1      21.040  25.209   7.607  1.00  0.00    -0.030 A
HETATM   25  C27 UNL     1      19.867  25.760   9.770  1.00  0.00    -0.022 A
HETATM   26  C28 UNL     1      20.922  25.333  10.689  1.00  0.00     0.051 C
BRANCH  24  27
HETATM   27  C24 UNL     1      22.332  24.654   8.034  1.00  0.00     0.036 C
HETATM   28  C25 UNL     1      23.543  25.347   7.492  1.00  0.00     0.010 C
ENDBRANCH  24  27
ENDBRANCH  14  16
ENDBRANCH   9  14
BRANCH  13  29
HETATM   29  O2  UNL     1      22.254  29.657  12.713  1.00  0.00    -0.350 OA
HETATM   30  C31 UNL     1      22.962  28.436  12.673  1.00  0.00     0.210 C
ENDBRANCH  13  29
BRANCH   4  31
HETATM   31  N3  UNL     1      18.017  32.352  15.489  1.00  0.00    -0.214 N
HETATM   32  C8  UNL     1      18.435  33.739  15.295  1.00  0.00     0.171 C
HETATM   33  C9  UNL     1      17.577  34.614  16.182  1.00  0.00     0.293 C
HETATM   34  N4  UNL     1      16.165  34.441  15.897  1.00  0.00     0.093 N
HETATM   35  C13 UNL     1      15.732  33.080  16.079  1.00  0.00     0.293 C
HETATM   36  C14 UNL     1      16.844  32.100  16.265  1.00  0.00     0.171 C
BRANCH  34  37
HETATM   37  C10 UNL     1      15.456  35.382  16.750  1.00  0.00     0.298 C
BRANCH  37  38
HETATM   38  C11 UNL     1      14.864  34.737  17.954  1.00  0.00     0.197 C
BRANCH  38  39
HETATM   39  O1  UNL     1      15.538  35.151  19.088  1.00  0.00    -0.394 OA
HETATM   40  C12 UNL     1      15.877  36.495  19.040  1.00  0.00     0.201 C
ENDBRANCH  38  39
ENDBRANCH  37  38
ENDBRANCH  34  37
ENDBRANCH   4  31
BRANCH   1  41
HETATM   41  N1  UNL     1      22.373  31.058  14.912  1.00  0.00    -0.373 N
ATOM     42  H1  UNL     1      22.866  30.239  15.268  1.00  0.00     0.161 HD
BRANCH  41  43
HETATM   43  C5  UNL     1      23.066  32.307  14.973  1.00  0.00     0.121 C
BRANCH  43  44
HETATM   44  C4  UNL     1      22.986  32.919  16.362  1.00  0.00     0.020 C
BRANCH  44  45
HETATM   45  C3  UNL     1      22.224  34.202  16.282  1.00  0.00     0.001 C
BRANCH  45  46
HETATM   46  C2  UNL     1      21.421  34.399  17.555  1.00  0.00    -0.004 C
HETATM   47  C1  UNL     1      21.844  35.652  18.279  1.00  0.00     0.005 C
ENDBRANCH  45  46
ENDBRANCH  44  45
ENDBRANCH  43  44
ENDBRANCH  41  43
ENDBRANCH   1  41
TORSDOF 13
ENDMDL