MODEL 4
REMARK VINA RESULT: -7.851628689      1.303      2.605
REMARK  13 active torsions:
REMARK  status: ('A' for Active; 'I' for Inactive)
REMARK    1  A    between atoms: C2_2  and  C3_3
REMARK    2  A    between atoms: C3_3  and  O1_4
REMARK    3  A    between atoms: O1_4  and  C4_5
REMARK    4  A    between atoms: C4_5  and  C5_6
REMARK    5  A    between atoms: C5_6  and  N1_7
REMARK    6  A    between atoms: C16_20  and  N2_21
REMARK       I    between atoms: N2_21  and  C17_23
REMARK    7  A    between atoms: C17_23  and  C18_25
REMARK    8  A    between atoms: C18_25  and  C19_26
REMARK    9  A    between atoms: C18_25  and  C24_31
REMARK   10  A    between atoms: C20_27  and  C22_29
REMARK   11  A    between atoms: C24_31  and  C25_32
REMARK   12  A    between atoms: C25_32  and  S1_33
REMARK   13  A    between atoms: S1_33  and  C26_34
ROOT
HETATM    1  N1  UNL     1      20.908  34.800  16.658  1.00  0.00    -0.350 N
HETATM    2  C6  UNL     1      19.681  35.394  17.129  1.00  0.00     0.135 C
HETATM    3  C7  UNL     1      19.284  34.955  18.517  1.00  0.00     0.131 C
HETATM    4  C8  UNL     1      18.247  35.912  19.035  1.00  0.00     0.260 C
HETATM    5  O2  UNL     1      18.709  36.992  19.490  1.00  0.00    -0.265 OA
HETATM    6  O3  UNL     1      16.926  35.556  18.978  1.00  0.00    -0.321 OA
HETATM    7  C9  UNL     1      16.099  35.345  17.886  1.00  0.00     0.178 C
HETATM    8  C10 UNL     1      15.424  33.965  17.917  1.00  0.00     0.027 C
HETATM    9  C11 UNL     1      14.843  33.695  16.577  1.00  0.00     0.002 C
HETATM   10  C12 UNL     1      15.482  32.573  15.803  1.00  0.00     0.000 C
HETATM   11  C13 UNL     1      16.945  32.412  16.107  1.00  0.00     0.000 C
HETATM   12  C14 UNL     1      17.716  31.642  15.072  1.00  0.00     0.002 C
HETATM   13  C15 UNL     1      18.837  32.493  14.558  1.00  0.00     0.026 C
HETATM   14  C16 UNL     1      20.205  32.071  14.964  1.00  0.00     0.093 C
HETATM   15  C27 UNL     1      20.405  32.272  16.440  1.00  0.00     0.128 C
HETATM   16  C28 UNL     1      21.271  33.443  16.736  1.00  0.00     0.221 C
HETATM   17  O5  UNL     1      22.470  33.169  17.098  1.00  0.00    -0.273 OA
ENDROOT
BRANCH  14  18
HETATM   18  N2  UNL     1      20.476  30.743  14.483  1.00  0.00    -0.355 N
HETATM   19  C17 UNL     1      21.151  30.509  13.229  1.00  0.00     0.225 C
HETATM   20  O4  UNL     1      21.489  31.549  12.621  1.00  0.00    -0.273 OA
ATOM     21  H2  UNL     1      20.181  29.944  15.044  1.00  0.00     0.162 HD
BRANCH  19  22
HETATM   22  C18 UNL     1      21.412  29.180  12.712  1.00  0.00     0.101 C
BRANCH  22  23
HETATM   23  C19 UNL     1      22.779  28.738  12.466  1.00  0.00    -0.010 C
HETATM   24  C20 UNL     1      23.342  27.686  11.984  1.00  0.00    -0.087 C
HETATM   25  C21 UNL     1      24.870  27.677  11.914  1.00  0.00     0.043 C
BRANCH  24  26
HETATM   26  C22 UNL     1      22.727  26.435  11.529  1.00  0.00     0.029 C
HETATM   27  C23 UNL     1      23.439  25.966  10.248  1.00  0.00     0.010 C
ENDBRANCH  24  26
ENDBRANCH  22  23
BRANCH  22  28
HETATM   28  C24 UNL     1      20.588  28.790  11.502  1.00  0.00     0.028 C
BRANCH  28  29
HETATM   29  C25 UNL     1      19.116  28.899  11.675  1.00  0.00     0.083 C
BRANCH  29  30
HETATM   30  S1  UNL     1      18.235  28.039  10.306  1.00  0.00    -0.098 SA
BRANCH  30  31
HETATM   31  C26 UNL     1      19.113  26.503  10.034  1.00  0.00     0.147 C
HETATM   32  N3  UNL     1      19.682  26.316   8.891  1.00  0.00    -0.382 N
ATOM     33  H32 UNL     1      19.608  27.050   8.187  1.00  0.00     0.157 HD
ATOM     34  H31 UNL     1      20.182  25.440   8.736  1.00  0.00     0.157 HD
HETATM   35  N4  UNL     1      19.215  25.485  11.010  1.00  0.00    -0.075 NA
ENDBRANCH  30  31
ENDBRANCH  29  30
ENDBRANCH  28  29
ENDBRANCH  22  28
ENDBRANCH  19  22
ENDBRANCH  14  18
BRANCH   1  36
HETATM   36  C5  UNL     1      21.863  35.737  16.036  1.00  0.00     0.152 C
BRANCH  36  37
HETATM   37  C4  UNL     1      21.820  37.074  16.696  1.00  0.00     0.187 C
BRANCH  37  38
HETATM   38  O1  UNL     1      22.674  37.080  17.824  1.00  0.00    -0.390 OA
BRANCH  38  39
HETATM   39  C3  UNL     1      22.063  37.815  18.844  1.00  0.00     0.167 C
BRANCH  39  40
HETATM   40  C2  UNL     1      22.625  37.398  20.171  1.00  0.00     0.022 C
HETATM   41  C1  UNL     1      22.335  35.909  20.355  1.00  0.00     0.007 C
ENDBRANCH  39  40
ENDBRANCH  38  39
ENDBRANCH  37  38
ENDBRANCH  36  37
ENDBRANCH   1  36
TORSDOF 13
ENDMDL