MODEL 5
REMARK VINA RESULT: -8.209405684      2.556      5.043
REMARK  14 active torsions:
REMARK  status: ('A' for Active; 'I' for Inactive)
REMARK    1  A    between atoms: C2_2  and  C3_3
REMARK    2  A    between atoms: C3_3  and  C4_4
REMARK    3  A    between atoms: C4_4  and  C5_5
REMARK    4  A    between atoms: C5_5  and  C6_6
REMARK    5  A    between atoms: C6_6  and  N1_7
REMARK    6  A    between atoms: C9_10  and  O1_11
REMARK       I    between atoms: N2_15  and  C11_17
REMARK    7  A    between atoms: C11_17  and  C12_19
REMARK       I    between atoms: N3_27  and  C20_28
REMARK    8  A    between atoms: C20_28  and  C21_30
REMARK    9  A    between atoms: C21_30  and  N4_31
REMARK   10  A    between atoms: C21_30  and  C22_35
REMARK   11  A    between atoms: C22_35  and  C23_36
REMARK   12  A    between atoms: C23_36  and  C24_37
REMARK   13  A    between atoms: C24_37  and  N5_38
REMARK       I    between atoms: N5_38  and  C25_40
REMARK   14  A    between atoms: C25_40  and  C26_42
ROOT
HETATM    1  C12 UNL     1      19.898  31.790  15.211  1.00  0.00     0.087 C
HETATM    2  C13 UNL     1      21.053  32.597  15.743  1.00  0.00     0.047 C
HETATM    3  C14 UNL     1      21.604  32.203  17.058  1.00  0.00     0.011 C
HETATM    4  C15 UNL     1      22.259  33.479  17.624  1.00  0.00     0.001 C
HETATM    5  C16 UNL     1      22.671  34.423  16.484  1.00  0.00     0.000 C
HETATM    6  C17 UNL     1      21.429  34.964  15.750  1.00  0.00     0.007 C
HETATM    7  C18 UNL     1      20.382  33.957  16.002  1.00  0.00     0.014 C
HETATM    8  C19 UNL     1      19.191  33.920  15.113  1.00  0.00     0.137 C
HETATM    9  N3  UNL     1      18.722  32.537  15.509  1.00  0.00    -0.314 N
HETATM   10  C20 UNL     1      17.462  32.308  16.036  1.00  0.00     0.255 C
HETATM   11  O3  UNL     1      17.108  31.181  16.435  1.00  0.00    -0.271 OA
ENDROOT
BRANCH   1  12
HETATM   12  C11 UNL     1      19.985  30.384  15.356  1.00  0.00     0.270 C
HETATM   13  N2  UNL     1      20.258  29.574  14.210  1.00  0.00    -0.302 N
HETATM   14  C10 UNL     1      19.346  29.441  13.262  1.00  0.00     0.156 A
ATOM     15  H2  UNL     1      21.156  29.098  14.123  1.00  0.00     0.171 HD
HETATM   16  N1  UNL     1      19.481  28.713  12.143  1.00  0.00    -0.328 N
HETATM   17  S1  UNL     1      17.793  30.109  13.130  1.00  0.00    -0.027 SA
HETATM   18  C7  UNL     1      18.469  28.697  11.298  1.00  0.00     0.050 A
HETATM   19  C8  UNL     1      18.429  27.946   9.962  1.00  0.00     0.072 C
HETATM   20  C9  UNL     1      17.357  29.430  11.635  1.00  0.00     0.133 A
HETATM   21  O2  UNL     1      19.849  29.750  16.411  1.00  0.00    -0.266 OA
BRANCH  16  22
HETATM   22  C6  UNL     1      20.740  27.938  11.910  1.00  0.00     0.131 C
BRANCH  22  23
HETATM   23  C5  UNL     1      21.851  28.793  11.419  1.00  0.00     0.020 C
BRANCH  23  24
HETATM   24  C4  UNL     1      23.236  28.326  11.686  1.00  0.00     0.002 C
BRANCH  24  25
HETATM   25  C3  UNL     1      23.988  28.224  10.344  1.00  0.00    -0.000 C
BRANCH  25  26
HETATM   26  C2  UNL     1      25.198  27.329  10.632  1.00  0.00    -0.005 C
HETATM   27  C1  UNL     1      25.292  27.104  12.126  1.00  0.00     0.005 C
ENDBRANCH  25  26
ENDBRANCH  24  25
ENDBRANCH  23  24
ENDBRANCH  22  23
ENDBRANCH  16  22
BRANCH  20  28
HETATM   28  O1  UNL     1      16.149  29.577  10.908  1.00  0.00    -0.352 OA
ATOM     29  H1  UNL     1      15.808  30.356  10.484  1.00  0.00     0.218 HD
ENDBRANCH  20  28
ENDBRANCH   1  12
BRANCH  10  30
HETATM   30  C21 UNL     1      16.425  33.409  16.163  1.00  0.00     0.275 C
BRANCH  30  31
HETATM   31  N4  UNL     1      16.694  34.457  15.166  1.00  0.00    -0.066 N
ATOM     32  H43 UNL     1      16.988  34.069  14.270  1.00  0.00     0.275 HD
ATOM     33  H42 UNL     1      15.841  34.918  14.853  1.00  0.00     0.275 HD
ATOM     34  H41 UNL     1      17.374  35.119  15.541  1.00  0.00     0.275 HD
ENDBRANCH  30  31
BRANCH  30  35
HETATM   35  C22 UNL     1      16.595  34.076  17.493  1.00  0.00     0.044 C
BRANCH  35  36
HETATM   36  C23 UNL     1      15.242  34.346  18.096  1.00  0.00     0.022 C
BRANCH  36  37
HETATM   37  C24 UNL     1      14.738  35.714  17.775  1.00  0.00     0.122 C
BRANCH  37  38
HETATM   38  N5  UNL     1      15.620  36.731  18.309  1.00  0.00    -0.360 N
HETATM   39  C25 UNL     1      16.486  37.488  17.498  1.00  0.00     0.225 C
HETATM   40  O4  UNL     1      16.583  37.362  16.254  1.00  0.00    -0.273 OA
ATOM     41  H5  UNL     1      15.614  36.905  19.314  1.00  0.00     0.162 HD
BRANCH  39  42
HETATM   42  C26 UNL     1      17.349  38.515  18.162  1.00  0.00     0.030 C
HETATM   43  C27 UNL     1      18.590  37.831  18.673  1.00  0.00     0.024 C
HETATM   44  C28 UNL     1      17.680  39.651  17.207  1.00  0.00     0.024 C
HETATM   45  C29 UNL     1      16.527  39.079  19.313  1.00  0.00     0.024 C
ENDBRANCH  39  42
ENDBRANCH  37  38
ENDBRANCH  36  37
ENDBRANCH  35  36
ENDBRANCH  30  35
ENDBRANCH  10  30
TORSDOF 14
ENDMDL