MODEL 5
REMARK VINA RESULT: -8.450723386      2.555     10.202
REMARK  15 active torsions:
REMARK  status: ('A' for Active; 'I' for Inactive)
REMARK    1  A    between atoms: C2_2  and  C3_3
REMARK    2  A    between atoms: C3_3  and  O1_5
REMARK    3  A    between atoms: C3_3  and  C15_17
REMARK    4  A    between atoms: O1_5  and  C5_6
REMARK    5  A    between atoms: C5_6  and  C6_8
REMARK    6  A    between atoms: C15_17  and  O3_18
REMARK    7  A    between atoms: C15_17  and  C16_20
REMARK    8  A    between atoms: C16_20  and  N1_21
REMARK    9  A    between atoms: N2_28  and  C23_29
REMARK   10  A    between atoms: C23_29  and  C24_30
REMARK   11  A    between atoms: C24_30  and  O4_31
REMARK   12  A    between atoms: C24_30  and  C25_33
REMARK   13  A    between atoms: C25_33  and  O5_34
REMARK   14  A    between atoms: C26_36  and  C27_37
REMARK   15  A    between atoms: C27_37  and  C28_38
ROOT
HETATM    1  N1  UNL     1      18.740  30.035  13.089  1.00  0.00    -0.347 N
HETATM    2  C17 UNL     1      19.985  29.976  13.822  1.00  0.00     0.130 C
HETATM    3  C18 UNL     1      21.284  30.148  13.149  1.00  0.00     0.005 C
HETATM    4  C19 UNL     1      22.317  30.551  14.151  1.00  0.00     0.012 C
HETATM    5  C20 UNL     1      21.784  28.901  12.342  1.00  0.00     0.015 C
HETATM    6  C21 UNL     1      22.759  29.450  11.288  1.00  0.00     0.012 C
HETATM    7  C22 UNL     1      20.594  28.392  11.803  1.00  0.00     0.278 C
HETATM    8  N2  UNL     1      19.879  27.570  10.998  1.00  0.00     0.105 N
HETATM    9  C26 UNL     1      18.482  27.999  11.216  1.00  0.00     0.314 C
HETATM   10  C31 UNL     1      18.298  29.258  11.972  1.00  0.00     0.253 C
HETATM   11  O6  UNL     1      17.378  29.903  11.395  1.00  0.00    -0.271 OA
ENDROOT
BRANCH   1  12
HETATM   12  C16 UNL     1      17.768  31.039  13.565  1.00  0.00     0.160 C
BRANCH  12  13
HETATM   13  C15 UNL     1      18.142  31.330  14.971  1.00  0.00     0.170 C
BRANCH  13  14
HETATM   14  C3  UNL     1      17.998  32.686  15.510  1.00  0.00     0.094 C
HETATM   15  C4  UNL     1      16.946  32.769  16.665  1.00  0.00     0.049 C
BRANCH  14  16
HETATM   16  C2  UNL     1      17.595  33.737  14.558  1.00  0.00     0.036 C
HETATM   17  C1  UNL     1      16.698  34.823  15.091  1.00  0.00     0.008 C
ENDBRANCH  14  16
BRANCH  14  18
HETATM   18  O1  UNL     1      19.196  33.018  16.212  1.00  0.00    -0.307 OA
BRANCH  18  19
HETATM   19  C5  UNL     1      20.181  33.820  15.740  1.00  0.00     0.263 C
HETATM   20  O2  UNL     1      20.876  33.447  14.769  1.00  0.00    -0.265 OA
BRANCH  19  21
HETATM   21  C6  UNL     1      20.455  35.175  16.379  1.00  0.00     0.086 C
HETATM   22  C7  UNL     1      19.500  35.436  17.498  1.00  0.00     0.015 C
HETATM   23  C8  UNL     1      19.988  36.593  18.304  1.00  0.00     0.005 C
HETATM   24  C9  UNL     1      20.967  36.219  19.375  1.00  0.00    -0.018 C
HETATM   25  C10 UNL     1      22.042  37.236  19.612  1.00  0.00     0.010 C
HETATM   26  C11 UNL     1      21.586  34.866  19.168  1.00  0.00     0.008 C
HETATM   27  C12 UNL     1      22.392  34.721  17.939  1.00  0.00    -0.017 C
HETATM   28  C13 UNL     1      22.689  33.227  17.759  1.00  0.00     0.010 C
HETATM   29  C14 UNL     1      21.881  35.364  16.717  1.00  0.00     0.018 C
ENDBRANCH  19  21
ENDBRANCH  18  19
ENDBRANCH  14  18
ENDBRANCH  13  14
BRANCH  13  30
HETATM   30  O3  UNL     1      17.446  30.385  15.778  1.00  0.00    -0.391 OA
ATOM     31  H3  UNL     1      17.806  29.512  15.666  1.00  0.00     0.210 HD
ENDBRANCH  13  30
ENDBRANCH  12  13
ENDBRANCH   1  12
BRANCH   9  32
HETATM   32  C27 UNL     1      17.706  27.978   9.941  1.00  0.00     0.049 C
BRANCH  32  33
HETATM   33  C28 UNL     1      18.106  27.023   8.891  1.00  0.00    -0.020 C
HETATM   34  C29 UNL     1      17.108  25.926   8.638  1.00  0.00     0.009 C
HETATM   35  C30 UNL     1      18.254  27.788   7.562  1.00  0.00     0.009 C
ENDBRANCH  32  33
ENDBRANCH   9  32
BRANCH   8  36
HETATM   36  C23 UNL     1      19.889  26.153  11.174  1.00  0.00     0.307 C
BRANCH  36  37
HETATM   37  C24 UNL     1      21.179  25.509  11.497  1.00  0.00     0.170 C
BRANCH  37  38
HETATM   38  O4  UNL     1      20.965  24.217  11.956  1.00  0.00    -0.392 OA
ATOM     39  H4  UNL     1      21.777  23.725  11.936  1.00  0.00     0.210 HD
ENDBRANCH  37  38
BRANCH  37  40
HETATM   40  C25 UNL     1      21.982  25.361  10.196  1.00  0.00     0.197 C
BRANCH  40  41
HETATM   41  O5  UNL     1      21.296  24.647   9.243  1.00  0.00    -0.398 OA
ATOM     42  H5  UNL     1      21.432  24.993   8.369  1.00  0.00     0.209 HD
ENDBRANCH  40  41
ENDBRANCH  37  40
ENDBRANCH  36  37
ENDBRANCH   8  36
TORSDOF 15
ENDMDL