MODEL 4
REMARK VINA RESULT: -7.839706861      2.740      3.752
REMARK  15 active torsions:
REMARK  status: ('A' for Active; 'I' for Inactive)
REMARK    1  A    between atoms: C2_2  and  C3_3
REMARK    2  A    between atoms: C4_4  and  O1_5
REMARK    3  A    between atoms: C8_10  and  O2_11
REMARK    4  A    between atoms: C13_17  and  C14_18
REMARK    5  A    between atoms: C15_19  and  C16_20
REMARK    6  A    between atoms: C16_20  and  O3_21
REMARK    7  A    between atoms: C16_20  and  C17_23
REMARK    8  A    between atoms: C20_26  and  C21_27
REMARK    9  A    between atoms: C21_27  and  O5_29
REMARK   10  A    between atoms: O5_29  and  C22_30
REMARK   11  A    between atoms: C22_30  and  C23_31
REMARK   12  A    between atoms: C23_31  and  C24_32
REMARK   13  A    between atoms: C24_32  and  N1_33
REMARK   14  A    between atoms: C28_38  and  C29_39
REMARK   15  A    between atoms: C29_39  and  S1_40
ROOT
HETATM    1  C16 UNL     1      20.741  28.801  14.176  1.00  0.00     0.147 C
ENDROOT
BRANCH   1   2
HETATM    2  C15 UNL     1      20.901  30.075  14.878  1.00  0.00     0.001 C
HETATM    3  C14 UNL     1      20.292  31.154  14.448  1.00  0.00    -0.022 C
BRANCH   3   4
HETATM    4  C13 UNL     1      20.436  32.472  15.139  1.00  0.00     0.023 C
HETATM    5  C3  UNL     1      21.601  32.520  16.047  1.00  0.00     0.022 C
HETATM    6  C4  UNL     1      21.737  33.860  16.706  1.00  0.00     0.123 C
HETATM    7  C5  UNL     1      20.566  34.758  16.359  1.00  0.00     0.037 C
HETATM    8  C6  UNL     1      19.317  33.947  16.742  1.00  0.00    -0.001 C
HETATM    9  C7  UNL     1      18.151  34.829  17.024  1.00  0.00     0.037 C
HETATM   10  C11 UNL     1      19.124  32.811  15.834  1.00  0.00    -0.033 C
HETATM   11  C8  UNL     1      16.917  34.547  16.257  1.00  0.00     0.118 C
HETATM   12  C9  UNL     1      17.279  34.237  14.846  1.00  0.00     0.032 C
HETATM   13  C10 UNL     1      18.138  33.040  14.715  1.00  0.00     0.012 C
HETATM   14  C12 UNL     1      18.727  31.579  16.655  1.00  0.00     0.016 C
BRANCH   5  15
HETATM   15  C2  UNL     1      22.904  32.134  15.349  1.00  0.00     0.003 C
HETATM   16  C1  UNL     1      23.839  33.311  15.262  1.00  0.00     0.005 C
ENDBRANCH   5  15
BRANCH   6  17
HETATM   17  O1  UNL     1      21.786  33.673  18.105  1.00  0.00    -0.395 OA
ATOM     18  H1  UNL     1      20.957  33.949  18.478  1.00  0.00     0.210 HD
ENDBRANCH   6  17
BRANCH  11  19
HETATM   19  O2  UNL     1      16.083  33.598  16.835  1.00  0.00    -0.396 OA
ATOM     20  H2  UNL     1      15.646  33.886  17.627  1.00  0.00     0.210 HD
ENDBRANCH  11  19
ENDBRANCH   3   4
ENDBRANCH   1   2
BRANCH   1  21
HETATM   21  O3  UNL     1      19.424  28.325  14.387  1.00  0.00    -0.391 OA
ATOM     22  H3  UNL     1      19.244  27.633  13.761  1.00  0.00     0.210 HD
ENDBRANCH   1  21
BRANCH   1  23
HETATM   23  C17 UNL     1      20.972  28.831  12.682  1.00  0.00     0.048 C
HETATM   24  C18 UNL     1      22.452  29.084  12.520  1.00  0.00     0.013 C
HETATM   25  C19 UNL     1      23.108  28.413  11.376  1.00  0.00     0.043 C
HETATM   26  C20 UNL     1      22.521  27.114  10.967  1.00  0.00     0.221 C
HETATM   27  O6  UNL     1      21.477  26.667  11.706  1.00  0.00    -0.369 OA
HETATM   28  C28 UNL     1      20.495  27.612  11.981  1.00  0.00     0.138 C
BRANCH  26  29
HETATM   29  C21 UNL     1      23.589  26.050  11.012  1.00  0.00     0.288 C
HETATM   30  O4  UNL     1      24.507  26.071  11.870  1.00  0.00    -0.262 OA
BRANCH  29  31
HETATM   31  O5  UNL     1      23.586  25.008  10.100  1.00  0.00    -0.319 OA
BRANCH  31  32
HETATM   32  C22 UNL     1      22.835  25.200   8.897  1.00  0.00     0.180 C
BRANCH  32  33
HETATM   33  C23 UNL     1      23.709  25.411   7.719  1.00  0.00     0.055 C
BRANCH  33  34
HETATM   34  C24 UNL     1      23.070  25.094   6.430  1.00  0.00     0.238 C
BRANCH  34  35
HETATM   35  N1  UNL     1      23.838  24.307   5.530  1.00  0.00    -0.079 N
HETATM   36  C25 UNL     1      25.212  24.204   5.973  1.00  0.00     0.271 C
HETATM   37  C26 UNL     1      23.824  25.079   4.246  1.00  0.00     0.271 C
HETATM   38  C27 UNL     1      23.228  23.039   5.217  1.00  0.00     0.271 C
ENDBRANCH  34  35
ENDBRANCH  33  34
ENDBRANCH  32  33
ENDBRANCH  31  32
ENDBRANCH  29  31
ENDBRANCH  26  29
BRANCH  28  39
HETATM   39  C29 UNL     1      19.546  27.817  10.845  1.00  0.00     0.105 C
BRANCH  39  40
HETATM   40  S1  UNL     1      17.830  28.035  11.222  1.00  0.00    -0.171 SA
HETATM   41  C30 UNL     1      17.370  29.627  11.891  1.00  0.00     0.089 C
ENDBRANCH  39  40
ENDBRANCH  28  39
ENDBRANCH   1  23
TORSDOF 15
ENDMDL