MODEL 1
REMARK VINA RESULT: -8.999358819      0.000      0.000
REMARK  13 active torsions:
REMARK  status: ('A' for Active; 'I' for Inactive)
REMARK    1  A    between atoms: O1_2  and  C2_3
REMARK    2  A    between atoms: C2_3  and  C3_4
REMARK    3  A    between atoms: C3_4  and  N1_5
REMARK    4  A    between atoms: N1_5  and  C4_7
REMARK    5  A    between atoms: C18_21  and  C19_22
REMARK    6  A    between atoms: C19_22  and  C21_24
REMARK    7  A    between atoms: C21_24  and  C22_25
REMARK    8  A    between atoms: C24_27  and  O2_28
REMARK    9  A    between atoms: C25_30  and  O3_31
REMARK   10  A    between atoms: C26_33  and  O4_34
REMARK   11  A    between atoms: O4_34  and  C27_35
REMARK   12  A    between atoms: C27_35  and  O5_36
REMARK   13  A    between atoms: C29_38  and  O6_39
ROOT
HETATM    1  C4  UNL     1      20.963  28.038  12.160  1.00  0.00     0.077 C
HETATM    2  C5  UNL     1      19.492  28.286  12.412  1.00  0.00     0.025 C
HETATM    3  C6  UNL     1      19.289  28.874  13.766  1.00  0.00     0.012 C
HETATM    4  C7  UNL     1      20.321  29.852  14.194  1.00  0.00    -0.036 C
HETATM    5  C8  UNL     1      21.222  29.158  15.228  1.00  0.00     0.016 C
HETATM    6  C9  UNL     1      21.218  30.353  13.118  1.00  0.00    -0.004 C
HETATM    7  C10 UNL     1      20.645  31.408  12.228  1.00  0.00     0.006 C
HETATM    8  C11 UNL     1      20.099  32.564  13.057  1.00  0.00     0.006 C
HETATM    9  C12 UNL     1      19.016  31.936  13.949  1.00  0.00    -0.005 C
HETATM   10  C13 UNL     1      19.739  31.053  14.914  1.00  0.00    -0.002 C
HETATM   11  C14 UNL     1      18.908  30.650  16.084  1.00  0.00     0.006 C
HETATM   12  C15 UNL     1      18.496  31.953  16.787  1.00  0.00     0.010 C
HETATM   13  C16 UNL     1      17.541  32.648  15.869  1.00  0.00    -0.036 C
HETATM   14  C17 UNL     1      16.189  31.943  15.781  1.00  0.00     0.016 C
HETATM   15  C18 UNL     1      17.442  34.146  16.022  1.00  0.00    -0.002 C
HETATM   16  C31 UNL     1      18.595  34.224  15.009  1.00  0.00     0.011 C
HETATM   17  C32 UNL     1      18.071  32.900  14.498  1.00  0.00    -0.001 C
HETATM   18  C33 UNL     1      21.808  29.255  12.260  1.00  0.00     0.030 C
ENDROOT
BRANCH  15  19
HETATM   19  C19 UNL     1      17.774  34.716  17.354  1.00  0.00    -0.013 C
HETATM   20  C20 UNL     1      16.564  34.792  18.251  1.00  0.00     0.010 C
BRANCH  19  21
HETATM   21  C21 UNL     1      18.333  36.123  17.102  1.00  0.00     0.012 C
BRANCH  21  22
HETATM   22  C22 UNL     1      19.594  36.363  17.913  1.00  0.00     0.020 C
HETATM   23  C23 UNL     1      19.347  35.827  19.291  1.00  0.00     0.041 C
HETATM   24  C24 UNL     1      20.572  35.651  20.118  1.00  0.00     0.150 C
HETATM   25  C25 UNL     1      21.811  35.344  19.332  1.00  0.00     0.178 C
HETATM   26  C26 UNL     1      21.399  34.619  18.077  1.00  0.00     0.184 C
HETATM   27  C29 UNL     1      20.715  35.662  17.185  1.00  0.00     0.156 C
BRANCH  24  28
HETATM   28  O2  UNL     1      20.345  34.543  20.966  1.00  0.00    -0.393 OA
ATOM     29  H2  UNL     1      20.240  33.781  20.408  1.00  0.00     0.210 HD
ENDBRANCH  24  28
BRANCH  25  30
HETATM   30  O3  UNL     1      22.473  36.527  19.074  1.00  0.00    -0.390 OA
ATOM     31  H3  UNL     1      22.655  36.575  18.143  1.00  0.00     0.210 HD
ENDBRANCH  25  30
BRANCH  26  32
HETATM   32  O4  UNL     1      22.545  34.234  17.412  1.00  0.00    -0.356 OA
BRANCH  32  33
HETATM   33  C27 UNL     1      22.447  32.998  16.797  1.00  0.00     0.337 C
BRANCH  33  34
HETATM   34  O5  UNL     1      22.473  33.204  15.419  1.00  0.00    -0.372 OA
HETATM   35  C28 UNL     1      23.606  32.602  14.876  1.00  0.00     0.204 C
ENDBRANCH  33  34
ENDBRANCH  32  33
ENDBRANCH  26  32
BRANCH  27  36
HETATM   36  O6  UNL     1      21.729  36.548  16.811  1.00  0.00    -0.388 OA
HETATM   37  C30 UNL     1      21.171  37.814  16.619  1.00  0.00     0.202 C
ENDBRANCH  27  36
ENDBRANCH  21  22
ENDBRANCH  19  21
ENDBRANCH  15  19
BRANCH   1  38
HETATM   38  N1  UNL     1      21.134  27.328  10.920  1.00  0.00    -0.415 N
ATOM     39  H1  UNL     1      20.848  27.722  10.024  1.00  0.00     0.153 HD
BRANCH  38  40
HETATM   40  C3  UNL     1      21.729  26.037  11.029  1.00  0.00     0.140 C
BRANCH  40  41
HETATM   41  C2  UNL     1      23.180  26.112  10.542  1.00  0.00     0.186 C
BRANCH  41  42
HETATM   42  O1  UNL     1      24.091  25.826  11.528  1.00  0.00    -0.394 OA
HETATM   43  C1  UNL     1      24.871  26.940  11.871  1.00  0.00     0.201 C
ENDBRANCH  41  42
ENDBRANCH  40  41
ENDBRANCH  38  40
ENDBRANCH   1  38
TORSDOF 13
ENDMDL