MODEL 3
REMARK VINA RESULT: -9.531387751      1.902      2.597
REMARK  16 active torsions:
REMARK  status: ('A' for Active; 'I' for Inactive)
REMARK    1  A    between atoms: C2_2  and  O1_3
REMARK    2  A    between atoms: O1_3  and  C3_4
REMARK       I    between atoms: C3_4  and  N1_6
REMARK    3  A    between atoms: N2_9  and  C6_10
REMARK    4  A    between atoms: C6_10  and  O3_11
REMARK    5  A    between atoms: C7_13  and  C8_14
REMARK    6  A    between atoms: C7_13  and  N3_22
REMARK    7  A    between atoms: C8_14  and  C9_15
REMARK    8  A    between atoms: C9_15  and  C10_16
REMARK       I    between atoms: N3_22  and  C16_24
REMARK    9  A    between atoms: C16_24  and  C17_26
REMARK   10  A    between atoms: C17_26  and  C18_27
REMARK   11  A    between atoms: C17_26  and  N5_36
REMARK   12  A    between atoms: C18_27  and  C19_28
REMARK   13  A    between atoms: C19_28  and  C20_29
REMARK   14  A    between atoms: C20_29  and  O5_30
REMARK   15  A    between atoms: N4_32  and  O6_34
REMARK   16  A    between atoms: N5_36  and  C22_38
ROOT
HETATM    1  C6  UNL     1      19.156  30.706  15.141  1.00  0.00     0.161 C
HETATM    2  C7  UNL     1      18.843  32.090  15.157  1.00  0.00     0.063 C
ENDROOT
BRANCH   2   3
HETATM    3  C8  UNL     1      17.601  32.582  14.490  1.00  0.00     0.062 C
BRANCH   3   4
HETATM    4  C9  UNL     1      16.409  32.370  15.391  1.00  0.00     0.011 C
BRANCH   4   5
HETATM    5  C10 UNL     1      15.852  33.599  16.015  1.00  0.00    -0.014 C
HETATM    6  C11 UNL     1      15.862  33.584  17.529  1.00  0.00     0.004 C
HETATM    7  C12 UNL     1      15.079  34.760  18.050  1.00  0.00     0.000 C
HETATM    8  C13 UNL     1      15.049  35.923  17.111  1.00  0.00     0.000 C
HETATM    9  C14 UNL     1      16.378  36.007  16.399  1.00  0.00     0.000 C
HETATM   10  C15 UNL     1      16.495  34.822  15.457  1.00  0.00     0.004 C
ENDBRANCH   4   5
ENDBRANCH   3   4
ENDBRANCH   2   3
BRANCH   2  11
HETATM   11  N3  UNL     1      19.854  33.087  15.383  1.00  0.00    -0.325 N
HETATM   12  C16 UNL     1      19.979  33.892  16.506  1.00  0.00     0.255 C
HETATM   13  O4  UNL     1      19.171  33.695  17.419  1.00  0.00    -0.271 OA
ATOM     14  H3  UNL     1      20.547  33.215  14.646  1.00  0.00     0.168 HD
BRANCH  12  15
HETATM   15  C17 UNL     1      20.997  34.953  16.694  1.00  0.00     0.314 C
BRANCH  15  16
HETATM   16  C18 UNL     1      22.238  34.318  17.199  1.00  0.00     0.054 C
BRANCH  16  17
HETATM   17  C19 UNL     1      23.283  34.072  16.186  1.00  0.00     0.088 C
BRANCH  17  18
HETATM   18  C20 UNL     1      22.909  32.875  15.332  1.00  0.00     0.135 C
HETATM   19  N4  UNL     1      22.869  31.689  15.764  1.00  0.00    -0.251 N
ATOM     20  H4  UNL     1      23.097  31.499  16.740  1.00  0.00     0.196 HD
BRANCH  18  21
HETATM   21  O5  UNL     1      22.604  33.157  14.008  1.00  0.00    -0.348 OA
ATOM     22  H5  UNL     1      21.725  33.481  13.850  1.00  0.00     0.219 HD
ENDBRANCH  18  21
BRANCH  19  23
HETATM   23  O6  UNL     1      22.522  30.658  14.938  1.00  0.00    -0.288 OA
ATOM     24  H6  UNL     1      21.910  29.991  15.226  1.00  0.00     0.244 HD
ENDBRANCH  19  23
ENDBRANCH  17  18
ENDBRANCH  16  17
ENDBRANCH  15  16
BRANCH  15  25
HETATM   25  N5  UNL     1      20.631  36.104  17.420  1.00  0.00     0.102 N
HETATM   26  C21 UNL     1      20.893  37.396  16.824  1.00  0.00     0.311 C
BRANCH  25  27
HETATM   27  C22 UNL     1      21.344  36.113  18.715  1.00  0.00     0.223 C
HETATM   28  C23 UNL     1      20.518  35.868  19.908  1.00  0.00     0.036 C
HETATM   29  C24 UNL     1      21.403  35.239  21.007  1.00  0.00     0.002 C
HETATM   30  C25 UNL     1      22.783  35.768  20.851  1.00  0.00     0.000 C
HETATM   31  C26 UNL     1      22.814  37.194  20.350  1.00  0.00     0.002 C
HETATM   32  C27 UNL     1      22.249  37.280  18.916  1.00  0.00     0.036 C
ENDBRANCH  25  27
ENDBRANCH  15  25
ENDBRANCH  12  15
ENDBRANCH   2  11
BRANCH   1  33
HETATM   33  N2  UNL     1      18.958  29.641  14.241  1.00  0.00    -0.357 N
HETATM   34  C5  UNL     1      17.945  28.660  14.394  1.00  0.00     0.145 C
HETATM   35  C4  UNL     1      17.660  27.747  13.260  1.00  0.00     0.148 C
HETATM   36  N1  UNL     1      18.307  28.010  12.032  1.00  0.00    -0.325 N
HETATM   37  C3  UNL     1      18.337  26.993  11.034  1.00  0.00     0.362 C
HETATM   38  C29 UNL     1      18.937  29.300  11.825  1.00  0.00     0.148 C
HETATM   39  O2  UNL     1      17.791  25.878  11.276  1.00  0.00    -0.238 OA
HETATM   40  C28 UNL     1      19.838  29.535  13.050  1.00  0.00     0.145 C
BRANCH  37  41
HETATM   41  O1  UNL     1      18.930  27.129   9.794  1.00  0.00    -0.304 OA
BRANCH  41  42
HETATM   42  C2  UNL     1      18.235  27.602   8.646  1.00  0.00     0.176 C
HETATM   43  C1  UNL     1      17.820  26.450   7.789  1.00  0.00     0.034 C
ENDBRANCH  41  42
ENDBRANCH  37  41
ENDBRANCH   1  33
BRANCH   1  44
HETATM   44  O3  UNL     1      19.800  30.274  16.227  1.00  0.00    -0.345 OA
ATOM     45  H3  UNL     1      19.511  30.757  16.993  1.00  0.00     0.219 HD
ENDBRANCH   1  44
TORSDOF 16
ENDMDL