MODEL 5
REMARK VINA RESULT: -6.759755948      2.857      9.694
REMARK  18 active torsions:
REMARK  status: ('A' for Active; 'I' for Inactive)
REMARK    1  A    between atoms: C3_3  and  C4_4
REMARK    2  A    between atoms: C4_4  and  C5_5
REMARK    3  A    between atoms: C5_5  and  C6_6
REMARK    4  A    between atoms: C6_6  and  C7_7
REMARK    5  A    between atoms: C7_7  and  C8_8
REMARK    6  A    between atoms: C8_8  and  C9_9
REMARK    7  A    between atoms: C9_9  and  C10_10
REMARK    8  A    between atoms: C10_10  and  C11_11
REMARK    9  A    between atoms: C11_11  and  C12_12
REMARK   10  A    between atoms: C12_12  and  C13_13
REMARK   11  A    between atoms: C13_13  and  C14_14
REMARK   12  A    between atoms: C14_14  and  C15_15
REMARK   13  A    between atoms: C15_15  and  O2_17
REMARK   14  A    between atoms: O2_17  and  C16_18
REMARK   15  A    between atoms: C16_18  and  C17_19
REMARK   16  A    between atoms: C16_18  and  C20_24
REMARK   17  A    between atoms: C17_19  and  N1_20
REMARK       I    between atoms: N1_20  and  C18_21
REMARK       I    between atoms: C20_24  and  N2_26
REMARK   18  A    between atoms: C26_32  and  N3_33
ROOT
HETATM    1  C1  UNL     1      18.553  35.389  19.190  1.00  0.00     0.012 C
HETATM    2  C2  UNL     1      19.062  36.275  18.580  1.00  0.00    -0.117 C
HETATM    3  C3  UNL     1      19.695  37.344  17.806  1.00  0.00     0.097 C
ENDROOT
BRANCH   3   4
HETATM    4  C4  UNL     1      20.993  36.877  17.201  1.00  0.00     0.039 C
BRANCH   4   5
HETATM    5  C5  UNL     1      22.022  36.408  18.131  1.00  0.00    -0.030 C
BRANCH   5   6
HETATM    6  C6  UNL     1      22.328  35.001  18.347  1.00  0.00    -0.031 C
BRANCH   6   7
HETATM    7  C7  UNL     1      21.607  33.905  17.690  1.00  0.00     0.027 C
BRANCH   7   8
HETATM    8  C8  UNL     1      22.408  32.676  17.442  1.00  0.00     0.004 C
BRANCH   8   9
HETATM    9  C9  UNL     1      23.153  32.629  16.143  1.00  0.00     0.000 C
BRANCH   9  10
HETATM   10  C10 UNL     1      22.476  33.338  14.999  1.00  0.00     0.000 C
BRANCH  10  11
HETATM   11  C11 UNL     1      22.163  32.417  13.864  1.00  0.00     0.000 C
BRANCH  11  12
HETATM   12  C12 UNL     1      22.138  30.964  14.137  1.00  0.00     0.000 C
BRANCH  12  13
HETATM   13  C13 UNL     1      21.920  30.073  12.943  1.00  0.00     0.010 C
BRANCH  13  14
HETATM   14  C14 UNL     1      21.611  28.648  13.287  1.00  0.00     0.111 C
BRANCH  14  15
HETATM   15  C15 UNL     1      21.133  27.812  12.187  1.00  0.00     0.259 C
HETATM   16  O1  UNL     1      21.489  26.627  12.075  1.00  0.00    -0.265 OA
BRANCH  15  17
HETATM   17  O2  UNL     1      20.254  28.275  11.203  1.00  0.00    -0.304 OA
BRANCH  17  18
HETATM   18  C16 UNL     1      18.812  28.003  11.346  1.00  0.00     0.254 C
BRANCH  18  19
HETATM   19  C17 UNL     1      18.655  26.529  10.859  1.00  0.00     0.264 C
BRANCH  19  20
HETATM   20  N1  UNL     1      18.249  26.477   9.579  1.00  0.00    -0.413 NA
HETATM   21  C18 UNL     1      17.822  26.401   8.284  1.00  0.00     0.282 C
HETATM   22  C19 UNL     1      18.295  27.491   7.311  1.00  0.00     0.134 C
HETATM   23  O3  UNL     1      17.084  25.553   7.756  1.00  0.00    -0.258 OA
ENDBRANCH  19  20
ENDBRANCH  18  19
BRANCH  18  24
HETATM   24  C20 UNL     1      18.402  28.238  12.698  1.00  0.00     0.252 C
HETATM   25  O4  UNL     1      18.243  27.187  13.445  1.00  0.00    -0.270 OA
HETATM   26  N2  UNL     1      18.149  29.473  13.316  1.00  0.00    -0.350 N
HETATM   27  C21 UNL     1      18.261  30.762  12.707  1.00  0.00     0.126 C
HETATM   28  C30 UNL     1      17.702  29.441  14.731  1.00  0.00     0.126 C
HETATM   29  C22 UNL     1      18.646  31.906  13.568  1.00  0.00     0.030 C
HETATM   30  C23 UNL     1      18.202  31.790  14.997  1.00  0.00    -0.031 C
HETATM   31  C24 UNL     1      18.991  32.774  15.824  1.00  0.00     0.012 C
HETATM   32  C28 UNL     1      16.725  31.966  15.196  1.00  0.00     0.090 C
HETATM   33  C29 UNL     1      18.601  30.380  15.493  1.00  0.00     0.030 C
HETATM   34  C25 UNL     1      18.665  34.184  15.399  1.00  0.00     0.041 C
HETATM   35  C26 UNL     1      17.238  34.473  15.799  1.00  0.00     0.252 C
HETATM   36  C27 UNL     1      16.334  33.326  15.654  1.00  0.00     0.158 C
HETATM   37  O5  UNL     1      15.152  33.499  15.936  1.00  0.00    -0.296 OA
BRANCH  35  38
HETATM   38  N3  UNL     1      16.715  35.605  15.029  1.00  0.00    -0.068 N
ATOM     39  H33 UNL     1      17.093  35.629  14.082  1.00  0.00     0.275 HD
ATOM     40  H32 UNL     1      15.729  35.483  14.795  1.00  0.00     0.275 HD
ATOM     41  H31 UNL     1      16.882  36.479  15.528  1.00  0.00     0.275 HD
ENDBRANCH  35  38
ENDBRANCH  18  24
ENDBRANCH  17  18
ENDBRANCH  15  17
ENDBRANCH  14  15
ENDBRANCH  13  14
ENDBRANCH  12  13
ENDBRANCH  11  12
ENDBRANCH  10  11
ENDBRANCH   9  10
ENDBRANCH   8   9
ENDBRANCH   7   8
ENDBRANCH   6   7
ENDBRANCH   5   6
ENDBRANCH   4   5
ENDBRANCH   3   4
TORSDOF 18
ENDMDL