MODEL 2
REMARK VINA RESULT: -7.487263715      2.980     10.391
REMARK  16 active torsions:
REMARK  status: ('A' for Active; 'I' for Inactive)
REMARK    1  A    between atoms: C2_2  and  C3_3
REMARK    2  A    between atoms: C3_3  and  C4_4
REMARK    3  A    between atoms: C4_4  and  C5_5
REMARK    4  A    between atoms: C5_5  and  C6_6
REMARK    5  A    between atoms: C6_6  and  C7_7
REMARK    6  A    between atoms: C7_7  and  N1_8
REMARK       I    between atoms: N1_8  and  C8_10
REMARK       I    between atoms: C8_10  and  N2_12
REMARK    7  A    between atoms: N3_15  and  C11_16
REMARK    8  A    between atoms: C11_16  and  C12_17
REMARK    9  A    between atoms: C12_17  and  N4_18
REMARK   10  A    between atoms: N4_18  and  C13_19
REMARK   11  A    between atoms: N4_18  and  C18_25
REMARK   12  A    between atoms: C13_19  and  C14_20
REMARK   13  A    between atoms: C14_20  and  N5_21
REMARK   14  A    between atoms: N5_21  and  C16_23
REMARK   15  A    between atoms: C18_25  and  C19_26
REMARK   16  A    between atoms: N6_31  and  C23_33
ROOT
HETATM    1  C12 UNL     1      18.342  30.986  14.980  1.00  0.00     0.078 C
ENDROOT
BRANCH   1   2
HETATM    2  C11 UNL     1      18.583  31.355  13.547  1.00  0.00     0.169 C
BRANCH   2   3
HETATM    3  N3  UNL     1      18.660  30.227  12.660  1.00  0.00    -0.352 N
HETATM    4  C10 UNL     1      17.414  29.630  12.128  1.00  0.00     0.146 C
HETATM    5  C9  UNL     1      17.884  28.682  11.055  1.00  0.00     0.156 C
HETATM    6  N2  UNL     1      19.220  28.286  11.500  1.00  0.00    -0.275 N
HETATM    7  C8  UNL     1      19.767  27.028  11.269  1.00  0.00     0.324 C
HETATM    8  C25 UNL     1      19.713  29.451  12.160  1.00  0.00     0.180 C
HETATM    9  N1  UNL     1      21.048  26.561  11.677  1.00  0.00    -0.343 N
HETATM   10  O1  UNL     1      19.077  26.168  10.621  1.00  0.00    -0.247 OA
ATOM     11  H1  UNL     1      21.660  27.190  12.197  1.00  0.00     0.164 HD
HETATM   12  S2  UNL     1      21.301  29.776  12.296  1.00  0.00    -0.040 SA
BRANCH   9  13
HETATM   13  C7  UNL     1      21.511  25.216  11.375  1.00  0.00     0.124 C
BRANCH  13  14
HETATM   14  C6  UNL     1      21.962  25.172   9.946  1.00  0.00     0.020 C
BRANCH  14  15
HETATM   15  C5  UNL     1      23.415  24.861   9.801  1.00  0.00     0.002 C
BRANCH  15  16
HETATM   16  C4  UNL     1      24.194  25.851   8.990  1.00  0.00     0.000 C
BRANCH  16  17
HETATM   17  C3  UNL     1      24.529  27.104   9.749  1.00  0.00    -0.000 C
BRANCH  17  18
HETATM   18  C2  UNL     1      25.245  26.812  11.044  1.00  0.00    -0.005 C
HETATM   19  C1  UNL     1      24.578  27.545  12.206  1.00  0.00     0.005 C
ENDBRANCH  17  18
ENDBRANCH  16  17
ENDBRANCH  15  16
ENDBRANCH  14  15
ENDBRANCH  13  14
ENDBRANCH   9  13
ENDBRANCH   2   3
ENDBRANCH   1   2
BRANCH   1  20
HETATM   20  N4  UNL     1      18.304  32.089  15.839  1.00  0.00    -0.388 N
BRANCH  20  21
HETATM   21  C13 UNL     1      19.515  32.665  16.296  1.00  0.00     0.141 C
BRANCH  21  22
HETATM   22  C14 UNL     1      20.580  31.605  16.597  1.00  0.00     0.141 C
BRANCH  22  23
HETATM   23  N5  UNL     1      21.867  32.145  16.438  1.00  0.00    -0.396 N
HETATM   24  C15 UNL     1      22.357  33.074  17.372  1.00  0.00     0.148 C
BRANCH  23  25
HETATM   25  C16 UNL     1      22.594  31.880  15.265  1.00  0.00     0.053 C
HETATM   26  C17 UNL     1      22.712  33.047  14.317  1.00  0.00     0.054 C
ENDBRANCH  23  25
ENDBRANCH  22  23
ENDBRANCH  21  22
ENDBRANCH  20  21
BRANCH  20  27
HETATM   27  C18 UNL     1      17.326  33.079  15.550  1.00  0.00     0.147 C
BRANCH  27  28
HETATM   28  C19 UNL     1      16.839  33.974  16.643  1.00  0.00     0.102 C
HETATM   29  C20 UNL     1      15.505  33.616  17.136  1.00  0.00     0.037 C
HETATM   30  C21 UNL     1      14.733  34.658  17.905  1.00  0.00     0.084 C
HETATM   31  S1  UNL     1      15.797  36.068  18.412  1.00  0.00    -0.094 SA
HETATM   32  C22 UNL     1      16.706  36.415  16.920  1.00  0.00     0.136 C
HETATM   33  N6  UNL     1      17.082  37.599  16.667  1.00  0.00    -0.371 N
HETATM   34  N7  UNL     1      16.954  35.333  16.076  1.00  0.00    -0.365 N
ATOM     35  H6  UNL     1      17.604  37.799  15.814  1.00  0.00     0.161 HD
ATOM     36  H7  UNL     1      17.207  35.475  15.097  1.00  0.00     0.162 HD
BRANCH  33  37
HETATM   37  C23 UNL     1      16.768  38.674  17.600  1.00  0.00     0.117 C
HETATM   38  C24 UNL     1      17.336  39.946  17.008  1.00  0.00     0.026 C
ENDBRANCH  33  37
ENDBRANCH  27  28
ENDBRANCH  20  27
ENDBRANCH   1  20
TORSDOF 16
ENDMDL