MODEL 5
REMARK VINA RESULT: -7.556856730      3.158      7.016
REMARK  16 active torsions:
REMARK  status: ('A' for Active; 'I' for Inactive)
REMARK    1  A    between atoms: N1_8  and  C8_9
REMARK    2  A    between atoms: C8_9  and  C9_10
REMARK    3  A    between atoms: C9_10  and  O1_11
REMARK    4  A    between atoms: O1_11  and  C10_12
REMARK    5  A    between atoms: C10_12  and  C11_13
REMARK    6  A    between atoms: C11_13  and  C12_14
REMARK    7  A    between atoms: C12_14  and  C13_15
REMARK    8  A    between atoms: C13_15  and  C14_16
REMARK    9  A    between atoms: C14_16  and  C15_17
REMARK   10  A    between atoms: C15_17  and  N2_18
REMARK   11  A    between atoms: N2_18  and  C16_19
REMARK       I    between atoms: N2_18  and  C23_29
REMARK   12  A    between atoms: C16_19  and  C17_20
REMARK   13  A    between atoms: C17_20  and  C18_21
REMARK       I    between atoms: C18_21  and  N3_23
REMARK       I    between atoms: C23_29  and  N4_31
REMARK   14  A    between atoms: N4_31  and  C24_33
REMARK   15  A    between atoms: C24_33  and  C25_34
REMARK   16  A    between atoms: C25_34  and  C26_35
ROOT
HETATM    1  N2  UNL     1      20.244  26.017  10.895  1.00  0.00    -0.334 N
HETATM    2  C23 UNL     1      21.249  25.345  10.157  1.00  0.00     0.318 C
HETATM    3  O3  UNL     1      21.143  24.082   9.952  1.00  0.00    -0.247 OA
HETATM    4  N4  UNL     1      22.363  26.047   9.643  1.00  0.00    -0.342 N
ATOM      5  H4  UNL     1      22.419  27.051   9.813  1.00  0.00     0.164 HD
ENDROOT
BRANCH   1   6
HETATM    6  C15 UNL     1      20.359  27.416  11.165  1.00  0.00     0.127 C
BRANCH   6   7
HETATM    7  C14 UNL     1      21.228  27.739  12.371  1.00  0.00     0.020 C
BRANCH   7   8
HETATM    8  C13 UNL     1      21.633  29.183  12.222  1.00  0.00     0.002 C
BRANCH   8   9
HETATM    9  C12 UNL     1      22.584  29.652  13.289  1.00  0.00     0.002 C
BRANCH   9  10
HETATM   10  C11 UNL     1      21.921  30.528  14.323  1.00  0.00     0.026 C
BRANCH  10  11
HETATM   11  C10 UNL     1      22.001  31.978  14.007  1.00  0.00     0.167 C
BRANCH  11  12
HETATM   12  O1  UNL     1      21.425  32.804  14.844  1.00  0.00    -0.389 OA
BRANCH  12  13
HETATM   13  C9  UNL     1      21.052  32.687  16.094  1.00  0.00     0.198 C
BRANCH  13  14
HETATM   14  C8  UNL     1      19.686  32.327  16.524  1.00  0.00     0.299 C
BRANCH  14  15
HETATM   15  N1  UNL     1      18.704  32.600  15.525  1.00  0.00     0.100 N
HETATM   16  C5  UNL     1      18.050  31.578  14.824  1.00  0.00     0.162 C
HETATM   17  C4  UNL     1      18.368  31.638  13.325  1.00  0.00     0.042 C
HETATM   18  C6  UNL     1      16.684  32.214  15.092  1.00  0.00     0.072 C
HETATM   19  C27 UNL     1      18.148  30.157  15.227  1.00  0.00     0.046 C
HETATM   20  C3  UNL     1      17.932  30.247  12.866  1.00  0.00     0.007 C
HETATM   21  C2  UNL     1      18.449  29.388  13.971  1.00  0.00    -0.016 C
HETATM   22  C1  UNL     1      17.821  27.999  13.970  1.00  0.00     0.010 C
HETATM   23  C7  UNL     1      17.454  33.036  16.094  1.00  0.00     0.276 C
ENDBRANCH  14  15
ENDBRANCH  13  14
ENDBRANCH  12  13
ENDBRANCH  11  12
ENDBRANCH  10  11
ENDBRANCH   9  10
ENDBRANCH   8   9
ENDBRANCH   7   8
ENDBRANCH   6   7
ENDBRANCH   1   6
BRANCH   1  24
HETATM   24  C16 UNL     1      19.104  25.250  11.364  1.00  0.00     0.136 C
BRANCH  24  25
HETATM   25  C17 UNL     1      17.997  25.412  10.345  1.00  0.00     0.123 C
BRANCH  25  26
HETATM   26  C18 UNL     1      17.832  24.171   9.528  1.00  0.00     0.221 C
HETATM   27  O2  UNL     1      17.574  23.083  10.118  1.00  0.00    -0.273 OA
HETATM   28  N3  UNL     1      17.971  24.270   8.131  1.00  0.00    -0.351 N
HETATM   29  C19 UNL     1      18.268  25.532   7.515  1.00  0.00     0.136 C
HETATM   30  C22 UNL     1      17.810  23.090   7.319  1.00  0.00     0.136 C
HETATM   31  C20 UNL     1      19.683  25.561   6.917  1.00  0.00     0.093 C
HETATM   32  S1  UNL     1      19.729  24.198   5.688  1.00  0.00    -0.166 SA
HETATM   33  C21 UNL     1      18.119  23.347   5.859  1.00  0.00     0.093 C
ENDBRANCH  25  26
ENDBRANCH  24  25
ENDBRANCH   1  24
BRANCH   4  34
HETATM   34  C24 UNL     1      23.423  25.426   8.896  1.00  0.00     0.135 C
BRANCH  34  35
HETATM   35  C25 UNL     1      24.751  25.966   9.308  1.00  0.00     0.133 C
BRANCH  35  36
HETATM   36  C26 UNL     1      24.657  26.467  10.716  1.00  0.00     0.174 C
HETATM   37  O4  UNL     1      24.647  27.695  10.924  1.00  0.00    -0.648 OA
HETATM   38  O5  UNL     1      24.583  25.595  11.776  1.00  0.00    -0.648 OA
ENDBRANCH  35  36
ENDBRANCH  34  35
ENDBRANCH   4  34
TORSDOF 16
ENDMDL