MODEL 2
REMARK VINA RESULT: -7.990641177      1.239      1.828
REMARK  17 active torsions:
REMARK  status: ('A' for Active; 'I' for Inactive)
REMARK    1  A    between atoms: O1_2  and  C2_3
REMARK    2  A    between atoms: C2_3  and  C3_4
REMARK    3  A    between atoms: C3_4  and  C4_5
REMARK    4  A    between atoms: C4_5  and  C5_6
REMARK    5  A    between atoms: C5_6  and  N1_7
REMARK    6  A    between atoms: N1_7  and  C6_8
REMARK       I    between atoms: N1_7  and  C23_30
REMARK    7  A    between atoms: C6_8  and  C7_9
REMARK    8  A    between atoms: C7_9  and  O2_10
REMARK    9  A    between atoms: O2_10  and  C8_11
REMARK   10  A    between atoms: C8_11  and  C9_12
REMARK   11  A    between atoms: C9_12  and  O3_13
REMARK   12  A    between atoms: O3_13  and  C10_14
REMARK   13  A    between atoms: C10_14  and  C11_15
REMARK   14  A    between atoms: C11_15  and  N2_16
REMARK   15  A    between atoms: N2_16  and  C12_18
REMARK   16  A    between atoms: C12_18  and  C13_20
REMARK   17  A    between atoms: C23_30  and  C24_32
ROOT
HETATM    1  O2  UNL     1      21.068  30.991  14.770  1.00  0.00    -0.387 OA
ENDROOT
BRANCH   1   2
HETATM    2  C7  UNL     1      20.172  29.983  14.428  1.00  0.00     0.187 C
BRANCH   2   3
HETATM    3  C6  UNL     1      19.752  30.090  13.003  1.00  0.00     0.152 C
BRANCH   3   4
HETATM    4  N1  UNL     1      19.919  28.829  12.257  1.00  0.00    -0.345 N
HETATM    5  C23 UNL     1      18.919  28.524  11.334  1.00  0.00     0.271 C
HETATM    6  O4  UNL     1      17.926  29.346  11.186  1.00  0.00    -0.266 OA
BRANCH   4   7
HETATM    7  C5  UNL     1      21.055  27.999  12.507  1.00  0.00     0.126 C
BRANCH   7   8
HETATM    8  C4  UNL     1      22.331  28.480  11.850  1.00  0.00     0.022 C
BRANCH   8   9
HETATM    9  C3  UNL     1      22.986  27.288  11.172  1.00  0.00     0.028 C
BRANCH   9  10
HETATM   10  C2  UNL     1      24.248  26.886  11.874  1.00  0.00     0.167 C
BRANCH  10  11
HETATM   11  O1  UNL     1      24.594  25.582  11.624  1.00  0.00    -0.396 OA
HETATM   12  C1  UNL     1      24.438  25.188  10.312  1.00  0.00     0.201 C
ENDBRANCH  10  11
ENDBRANCH   9  10
ENDBRANCH   8   9
ENDBRANCH   7   8
ENDBRANCH   4   7
BRANCH   5  13
HETATM   13  C24 UNL     1      18.890  27.349  10.507  1.00  0.00     0.117 A
HETATM   14  C25 UNL     1      18.262  26.134  10.845  1.00  0.00     0.062 A
HETATM   15  C26 UNL     1      18.438  25.242   9.827  1.00  0.00     0.024 A
HETATM   16  C27 UNL     1      17.925  23.837   9.796  1.00  0.00     0.070 C
HETATM   17  N3  UNL     1      19.150  25.882   8.890  1.00  0.00    -0.305 N
HETATM   18  N4  UNL     1      19.404  27.104   9.302  1.00  0.00    -0.295 N
ATOM     19  H3  UNL     1      19.448  25.485   8.000  1.00  0.00     0.186 HD
ATOM     20  H4  UNL     1      19.933  27.787   8.761  1.00  0.00     0.187 HD
ENDBRANCH   5  13
ENDBRANCH   3   4
ENDBRANCH   2   3
ENDBRANCH   1   2
BRANCH   1  21
HETATM   21  C8  UNL     1      21.393  31.774  13.664  1.00  0.00     0.193 C
BRANCH  21  22
HETATM   22  C9  UNL     1      22.529  32.686  14.059  1.00  0.00     0.193 C
BRANCH  22  23
HETATM   23  O3  UNL     1      23.091  32.408  15.272  1.00  0.00    -0.387 OA
BRANCH  23  24
HETATM   24  C10 UNL     1      23.115  33.450  16.161  1.00  0.00     0.187 C
BRANCH  24  25
HETATM   25  C11 UNL     1      22.507  32.934  17.464  1.00  0.00     0.146 C
BRANCH  25  26
HETATM   26  N2  UNL     1      21.112  32.682  17.346  1.00  0.00    -0.382 N
ATOM     27  H2  UNL     1      20.852  31.697  17.389  1.00  0.00     0.160 HD
BRANCH  26  28
HETATM   28  C12 UNL     1      20.043  33.558  17.183  1.00  0.00     0.082 C
HETATM   29  S1  UNL     1      20.272  35.100  17.796  1.00  0.00    -0.065 SA
BRANCH  28  30
HETATM   30  C13 UNL     1      18.740  33.337  16.551  1.00  0.00     0.014 C
HETATM   31  C14 UNL     1      18.173  31.964  16.679  1.00  0.00     0.021 C
HETATM   32  C15 UNL     1      16.856  31.885  15.926  1.00  0.00    -0.013 C
HETATM   33  C16 UNL     1      17.114  32.209  14.467  1.00  0.00     0.009 C
HETATM   34  C20 UNL     1      15.817  32.790  16.540  1.00  0.00     0.009 C
HETATM   35  C17 UNL     1      17.506  33.649  14.371  1.00  0.00    -0.013 C
HETATM   36  C18 UNL     1      16.497  34.573  15.036  1.00  0.00     0.009 C
HETATM   37  C22 UNL     1      18.806  33.851  15.124  1.00  0.00     0.021 C
HETATM   38  C19 UNL     1      16.406  34.198  16.478  1.00  0.00    -0.013 C
HETATM   39  C21 UNL     1      17.695  34.261  17.225  1.00  0.00     0.021 C
ENDBRANCH  28  30
ENDBRANCH  26  28
ENDBRANCH  25  26
ENDBRANCH  24  25
ENDBRANCH  23  24
ENDBRANCH  22  23
ENDBRANCH  21  22
ENDBRANCH   1  21
TORSDOF 17
ENDMDL