MODEL 4
REMARK VINA RESULT: -7.460533206      1.017      1.191
REMARK  16 active torsions:
REMARK  status: ('A' for Active; 'I' for Inactive)
REMARK    1  A    between atoms: C2_2  and  C3_3
REMARK    2  A    between atoms: C3_3  and  C4_4
REMARK    3  A    between atoms: C4_4  and  C5_5
REMARK    4  A    between atoms: C5_5  and  C6_6
REMARK    5  A    between atoms: C6_6  and  C7_7
REMARK    6  A    between atoms: C7_7  and  C8_8
REMARK    7  A    between atoms: C8_8  and  C9_9
REMARK    8  A    between atoms: C9_9  and  C10_10
REMARK    9  A    between atoms: C10_10  and  C11_11
REMARK   10  A    between atoms: C11_11  and  C12_12
REMARK   11  A    between atoms: C12_12  and  C13_13
REMARK   12  A    between atoms: C13_13  and  C14_14
REMARK   13  A    between atoms: C14_14  and  C15_15
REMARK   14  A    between atoms: C15_15  and  C16_16
REMARK       I    between atoms: C16_16  and  N1_18
REMARK   15  A    between atoms: N1_18  and  C17_20
REMARK   16  A    between atoms: C20_24  and  N2_25
REMARK       I    between atoms: N2_25  and  C21_27
REMARK       I    between atoms: C21_27  and  N3_29
ROOT
HETATM    1  C17 UNL     1      21.310  30.159  14.160  1.00  0.00     0.352 C
HETATM    2  C18 UNL     1      22.303  29.075  13.684  1.00  0.00     0.228 C
HETATM    3  O2  UNL     1      21.649  28.351  12.714  1.00  0.00    -0.351 OA
HETATM    4  C19 UNL     1      20.610  29.099  12.201  1.00  0.00     0.393 C
HETATM    5  C20 UNL     1      19.282  28.440  12.182  1.00  0.00     0.217 C
HETATM    6  C27 UNL     1      18.342  29.588  12.476  1.00  0.00     0.187 C
HETATM    7  O4  UNL     1      17.228  29.698  12.051  1.00  0.00    -0.293 OA
HETATM    8  C28 UNL     1      19.119  30.472  13.365  1.00  0.00     0.296 C
HETATM    9  C29 UNL     1      18.672  31.912  13.337  1.00  0.00     0.051 C
HETATM   10  N5  UNL     1      20.510  30.299  13.004  1.00  0.00     0.156 N
ENDROOT
BRANCH   1  11
HETATM   11  N1  UNL     1      22.027  31.325  14.580  1.00  0.00    -0.329 N
HETATM   12  C16 UNL     1      21.720  31.933  15.827  1.00  0.00     0.222 C
HETATM   13  O1  UNL     1      20.836  31.438  16.559  1.00  0.00    -0.273 OA
ATOM     14  H1  UNL     1      22.757  31.718  13.986  1.00  0.00     0.164 HD
BRANCH  12  15
HETATM   15  C15 UNL     1      22.494  33.156  16.202  1.00  0.00     0.130 C
BRANCH  15  16
HETATM   16  C14 UNL     1      21.802  34.363  15.797  1.00  0.00    -0.018 C
BRANCH  16  17
HETATM   17  C13 UNL     1      21.160  35.367  16.619  1.00  0.00    -0.008 C
BRANCH  17  18
HETATM   18  C12 UNL     1      19.884  35.306  17.249  1.00  0.00    -0.027 C
BRANCH  18  19
HETATM   19  C11 UNL     1      18.956  34.236  17.539  1.00  0.00     0.027 C
BRANCH  19  20
HETATM   20  C10 UNL     1      18.156  33.610  16.492  1.00  0.00     0.004 C
BRANCH  20  21
HETATM   21  C9  UNL     1      17.368  34.623  15.646  1.00  0.00     0.000 C
BRANCH  21  22
HETATM   22  C8  UNL     1      15.924  34.273  15.665  1.00  0.00     0.000 C
BRANCH  22  23
HETATM   23  C7  UNL     1      15.541  33.404  16.832  1.00  0.00     0.000 C
BRANCH  23  24
HETATM   24  C6  UNL     1      15.111  34.157  18.058  1.00  0.00     0.000 C
BRANCH  24  25
HETATM   25  C5  UNL     1      14.335  35.392  17.685  1.00  0.00     0.000 C
BRANCH  25  26
HETATM   26  C4  UNL     1      14.791  36.640  18.403  1.00  0.00     0.000 C
BRANCH  26  27
HETATM   27  C3  UNL     1      16.185  36.406  18.926  1.00  0.00    -0.000 C
BRANCH  27  28
HETATM   28  C2  UNL     1      17.159  37.491  18.553  1.00  0.00    -0.005 C
HETATM   29  C1  UNL     1      16.951  37.986  17.139  1.00  0.00     0.005 C
ENDBRANCH  27  28
ENDBRANCH  26  27
ENDBRANCH  25  26
ENDBRANCH  24  25
ENDBRANCH  23  24
ENDBRANCH  22  23
ENDBRANCH  21  22
ENDBRANCH  20  21
ENDBRANCH  19  20
ENDBRANCH  18  19
ENDBRANCH  17  18
ENDBRANCH  16  17
ENDBRANCH  15  16
ENDBRANCH  12  15
ENDBRANCH   1  11
BRANCH   5  30
HETATM   30  N2  UNL     1      18.897  27.956  10.860  1.00  0.00    -0.327 N
HETATM   31  C21 UNL     1      18.588  26.606  10.686  1.00  0.00     0.319 C
HETATM   32  O3  UNL     1      18.645  25.817  11.685  1.00  0.00    -0.247 OA
HETATM   33  N3  UNL     1      18.209  26.033   9.458  1.00  0.00    -0.331 N
HETATM   34  C22 UNL     1      17.878  24.616   9.380  1.00  0.00     0.157 C
HETATM   35  C26 UNL     1      18.129  26.751   8.198  1.00  0.00     0.157 C
HETATM   36  C23 UNL     1      18.144  24.144   7.985  1.00  0.00     0.291 C
HETATM   37  N4  UNL     1      19.333  24.757   7.429  1.00  0.00     0.087 N
HETATM   38  C24 UNL     1      20.459  24.385   8.266  1.00  0.00     0.310 C
HETATM   39  C25 UNL     1      19.190  26.181   7.270  1.00  0.00     0.291 C
ATOM     40  H2  UNL     1      18.854  28.600  10.069  1.00  0.00     0.165 HD
ENDBRANCH   5  30
TORSDOF 16
ENDMDL