MODEL 5
REMARK VINA RESULT: -6.937554708      3.645     10.523
REMARK  18 active torsions:
REMARK  status: ('A' for Active; 'I' for Inactive)
REMARK    1  A    between atoms: N1_2  and  C2_3
REMARK    2  A    between atoms: N1_2  and  C23_30
REMARK    3  A    between atoms: C2_3  and  C3_4
REMARK    4  A    between atoms: C3_4  and  C4_5
REMARK    5  A    between atoms: C4_5  and  C5_6
REMARK    6  A    between atoms: C5_6  and  C6_7
REMARK    7  A    between atoms: C6_7  and  C7_8
REMARK    8  A    between atoms: C7_8  and  C8_9
REMARK    9  A    between atoms: C8_9  and  N2_10
REMARK   10  A    between atoms: N2_10  and  C9_11
REMARK   11  A    between atoms: N2_10  and  C17_24
REMARK   12  A    between atoms: C9_11  and  N3_13
REMARK   13  A    between atoms: N3_13  and  C10_15
REMARK   14  A    between atoms: C10_15  and  C11_16
REMARK   15  A    between atoms: C11_16  and  C12_17
REMARK   16  A    between atoms: C12_17  and  N4_18
REMARK   17  A    between atoms: C23_30  and  C24_31
REMARK   18  A    between atoms: C24_31  and  N5_32
ROOT
HETATM    1  N2  UNL     1      19.513  30.903  13.901  1.00  0.00    -0.353 N
ENDROOT
BRANCH   1   2
HETATM    2  C8  UNL     1      19.005  30.496  12.592  1.00  0.00     0.125 C
BRANCH   2   3
HETATM    3  C7  UNL     1      17.530  30.315  12.547  1.00  0.00     0.020 C
BRANCH   3   4
HETATM    4  C6  UNL     1      17.179  29.112  11.719  1.00  0.00     0.002 C
BRANCH   4   5
HETATM    5  C5  UNL     1      18.403  28.492  11.147  1.00  0.00     0.000 C
BRANCH   5   6
HETATM    6  C4  UNL     1      18.101  27.836   9.800  1.00  0.00     0.005 C
BRANCH   6   7
HETATM    7  C3  UNL     1      18.021  26.372   9.975  1.00  0.00     0.044 C
BRANCH   7   8
HETATM    8  C2  UNL     1      18.253  25.468   8.825  1.00  0.00     0.057 C
BRANCH   8   9
HETATM    9  N1  UNL     1      19.484  25.536   8.144  1.00  0.00    -0.396 N
HETATM   10  C1  UNL     1      19.468  25.887   6.801  1.00  0.00     0.148 C
BRANCH   9  11
HETATM   11  C23 UNL     1      20.472  24.604   8.572  1.00  0.00     0.151 C
BRANCH  11  12
HETATM   12  C24 UNL     1      21.825  25.184   8.876  1.00  0.00     0.292 C
BRANCH  12  13
HETATM   13  N5  UNL     1      22.320  24.815  10.163  1.00  0.00     0.093 N
HETATM   14  C25 UNL     1      23.605  25.334  10.508  1.00  0.00     0.302 C
HETATM   15  C26 UNL     1      23.507  26.824  10.694  1.00  0.00     0.302 C
HETATM   16  N6  UNL     1      22.618  27.087  11.808  1.00  0.00     0.087 N
HETATM   17  C27 UNL     1      22.423  28.509  11.992  1.00  0.00     0.310 C
HETATM   18  C28 UNL     1      21.338  26.464  11.652  1.00  0.00     0.302 C
HETATM   19  C29 UNL     1      21.395  25.030  11.229  1.00  0.00     0.302 C
ENDBRANCH  12  13
ENDBRANCH  11  12
ENDBRANCH   9  11
ENDBRANCH   8   9
ENDBRANCH   7   8
ENDBRANCH   6   7
ENDBRANCH   5   6
ENDBRANCH   4   5
ENDBRANCH   3   4
ENDBRANCH   2   3
ENDBRANCH   1   2
BRANCH   1  20
HETATM   20  C9  UNL     1      19.201  30.089  15.019  1.00  0.00     0.174 C
HETATM   21  S1  UNL     1      20.174  28.841  15.379  1.00  0.00    -0.041 SA
BRANCH  20  22
HETATM   22  N3  UNL     1      18.073  30.298  15.818  1.00  0.00    -0.343 N
ATOM     23  H3  UNL     1      17.610  29.426  16.077  1.00  0.00     0.167 HD
BRANCH  22  24
HETATM   24  C10 UNL     1      17.424  31.432  16.350  1.00  0.00     0.088 C
BRANCH  24  25
HETATM   25  C11 UNL     1      16.710  32.399  15.530  1.00  0.00     0.020 C
BRANCH  25  26
HETATM   26  C12 UNL     1      17.041  33.814  15.394  1.00  0.00     0.301 C
BRANCH  26  27
HETATM   27  N4  UNL     1      16.503  34.695  16.422  1.00  0.00     0.096 N
HETATM   28  C13 UNL     1      17.402  34.775  17.562  1.00  0.00     0.299 C
HETATM   29  C14 UNL     1      16.766  35.655  18.619  1.00  0.00     0.198 C
HETATM   30  O1  UNL     1      15.616  35.005  19.054  1.00  0.00    -0.388 OA
HETATM   31  C15 UNL     1      14.685  34.916  18.051  1.00  0.00     0.198 C
HETATM   32  C16 UNL     1      15.199  34.198  16.823  1.00  0.00     0.299 C
ENDBRANCH  26  27
ENDBRANCH  25  26
ENDBRANCH  24  25
ENDBRANCH  22  24
ENDBRANCH  20  22
ENDBRANCH   1  20
BRANCH   1  33
HETATM   33  C17 UNL     1      20.229  32.159  13.961  1.00  0.00     0.086 C
HETATM   34  C18 UNL     1      21.616  32.073  13.333  1.00  0.00     0.025 C
HETATM   35  C19 UNL     1      22.627  31.438  14.228  1.00  0.00     0.002 C
HETATM   36  C20 UNL     1      22.995  32.480  15.284  1.00  0.00     0.000 C
HETATM   37  C21 UNL     1      21.837  33.415  15.457  1.00  0.00     0.002 C
HETATM   38  C22 UNL     1      20.495  32.634  15.373  1.00  0.00     0.025 C
ENDBRANCH   1  33
TORSDOF 18
ENDMDL