MODEL 2
REMARK VINA RESULT: -8.224938700      2.562      5.739
REMARK  16 active torsions:
REMARK  status: ('A' for Active; 'I' for Inactive)
REMARK    1  A    between atoms: C2_2  and  C3_3
REMARK    2  A    between atoms: C3_3  and  N1_4
REMARK    3  A    between atoms: N1_4  and  C4_5
REMARK       I    between atoms: N1_4  and  C7_8
REMARK    4  A    between atoms: C4_5  and  C5_6
REMARK    5  A    between atoms: C7_8  and  C8_10
REMARK    6  A    between atoms: C8_10  and  C9_11
REMARK    7  A    between atoms: C9_11  and  N2_12
REMARK    8  A    between atoms: N2_12  and  C10_13
REMARK    9  A    between atoms: N2_12  and  C23_35
REMARK   10  A    between atoms: C10_13  and  C11_14
REMARK   11  A    between atoms: C11_14  and  C12_15
REMARK   12  A    between atoms: C12_15  and  N3_16
REMARK       I    between atoms: N3_16  and  C13_18
REMARK   13  A    between atoms: C13_18  and  C14_20
REMARK   14  A    between atoms: C14_20  and  C15_21
REMARK   15  A    between atoms: C23_35  and  C24_36
REMARK   16  A    between atoms: C24_36  and  C25_37
ROOT
HETATM    1  C10 UNL     1      22.190  30.475  14.414  1.00  0.00     0.069 C
ENDROOT
BRANCH   1   2
HETATM    2  N2  UNL     1      21.446  29.341  14.125  1.00  0.00    -0.354 N
BRANCH   2   3
HETATM    3  C9  UNL     1      21.977  28.324  13.324  1.00  0.00     0.077 C
BRANCH   3   4
HETATM    4  C8  UNL     1      22.170  28.456  11.869  1.00  0.00     0.148 C
BRANCH   4   5
HETATM    5  C7  UNL     1      23.270  27.461  11.511  1.00  0.00     0.225 C
HETATM    6  N1  UNL     1      22.985  26.214  10.905  1.00  0.00    -0.345 N
HETATM    7  O1  UNL     1      24.432  27.771  11.772  1.00  0.00    -0.273 OA
BRANCH   6   8
HETATM    8  C3  UNL     1      24.088  25.311  10.678  1.00  0.00     0.152 C
BRANCH   8   9
HETATM    9  C2  UNL     1      24.129  24.795   9.299  1.00  0.00    -0.017 C
HETATM   10  C1  UNL     1      24.573  25.570   8.320  1.00  0.00     0.008 C
ENDBRANCH   8   9
ENDBRANCH   6   8
BRANCH   6  11
HETATM   11  C4  UNL     1      21.659  25.864  10.514  1.00  0.00     0.152 C
BRANCH  11  12
HETATM   12  C5  UNL     1      21.031  24.833  11.406  1.00  0.00    -0.017 C
HETATM   13  C6  UNL     1      20.065  24.075  10.915  1.00  0.00     0.008 C
ENDBRANCH  11  12
ENDBRANCH   6  11
ENDBRANCH   4   5
ENDBRANCH   3   4
ENDBRANCH   2   3
BRANCH   2  14
HETATM   14  C23 UNL     1      20.307  28.987  14.885  1.00  0.00     0.068 C
BRANCH  14  15
HETATM   15  C24 UNL     1      18.948  29.220  14.406  1.00  0.00     0.049 C
BRANCH  15  16
HETATM   16  C25 UNL     1      18.664  29.075  12.955  1.00  0.00    -0.010 C
HETATM   17  C26 UNL     1      17.457  29.927  12.576  1.00  0.00     0.005 C
HETATM   18  C27 UNL     1      16.691  29.325  11.427  1.00  0.00     0.000 C
HETATM   19  C28 UNL     1      17.592  28.568  10.474  1.00  0.00     0.000 C
HETATM   20  C29 UNL     1      18.318  27.422  11.144  1.00  0.00     0.000 C
HETATM   21  C30 UNL     1      18.197  27.635  12.637  1.00  0.00     0.005 C
ENDBRANCH  15  16
ENDBRANCH  14  15
ENDBRANCH   2  14
ENDBRANCH   1   2
BRANCH   1  22
HETATM   22  C11 UNL     1      21.954  31.759  13.676  1.00  0.00     0.065 C
BRANCH  22  23
HETATM   23  C12 UNL     1      21.759  32.957  14.578  1.00  0.00     0.128 C
BRANCH  23  24
HETATM   24  N3  UNL     1      20.867  32.677  15.666  1.00  0.00    -0.360 N
HETATM   25  C13 UNL     1      19.463  32.761  15.436  1.00  0.00     0.223 C
HETATM   26  O2  UNL     1      19.011  33.075  14.301  1.00  0.00    -0.273 OA
ATOM     27  H3  UNL     1      21.230  32.423  16.585  1.00  0.00     0.162 HD
BRANCH  25  28
HETATM   28  C14 UNL     1      18.531  32.478  16.546  1.00  0.00     0.160 C
BRANCH  28  29
HETATM   29  C15 UNL     1      18.313  33.749  17.293  1.00  0.00     0.033 A
HETATM   30  N4  UNL     1      19.220  34.200  18.175  1.00  0.00    -0.311 N
HETATM   31  C16 UNL     1      18.976  35.339  18.852  1.00  0.00     0.324 A
ATOM     32  H4  UNL     1      20.086  33.684  18.332  1.00  0.00     0.170 HD
HETATM   33  O3  UNL     1      19.821  35.774  19.681  1.00  0.00    -0.247 OA
HETATM   34  N5  UNL     1      17.856  36.059  18.687  1.00  0.00    -0.309 N
HETATM   35  C17 UNL     1      16.959  35.617  17.819  1.00  0.00     0.053 A
ATOM     36  H5  UNL     1      17.701  36.919  19.213  1.00  0.00     0.170 HD
HETATM   37  C18 UNL     1      17.175  34.459  17.112  1.00  0.00     0.019 A
HETATM   38  C21 UNL     1      15.651  36.142  17.398  1.00  0.00     0.168 C
HETATM   39  C19 UNL     1      15.994  34.277  16.242  1.00  0.00     0.155 C
HETATM   40  C20 UNL     1      16.248  34.896  14.865  1.00  0.00     0.045 C
HETATM   41  O4  UNL     1      14.982  35.055  16.814  1.00  0.00    -0.370 OA
HETATM   42  C22 UNL     1      14.829  36.632  18.554  1.00  0.00     0.046 C
ENDBRANCH  28  29
ENDBRANCH  25  28
ENDBRANCH  23  24
ENDBRANCH  22  23
ENDBRANCH   1  22
TORSDOF 16
ENDMDL