MODEL 2
REMARK VINA RESULT: -7.486208986      2.031      9.570
REMARK  20 active torsions:
REMARK  status: ('A' for Active; 'I' for Inactive)
REMARK    1  A    between atoms: C2_2  and  C3_3
REMARK    2  A    between atoms: C3_3  and  C4_4
REMARK    3  A    between atoms: C4_4  and  C5_5
REMARK    4  A    between atoms: C5_5  and  C6_6
REMARK    5  A    between atoms: C6_6  and  C7_7
REMARK    6  A    between atoms: C7_7  and  C8_8
REMARK    7  A    between atoms: C8_8  and  O2_10
REMARK    8  A    between atoms: O2_10  and  C9_11
REMARK    9  A    between atoms: N1_13  and  C11_14
REMARK   10  A    between atoms: C11_14  and  C12_15
REMARK   11  A    between atoms: C12_15  and  C13_16
REMARK   12  A    between atoms: C13_16  and  C14_17
REMARK   13  A    between atoms: C14_17  and  O3_18
REMARK   14  A    between atoms: O3_18  and  C15_19
REMARK   15  A    between atoms: C21_25  and  O4_26
REMARK   16  A    between atoms: C22_28  and  O5_29
REMARK   17  A    between atoms: C23_31  and  O6_32
REMARK   18  A    between atoms: O6_32  and  N2_33
REMARK   19  A    between atoms: N2_33  and  C26_36
REMARK   20  A    between atoms: C26_36  and  C27_37
ROOT
HETATM    1  C9  UNL     1      20.635  33.076  14.648  1.00  0.00     0.164 C
HETATM    2  C10 UNL     1      19.288  32.430  14.669  1.00  0.00     0.270 C
HETATM    3  N1  UNL     1      18.939  31.761  15.884  1.00  0.00    -0.062 N
HETATM    4  C18 UNL     1      20.061  31.056  16.480  1.00  0.00     0.238 C
HETATM    5  C19 UNL     1      21.191  31.974  16.862  1.00  0.00     0.038 C
HETATM    6  C20 UNL     1      21.321  33.157  15.972  1.00  0.00     0.050 C
HETATM    7  C21 UNL     1      20.983  34.415  16.725  1.00  0.00     0.156 C
HETATM    8  C22 UNL     1      19.791  34.387  17.583  1.00  0.00     0.180 C
HETATM    9  C23 UNL     1      18.498  34.017  16.891  1.00  0.00     0.216 C
HETATM   10  C30 UNL     1      18.259  32.540  16.881  1.00  0.00     0.274 C
ENDROOT
BRANCH   1  11
HETATM   11  O2  UNL     1      21.390  32.624  13.573  1.00  0.00    -0.314 OA
BRANCH  11  12
HETATM   12  C8  UNL     1      21.190  31.542  12.776  1.00  0.00     0.259 C
HETATM   13  O1  UNL     1      20.472  31.826  11.814  1.00  0.00    -0.265 OA
BRANCH  12  14
HETATM   14  C7  UNL     1      21.783  30.263  13.094  1.00  0.00     0.111 C
BRANCH  14  15
HETATM   15  C6  UNL     1      21.774  29.232  11.971  1.00  0.00     0.010 C
BRANCH  15  16
HETATM   16  C5  UNL     1      21.975  27.857  12.483  1.00  0.00     0.000 C
BRANCH  16  17
HETATM   17  C4  UNL     1      23.010  26.995  11.875  1.00  0.00     0.000 C
BRANCH  17  18
HETATM   18  C3  UNL     1      24.438  27.307  11.946  1.00  0.00    -0.000 C
BRANCH  18  19
HETATM   19  C2  UNL     1      25.401  26.735  10.977  1.00  0.00    -0.005 C
HETATM   20  C1  UNL     1      24.787  26.352   9.658  1.00  0.00     0.005 C
ENDBRANCH  18  19
ENDBRANCH  17  18
ENDBRANCH  16  17
ENDBRANCH  15  16
ENDBRANCH  14  15
ENDBRANCH  12  14
ENDBRANCH  11  12
ENDBRANCH   1  11
BRANCH   3  21
HETATM   21  C11 UNL     1      18.000  30.712  15.513  1.00  0.00     0.237 C
BRANCH  21  22
HETATM   22  C12 UNL     1      18.086  30.187  14.143  1.00  0.00     0.030 C
BRANCH  22  23
HETATM   23  C13 UNL     1      18.553  28.721  14.109  1.00  0.00     0.028 C
BRANCH  23  24
HETATM   24  C14 UNL     1      17.639  28.018  13.131  1.00  0.00     0.168 C
BRANCH  24  25
HETATM   25  O3  UNL     1      18.315  27.527  12.049  1.00  0.00    -0.387 OA
BRANCH  25  26
HETATM   26  C15 UNL     1      18.329  28.314  10.930  1.00  0.00     0.113 C
HETATM   27  C16 UNL     1      16.976  29.007  10.729  1.00  0.00     0.039 C
HETATM   28  C17 UNL     1      18.592  27.473   9.674  1.00  0.00     0.039 C
ENDBRANCH  25  26
ENDBRANCH  24  25
ENDBRANCH  23  24
ENDBRANCH  22  23
ENDBRANCH  21  22
ENDBRANCH   3  21
BRANCH   7  29
HETATM   29  O4  UNL     1      20.886  35.523  15.858  1.00  0.00    -0.392 OA
ATOM     30  H4  UNL     1      20.866  36.340  16.342  1.00  0.00     0.210 HD
ENDBRANCH   7  29
BRANCH   8  31
HETATM   31  O5  UNL     1      19.705  35.681  18.163  1.00  0.00    -0.390 OA
ATOM     32  H5  UNL     1      18.835  35.736  18.541  1.00  0.00     0.210 HD
ENDBRANCH   8  31
BRANCH   9  33
HETATM   33  O6  UNL     1      17.520  34.771  17.391  1.00  0.00    -0.193 OA
BRANCH  33  34
HETATM   34  N2  UNL     1      16.412  35.137  16.924  1.00  0.00     0.039 N
HETATM   35  C24 UNL     1      16.413  35.104  15.449  1.00  0.00     0.311 C
HETATM   36  C25 UNL     1      15.206  34.486  17.387  1.00  0.00     0.311 C
BRANCH  34  37
HETATM   37  C26 UNL     1      16.233  36.548  17.235  1.00  0.00     0.277 C
BRANCH  37  38
HETATM   38  C27 UNL     1      16.399  36.875  18.694  1.00  0.00     0.014 A
HETATM   39  C28 UNL     1      15.301  37.805  19.200  1.00  0.00     0.007 A
HETATM   40  C29 UNL     1      16.665  38.331  19.103  1.00  0.00     0.007 A
ENDBRANCH  37  38
ENDBRANCH  34  37
ENDBRANCH  33  34
ENDBRANCH   9  33
TORSDOF 20
ENDMDL