MODEL 5
REMARK VINA RESULT: -7.105855057      2.256      3.177
REMARK  21 active torsions:
REMARK  status: ('A' for Active; 'I' for Inactive)
REMARK    1  A    between atoms: O1_2  and  C2_3
REMARK    2  A    between atoms: C2_3  and  C3_4
REMARK    3  A    between atoms: C3_4  and  O2_5
REMARK    4  A    between atoms: O2_5  and  C4_6
REMARK    5  A    between atoms: C4_6  and  C5_7
REMARK    6  A    between atoms: C5_7  and  N1_8
REMARK    7  A    between atoms: N1_8  and  C6_9
REMARK    8  A    between atoms: C6_9  and  C7_10
REMARK    9  A    between atoms: C7_10  and  O3_11
REMARK   10  A    between atoms: C18_24  and  C19_25
REMARK   11  A    between atoms: C19_25  and  O5_26
REMARK   12  A    between atoms: C19_25  and  N2_28
REMARK   13  A    between atoms: N2_28  and  C20_30
REMARK   14  A    between atoms: C20_30  and  C21_31
REMARK   15  A    between atoms: C21_31  and  C22_32
REMARK   16  A    between atoms: C22_32  and  C23_33
REMARK   17  A    between atoms: C23_33  and  C24_34
REMARK   18  A    between atoms: C24_34  and  C25_35
REMARK   19  A    between atoms: C25_35  and  C26_36
REMARK   20  A    between atoms: C26_36  and  O6_37
REMARK   21  A    between atoms: O6_37  and  C27_38
ROOT
HETATM    1  N1  UNL     1      18.553  32.727  15.651  1.00  0.00    -0.025 N
HETATM    2  C8  UNL     1      17.660  31.604  15.533  1.00  0.00     0.244 C
HETATM    3  C9  UNL     1      18.001  30.434  14.728  1.00  0.00     0.028 C
HETATM    4  C10 UNL     1      17.303  30.182  13.436  1.00  0.00     0.002 C
HETATM    5  C11 UNL     1      17.973  28.985  12.763  1.00  0.00     0.000 C
HETATM    6  C12 UNL     1      19.101  29.400  11.841  1.00  0.00     0.000 C
HETATM    7  C13 UNL     1      20.468  29.050  12.355  1.00  0.00     0.000 C
HETATM    8  C14 UNL     1      21.465  30.177  12.185  1.00  0.00     0.000 C
HETATM    9  C15 UNL     1      22.009  30.528  13.546  1.00  0.00     0.008 C
HETATM   10  C16 UNL     1      21.901  32.002  13.858  1.00  0.00     0.085 C
HETATM   11  C17 UNL     1      20.533  32.426  14.207  1.00  0.00     0.188 C
HETATM   12  O4  UNL     1      19.874  32.712  13.222  1.00  0.00    -0.291 OA
HETATM   13  C18 UNL     1      19.939  32.520  15.585  1.00  0.00     0.232 C
ENDROOT
BRANCH  13  14
HETATM   14  C19 UNL     1      20.593  31.617  16.516  1.00  0.00     0.175 C
BRANCH  14  15
HETATM   15  O5  UNL     1      20.265  30.346  16.522  1.00  0.00    -0.345 OA
ATOM     16  H5  UNL     1      19.457  30.073  16.940  1.00  0.00     0.219 HD
ENDBRANCH  14  15
BRANCH  14  17
HETATM   17  N2  UNL     1      21.582  31.827  17.500  1.00  0.00    -0.369 N
ATOM     18  H2  UNL     1      21.577  31.232  18.328  1.00  0.00     0.161 HD
BRANCH  17  19
HETATM   19  C20 UNL     1      22.612  32.857  17.389  1.00  0.00     0.121 C
BRANCH  19  20
HETATM   20  C21 UNL     1      22.090  34.136  17.950  1.00  0.00     0.020 C
BRANCH  20  21
HETATM   21  C22 UNL     1      22.217  35.333  17.071  1.00  0.00     0.002 C
BRANCH  21  22
HETATM   22  C23 UNL     1      21.913  36.586  17.850  1.00  0.00     0.000 C
BRANCH  22  23
HETATM   23  C24 UNL     1      22.965  37.634  17.803  1.00  0.00     0.002 C
BRANCH  23  24
HETATM   24  C25 UNL     1      22.980  38.606  18.936  1.00  0.00     0.027 C
BRANCH  24  25
HETATM   25  C26 UNL     1      24.370  38.591  19.552  1.00  0.00     0.178 C
BRANCH  25  26
HETATM   26  O6  UNL     1      24.415  37.841  20.760  1.00  0.00    -0.322 OA
BRANCH  26  27
HETATM   27  C27 UNL     1      24.740  38.491  21.953  1.00  0.00     0.254 C
HETATM   28  C28 UNL     1      25.280  37.727  23.102  1.00  0.00     0.126 C
HETATM   29  O7  UNL     1      24.564  39.753  22.036  1.00  0.00    -0.266 OA
ENDBRANCH  26  27
ENDBRANCH  25  26
ENDBRANCH  24  25
ENDBRANCH  23  24
ENDBRANCH  22  23
ENDBRANCH  21  22
ENDBRANCH  20  21
ENDBRANCH  19  20
ENDBRANCH  17  19
ENDBRANCH  14  17
ENDBRANCH  13  14
BRANCH   1  30
HETATM   30  C5  UNL     1      18.205  33.236  16.991  1.00  0.00     0.270 C
BRANCH  30  31
HETATM   31  C4  UNL     1      18.620  34.557  17.408  1.00  0.00     0.196 C
BRANCH  31  32
HETATM   32  O2  UNL     1      18.014  34.749  18.692  1.00  0.00    -0.387 OA
BRANCH  32  33
HETATM   33  C3  UNL     1      17.656  36.071  18.863  1.00  0.00     0.193 C
BRANCH  33  34
HETATM   34  C2  UNL     1      16.148  36.118  18.923  1.00  0.00     0.193 C
BRANCH  34  35
HETATM   35  O1  UNL     1      15.527  34.900  18.954  1.00  0.00    -0.394 OA
HETATM   36  C1  UNL     1      14.682  34.658  17.908  1.00  0.00     0.201 C
ENDBRANCH  34  35
ENDBRANCH  33  34
ENDBRANCH  32  33
ENDBRANCH  31  32
ENDBRANCH  30  31
ENDBRANCH   1  30
BRANCH   1  37
HETATM   37  C6  UNL     1      18.016  33.684  14.699  1.00  0.00     0.270 C
BRANCH  37  38
HETATM   38  C7  UNL     1      16.626  34.072  14.698  1.00  0.00     0.192 C
BRANCH  38  39
HETATM   39  O3  UNL     1      16.610  35.496  14.602  1.00  0.00    -0.399 OA
ATOM     40  H3  UNL     1      15.946  35.795  15.213  1.00  0.00     0.209 HD
ENDBRANCH  38  39
ENDBRANCH  37  38
ENDBRANCH   1  37
TORSDOF 21
ENDMDL