MODEL 3
REMARK VINA RESULT: -7.558391730      2.923     10.576
REMARK  17 active torsions:
REMARK  status: ('A' for Active; 'I' for Inactive)
REMARK    1  A    between atoms: C2_2  and  C3_3
REMARK    2  A    between atoms: C3_3  and  C4_4
REMARK    3  A    between atoms: C4_4  and  C5_5
REMARK    4  A    between atoms: C5_5  and  C6_6
REMARK    5  A    between atoms: C6_6  and  C7_7
REMARK    6  A    between atoms: C7_7  and  C8_8
REMARK    7  A    between atoms: C8_8  and  C9_9
REMARK    8  A    between atoms: C9_9  and  C10_10
REMARK    9  A    between atoms: C10_10  and  C11_11
REMARK       I    between atoms: C11_11  and  N1_13
REMARK   10  A    between atoms: N1_13  and  C12_15
REMARK   11  A    between atoms: N2_18  and  C14_19
REMARK   12  A    between atoms: C14_19  and  C15_20
REMARK       I    between atoms: C15_20  and  N3_22
REMARK   13  A    between atoms: C21_29  and  C22_30
REMARK   14  A    between atoms: C21_29  and  S1_33
REMARK   15  A    between atoms: C22_30  and  O5_31
REMARK   16  A    between atoms: S1_33  and  C23_34
REMARK   17  A    between atoms: C23_34  and  C24_35
ROOT
HETATM    1  C12 UNL     1      19.601  31.091  13.893  1.00  0.00     0.199 C
HETATM    2  C13 UNL     1      19.626  30.018  12.905  1.00  0.00     0.244 C
HETATM    3  O2  UNL     1      18.965  30.083  11.806  1.00  0.00    -0.271 OA
HETATM    4  N2  UNL     1      20.456  28.949  13.332  1.00  0.00    -0.340 N
HETATM    5  C20 UNL     1      20.929  29.296  14.666  1.00  0.00     0.151 C
HETATM    6  C21 UNL     1      20.882  30.792  14.740  1.00  0.00     0.074 C
ENDROOT
BRANCH   1   7
HETATM    7  N1  UNL     1      18.427  31.029  14.689  1.00  0.00    -0.346 N
HETATM    8  C11 UNL     1      17.547  32.138  14.745  1.00  0.00     0.218 C
HETATM    9  O1  UNL     1      17.845  33.179  14.063  1.00  0.00    -0.274 OA
ATOM     10  H1  UNL     1      18.218  30.184  15.223  1.00  0.00     0.163 HD
BRANCH   8  11
HETATM   11  C10 UNL     1      16.299  32.188  15.538  1.00  0.00     0.103 C
BRANCH  11  12
HETATM   12  C9  UNL     1      16.019  33.586  15.976  1.00  0.00     0.009 C
BRANCH  12  13
HETATM   13  C8  UNL     1      16.331  33.849  17.409  1.00  0.00     0.000 C
BRANCH  13  14
HETATM   14  C7  UNL     1      15.168  34.442  18.170  1.00  0.00     0.000 C
BRANCH  14  15
HETATM   15  C6  UNL     1      14.823  35.762  17.483  1.00  0.00     0.000 C
BRANCH  15  16
HETATM   16  C5  UNL     1      14.805  36.823  18.550  1.00  0.00     0.000 C
BRANCH  16  17
HETATM   17  C4  UNL     1      15.771  37.946  18.310  1.00  0.00     0.000 C
BRANCH  17  18
HETATM   18  C3  UNL     1      16.809  37.544  17.312  1.00  0.00    -0.000 C
BRANCH  18  19
HETATM   19  C2  UNL     1      18.213  37.621  17.883  1.00  0.00    -0.005 C
HETATM   20  C1  UNL     1      18.460  36.466  18.804  1.00  0.00     0.005 C
ENDBRANCH  18  19
ENDBRANCH  17  18
ENDBRANCH  16  17
ENDBRANCH  15  16
ENDBRANCH  14  15
ENDBRANCH  13  14
ENDBRANCH  12  13
ENDBRANCH  11  12
ENDBRANCH   8  11
ENDBRANCH   1   7
BRANCH   6  21
HETATM   21  C22 UNL     1      21.960  31.466  13.963  1.00  0.00     0.189 C
BRANCH  21  22
HETATM   22  O5  UNL     1      21.592  32.688  13.426  1.00  0.00    -0.399 OA
ATOM     23  H5  UNL     1      20.682  32.918  13.571  1.00  0.00     0.209 HD
ENDBRANCH  21  22
ENDBRANCH   6  21
BRANCH   6  24
HETATM   24  S1  UNL     1      20.641  31.339  16.374  1.00  0.00    -0.152 SA
BRANCH  24  25
HETATM   25  C23 UNL     1      21.582  32.607  17.090  1.00  0.00     0.079 C
BRANCH  25  26
HETATM   26  C24 UNL     1      21.105  34.005  17.192  1.00  0.00    -0.005 C
HETATM   27  C25 UNL     1      21.327  34.951  16.093  1.00  0.00     0.005 C
HETATM   28  C26 UNL     1      21.484  36.341  16.723  1.00  0.00     0.000 C
HETATM   29  C27 UNL     1      22.287  36.002  17.946  1.00  0.00     0.000 C
HETATM   30  C28 UNL     1      21.689  34.707  18.419  1.00  0.00     0.005 C
ENDBRANCH  25  26
ENDBRANCH  24  25
ENDBRANCH   6  24
BRANCH   4  31
HETATM   31  C14 UNL     1      20.795  27.748  12.636  1.00  0.00     0.228 C
BRANCH  31  32
HETATM   32  C15 UNL     1      22.218  27.580  12.311  1.00  0.00     0.237 C
HETATM   33  O3  UNL     1      23.097  28.430  12.582  1.00  0.00    -0.272 OA
HETATM   34  N3  UNL     1      22.642  26.394  11.656  1.00  0.00    -0.347 N
HETATM   35  C16 UNL     1      21.699  25.338  11.300  1.00  0.00     0.152 C
HETATM   36  C19 UNL     1      24.022  26.199  11.323  1.00  0.00     0.152 C
HETATM   37  C17 UNL     1      21.849  24.904   9.878  1.00  0.00     0.187 C
HETATM   38  O4  UNL     1      23.091  25.235   9.341  1.00  0.00    -0.388 OA
HETATM   39  C18 UNL     1      24.112  25.136  10.252  1.00  0.00     0.187 C
ENDBRANCH  31  32
ENDBRANCH   4  31
TORSDOF 17
ENDMDL