MODEL 2
REMARK VINA RESULT: -9.809866709      0.969      1.511
REMARK  14 active torsions:
REMARK  status: ('A' for Active; 'I' for Inactive)
REMARK    1  A    between atoms: C2_2  and  C3_3
REMARK    2  A    between atoms: C3_3  and  C4_4
REMARK    3  A    between atoms: C4_4  and  C5_5
REMARK    4  A    between atoms: C5_5  and  C6_6
REMARK    5  A    between atoms: C6_6  and  C7_7
REMARK    6  A    between atoms: C7_7  and  C8_8
REMARK    7  A    between atoms: C8_8  and  N1_10
REMARK    8  A    between atoms: N1_10  and  C10_12
REMARK    9  A    between atoms: C13_15  and  C14_16
REMARK   10  A    between atoms: C14_16  and  C15_17
REMARK   11  A    between atoms: C15_17  and  N2_18
REMARK   12  A    between atoms: C21_24  and  O1_25
REMARK   13  A    between atoms: C23_28  and  N3_29
REMARK   14  A    between atoms: C24_34  and  C25_35
ROOT
HETATM    1  N2  UNL     1      86.620  93.658 148.279  1.00  0.00     0.088 N
HETATM    2  C16 UNL     1      85.752  93.377 147.191  1.00  0.00     0.273 C
HETATM    3  C17 UNL     1      84.931  92.145 147.637  1.00  0.00     0.044 C
HETATM    4  C18 UNL     1      83.945  92.619 148.641  1.00  0.00     0.013 C
HETATM    5  C19 UNL     1      84.393  93.968 149.248  1.00  0.00     0.044 C
HETATM    6  C20 UNL     1      85.864  93.808 149.515  1.00  0.00     0.273 C
HETATM    7  C21 UNL     1      82.509  92.689 148.206  1.00  0.00     0.131 C
HETATM    8  C22 UNL     1      82.118  92.316 149.639  1.00  0.00     0.062 C
HETATM    9  C23 UNL     1      83.539  91.734 149.759  1.00  0.00     0.142 C
ENDROOT
BRANCH   1  10
HETATM   10  C15 UNL     1      87.593  94.683 148.114  1.00  0.00     0.272 C
BRANCH  10  11
HETATM   11  C14 UNL     1      88.847  94.225 147.444  1.00  0.00     0.034 C
BRANCH  11  12
HETATM   12  C13 UNL     1      89.595  93.188 148.266  1.00  0.00    -0.013 C
HETATM   13  C12 UNL     1      89.849  93.608 149.682  1.00  0.00     0.007 C
HETATM   14  C11 UNL     1      91.002  92.662 150.175  1.00  0.00     0.025 C
HETATM   15  C10 UNL     1      92.232  93.333 149.640  1.00  0.00     0.077 C
HETATM   16  C30 UNL     1      92.130  93.360 148.090  1.00  0.00     0.025 C
HETATM   17  C29 UNL     1      90.880  92.782 147.567  1.00  0.00     0.007 C
BRANCH  15  18
HETATM   18  N1  UNL     1      93.436  92.781 149.981  1.00  0.00    -0.413 N
ATOM     19  H1  UNL     1      93.751  93.025 150.920  1.00  0.00     0.153 HD
BRANCH  18  20
HETATM   20  C8  UNL     1      94.296  91.963 149.304  1.00  0.00     0.072 C
HETATM   21  C9  UNL     1      95.688  91.739 149.783  1.00  0.00     0.031 C
BRANCH  20  22
HETATM   22  C7  UNL     1      93.682  90.573 149.017  1.00  0.00     0.024 C
BRANCH  22  23
HETATM   23  C6  UNL     1      94.028  90.125 147.643  1.00  0.00     0.002 C
BRANCH  23  24
HETATM   24  C5  UNL     1      92.876  89.897 146.762  1.00  0.00     0.000 C
BRANCH  24  25
HETATM   25  C4  UNL     1      92.639  88.616 146.093  1.00  0.00     0.000 C
BRANCH  25  26
HETATM   26  C3  UNL     1      91.303  87.989 146.105  1.00  0.00    -0.000 C
BRANCH  26  27
HETATM   27  C2  UNL     1      91.223  86.908 144.984  1.00  0.00    -0.005 C
HETATM   28  C1  UNL     1      91.747  85.601 145.586  1.00  0.00     0.005 C
ENDBRANCH  26  27
ENDBRANCH  25  26
ENDBRANCH  24  25
ENDBRANCH  23  24
ENDBRANCH  22  23
ENDBRANCH  20  22
ENDBRANCH  18  20
ENDBRANCH  15  18
ENDBRANCH  11  12
ENDBRANCH  10  11
ENDBRANCH   1  10
BRANCH   7  29
HETATM   29  O1  UNL     1      82.129  91.794 147.236  1.00  0.00    -0.395 OA
ATOM     30  H1  UNL     1      81.331  92.004 146.765  1.00  0.00     0.210 HD
ENDBRANCH   7  29
BRANCH   9  31
HETATM   31  N3  UNL     1      83.473  90.312 149.563  1.00  0.00    -0.212 N
HETATM   32  N4  UNL     1      83.784  89.638 148.495  1.00  0.00    -0.224 N
HETATM   33  N5  UNL     1      83.605  88.327 148.702  1.00  0.00    -0.271 N
ATOM     34  H4  UNL     1      84.118  90.049 147.624  1.00  0.00     0.210 HD
HETATM   35  C24 UNL     1      83.164  88.179 149.948  1.00  0.00     0.120 A
ATOM     36  H5  UNL     1      83.776  87.579 148.029  1.00  0.00     0.190 HD
HETATM   37  N6  UNL     1      83.083  89.402 150.475  1.00  0.00    -0.269 N
ATOM     38  H6  UNL     1      82.774  89.615 151.423  1.00  0.00     0.190 HD
BRANCH  35  39
HETATM   39  C25 UNL     1      82.827  86.872 150.623  1.00  0.00     0.010 C
HETATM   40  C26 UNL     1      81.693  87.032 151.577  1.00  0.00     0.023 C
HETATM   41  C27 UNL     1      84.110  86.426 151.302  1.00  0.00     0.023 C
HETATM   42  C28 UNL     1      82.537  85.882 149.505  1.00  0.00     0.023 C
ENDBRANCH  35  39
ENDBRANCH   9  31
TORSDOF 14
ENDMDL