MODEL 2
REMARK VINA RESULT: -10.087345403      0.880      1.594
REMARK  15 active torsions:
REMARK  status: ('A' for Active; 'I' for Inactive)
REMARK       I    between atoms: C1_2  and  N1_3
REMARK    1  A    between atoms: C1_2  and  O5_33
REMARK    2  A    between atoms: N1_3  and  C2_5
REMARK    3  A    between atoms: C2_5  and  C3_6
REMARK    4  A    between atoms: C2_5  and  C18_27
REMARK    5  A    between atoms: C3_6  and  O3_8
REMARK    6  A    between atoms: O3_8  and  C4_9
REMARK    7  A    between atoms: C4_9  and  C5_10
REMARK    8  A    between atoms: C5_10  and  C6_11
REMARK    9  A    between atoms: C6_11  and  C7_12
REMARK   10  A    between atoms: C7_12  and  N2_13
REMARK   11  A    between atoms: C10_18  and  C11_19
REMARK   12  A    between atoms: C11_19  and  O4_20
REMARK   13  A    between atoms: O4_20  and  C12_21
REMARK   14  A    between atoms: O5_33  and  C24_34
REMARK   15  A    between atoms: C24_34  and  C25_35
ROOT
HETATM    1  C3  UNL     1      88.427  93.366 148.971  1.00  0.00     0.286 C
HETATM    2  O2  UNL     1      87.937  92.319 149.438  1.00  0.00    -0.263 OA
ENDROOT
BRANCH   1   3
HETATM    3  C2  UNL     1      89.882  93.505 148.620  1.00  0.00     0.220 C
BRANCH   3   4
HETATM    4  N1  UNL     1      90.359  92.356 147.898  1.00  0.00    -0.319 N
HETATM    5  C1  UNL     1      91.536  92.459 147.122  1.00  0.00     0.361 C
HETATM    6  O1  UNL     1      92.142  93.555 147.080  1.00  0.00    -0.238 OA
ATOM      7  H1  UNL     1      89.852  91.473 147.945  1.00  0.00     0.166 HD
BRANCH   5   8
HETATM    8  O5  UNL     1      92.070  91.408 146.396  1.00  0.00    -0.299 OA
BRANCH   8   9
HETATM    9  C24 UNL     1      92.755  90.309 146.913  1.00  0.00     0.219 C
BRANCH   9  10
HETATM   10  C25 UNL     1      93.967  90.630 147.691  1.00  0.00    -0.034 A
HETATM   11  C26 UNL     1      95.210  90.284 147.215  1.00  0.00     0.009 A
HETATM   12  C27 UNL     1      96.366  90.579 147.947  1.00  0.00     0.001 A
HETATM   13  C28 UNL     1      96.261  91.221 149.154  1.00  0.00     0.000 A
HETATM   14  C29 UNL     1      95.026  91.568 149.632  1.00  0.00     0.001 A
HETATM   15  C30 UNL     1      93.897  91.270 148.900  1.00  0.00     0.009 A
ENDBRANCH   9  10
ENDBRANCH   8   9
ENDBRANCH   5   8
ENDBRANCH   3   4
BRANCH   3  16
HETATM   16  C18 UNL     1      90.689  93.777 149.838  1.00  0.00    -0.026 A
HETATM   17  C19 UNL     1      90.776  92.826 150.831  1.00  0.00     0.010 A
HETATM   18  C20 UNL     1      91.525  93.070 151.968  1.00  0.00     0.001 A
HETATM   19  C21 UNL     1      92.190  94.266 152.115  1.00  0.00     0.000 A
HETATM   20  C22 UNL     1      92.088  95.214 151.099  1.00  0.00     0.001 A
HETATM   21  C23 UNL     1      91.348  94.976 149.971  1.00  0.00     0.010 A
ENDBRANCH   3  16
ENDBRANCH   1   3
BRANCH   1  22
HETATM   22  O3  UNL     1      87.622  94.457 148.761  1.00  0.00    -0.320 OA
BRANCH  22  23
HETATM   23  C4  UNL     1      87.022  94.804 147.564  1.00  0.00     0.178 C
BRANCH  23  24
HETATM   24  C5  UNL     1      86.357  93.648 146.862  1.00  0.00     0.028 C
BRANCH  24  25
HETATM   25  C6  UNL     1      85.081  93.232 147.561  1.00  0.00     0.022 C
BRANCH  25  26
HETATM   26  C7  UNL     1      84.810  91.761 147.459  1.00  0.00     0.130 C
BRANCH  26  27
HETATM   27  N2  UNL     1      83.500  91.440 148.046  1.00  0.00    -0.344 N
HETATM   28  C8  UNL     1      82.380  92.164 147.906  1.00  0.00     0.109 A
HETATM   29  C9  UNL     1      81.351  91.558 148.593  1.00  0.00     0.106 A
HETATM   30  N3  UNL     1      81.870  90.457 149.151  1.00  0.00    -0.352 N
HETATM   31  C10 UNL     1      83.191  90.393 148.808  1.00  0.00     0.107 A
ATOM     32  H3  UNL     1      81.367  89.784 149.729  1.00  0.00     0.166 HD
BRANCH  31  33
HETATM   33  C11 UNL     1      84.107  89.325 149.229  1.00  0.00     0.252 C
BRANCH  33  34
HETATM   34  O4  UNL     1      83.687  88.693 150.425  1.00  0.00    -0.344 OA
BRANCH  34  35
HETATM   35  C12 UNL     1      83.534  87.325 150.456  1.00  0.00     0.069 A
HETATM   36  C13 UNL     1      84.158  86.545 151.412  1.00  0.00     0.037 A
HETATM   37  C14 UNL     1      83.988  85.176 151.421  1.00  0.00     0.003 A
HETATM   38  C15 UNL     1      83.185  84.557 150.471  1.00  0.00     0.000 A
HETATM   39  C16 UNL     1      82.569  85.344 149.524  1.00  0.00     0.003 A
HETATM   40  C17 UNL     1      82.743  86.712 149.521  1.00  0.00     0.037 A
ENDBRANCH  34  35
ENDBRANCH  33  34
ENDBRANCH  31  33
ENDBRANCH  26  27
ENDBRANCH  25  26
ENDBRANCH  24  25
ENDBRANCH  23  24
ENDBRANCH  22  23
ENDBRANCH   1  22
TORSDOF 15
ENDMDL