MODEL 2
REMARK VINA RESULT: -9.702219653      0.544      1.326
REMARK  14 active torsions:
REMARK  status: ('A' for Active; 'I' for Inactive)
REMARK    1  A    between atoms: C2_2  and  C3_3
REMARK    2  A    between atoms: C3_3  and  C4_4
REMARK    3  A    between atoms: C4_4  and  C5_5
REMARK    4  A    between atoms: C5_5  and  C6_6
REMARK    5  A    between atoms: C6_6  and  C7_7
REMARK    6  A    between atoms: C7_7  and  C8_8
REMARK    7  A    between atoms: C8_8  and  C9_9
REMARK    8  A    between atoms: C9_9  and  C10_10
REMARK    9  A    between atoms: C10_10  and  C11_11
REMARK   10  A    between atoms: C11_11  and  C12_12
REMARK   11  A    between atoms: C11_11  and  N4_22
REMARK   12  A    between atoms: C19_25  and  O1_26
REMARK   13  A    between atoms: O1_26  and  C20_27
REMARK   14  A    between atoms: C23_30  and  C24_31
ROOT
HETATM    1  C12 UNL     1      82.103  91.432 148.922  1.00  0.00     0.049 A
HETATM    2  C13 UNL     1      82.111  91.675 150.280  1.00  0.00     0.045 A
HETATM    3  C14 UNL     1      80.921  91.709 150.959  1.00  0.00     0.092 A
HETATM    4  N1  UNL     1      79.754  91.505 150.289  1.00  0.00    -0.344 N
ATOM      5  H1  UNL     1      78.872  91.532 150.801  1.00  0.00     0.167 HD
HETATM    6  C15 UNL     1      79.743  91.269 148.970  1.00  0.00     0.188 A
HETATM    7  C16 UNL     1      78.521  91.044 148.221  1.00  0.00     0.137 C
HETATM    8  N2  UNL     1      77.556  90.874 147.609  1.00  0.00    -0.188 NA
HETATM    9  N3  UNL     1      80.919  91.243 148.342  1.00  0.00    -0.335 N
ATOM     10  H3  UNL     1      80.911  91.063 147.338  1.00  0.00     0.168 HD
ENDROOT
BRANCH   1  11
HETATM   11  C11 UNL     1      83.359  91.349 148.149  1.00  0.00     0.295 C
BRANCH  11  12
HETATM   12  C10 UNL     1      84.359  90.365 148.587  1.00  0.00     0.011 C
BRANCH  12  13
HETATM   13  C9  UNL     1      84.075  88.975 148.902  1.00  0.00    -0.028 C
BRANCH  13  14
HETATM   14  C8  UNL     1      83.935  88.474 150.276  1.00  0.00     0.027 C
BRANCH  14  15
HETATM   15  C7  UNL     1      83.294  87.105 150.406  1.00  0.00     0.004 C
BRANCH  15  16
HETATM   16  C6  UNL     1      84.047  86.278 151.448  1.00  0.00     0.000 C
BRANCH  16  17
HETATM   17  C5  UNL     1      83.931  84.821 151.135  1.00  0.00     0.000 C
BRANCH  17  18
HETATM   18  C4  UNL     1      83.027  84.525 149.984  1.00  0.00     0.000 C
BRANCH  18  19
HETATM   19  C3  UNL     1      81.886  83.623 150.351  1.00  0.00    -0.000 C
BRANCH  19  20
HETATM   20  C2  UNL     1      80.560  84.273 150.049  1.00  0.00    -0.005 C
HETATM   21  C1  UNL     1      80.135  85.216 151.159  1.00  0.00     0.005 C
ENDBRANCH  19  20
ENDBRANCH  18  19
ENDBRANCH  17  18
ENDBRANCH  16  17
ENDBRANCH  15  16
ENDBRANCH  14  15
ENDBRANCH  13  14
ENDBRANCH  12  13
ENDBRANCH  11  12
BRANCH  11  22
HETATM   22  N4  UNL     1      83.941  92.660 147.940  1.00  0.00     0.102 N
HETATM   23  C17 UNL     1      84.337  93.367 149.095  1.00  0.00     0.276 C
HETATM   24  C18 UNL     1      85.613  92.886 149.750  1.00  0.00     0.062 C
HETATM   25  C19 UNL     1      86.741  92.835 148.741  1.00  0.00     0.132 C
HETATM   26  C30 UNL     1      86.280  93.303 147.388  1.00  0.00     0.062 C
HETATM   27  C31 UNL     1      85.001  92.630 146.954  1.00  0.00     0.276 C
BRANCH  25  28
HETATM   28  O1  UNL     1      87.909  93.454 149.092  1.00  0.00    -0.346 OA
BRANCH  28  29
HETATM   29  C20 UNL     1      89.212  93.177 149.036  1.00  0.00     0.069 A
HETATM   30  C21 UNL     1      89.782  92.972 147.771  1.00  0.00     0.037 A
HETATM   31  C22 UNL     1      91.117  92.685 147.609  1.00  0.00     0.012 A
HETATM   32  C23 UNL     1      91.964  92.587 148.711  1.00  0.00    -0.028 A
HETATM   33  C28 UNL     1      91.415  92.787 149.955  1.00  0.00     0.012 A
HETATM   34  C29 UNL     1      90.070  93.074 150.094  1.00  0.00     0.037 A
BRANCH  32  35
HETATM   35  C24 UNL     1      93.404  92.277 148.615  1.00  0.00     0.180 C
HETATM   36  C25 UNL     1      93.978  92.168 149.986  1.00  0.00     0.268 C
HETATM   37  N5  UNL     1      95.411  91.976 149.866  1.00  0.00    -0.070 N
HETATM   38  C26 UNL     1      95.659  90.807 149.072  1.00  0.00     0.258 C
ATOM     39  H52 UNL     1      95.885  92.802 149.501  1.00  0.00     0.277 HD
ATOM     40  H51 UNL     1      95.876  91.936 150.774  1.00  0.00     0.277 HD
HETATM   41  C27 UNL     1      94.387  90.214 148.498  1.00  0.00     0.196 C
HETATM   42  O2  UNL     1      93.650  91.171 147.803  1.00  0.00    -0.378 OA
ENDBRANCH  32  35
ENDBRANCH  28  29
ENDBRANCH  25  28
ENDBRANCH  11  22
ENDBRANCH   1  11
TORSDOF 14
ENDMDL