MODEL 2
REMARK VINA RESULT: -9.740277694      0.682      1.077
REMARK  13 active torsions:
REMARK  status: ('A' for Active; 'I' for Inactive)
REMARK    1  A    between atoms: S1_2  and  N1_4
REMARK    2  A    between atoms: S1_2  and  C12_18
REMARK    3  A    between atoms: N1_4  and  C1_6
REMARK    4  A    between atoms: C1_6  and  C2_7
REMARK    5  A    between atoms: C2_7  and  C3_8
REMARK    6  A    between atoms: C3_8  and  C4_9
REMARK    7  A    between atoms: C4_9  and  C5_10
REMARK    8  A    between atoms: C5_10  and  C6_11
REMARK    9  A    between atoms: C6_11  and  C7_12
REMARK   10  A    between atoms: C15_21  and  C16_22
REMARK   11  A    between atoms: C17_26  and  C18_27
REMARK   12  A    between atoms: C18_27  and  S2_28
REMARK   13  A    between atoms: S2_28  and  C19_29
ROOT
HETATM    1  C12 UNL     1      84.684  91.674 148.471  1.00  0.00     0.079 A
HETATM    2  C13 UNL     1      84.987  92.906 149.076  1.00  0.00     0.026 A
HETATM    3  C14 UNL     1      86.178  93.490 148.826  1.00  0.00     0.017 A
HETATM    4  C15 UNL     1      87.134  92.937 147.993  1.00  0.00     0.010 A
HETATM    5  C25 UNL     1      86.845  91.737 147.397  1.00  0.00     0.017 A
HETATM    6  C26 UNL     1      85.605  91.120 147.654  1.00  0.00     0.026 A
ENDROOT
BRANCH   1   7
HETATM    7  S1  UNL     1      83.132  91.004 148.881  1.00  0.00     0.258 S
HETATM    8  O1  UNL     1      82.580  91.563 150.149  1.00  0.00    -0.201 OA
HETATM    9  O2  UNL     1      82.180  91.451 147.781  1.00  0.00    -0.201 OA
BRANCH   7  10
HETATM   10  N1  UNL     1      83.175  89.303 149.001  1.00  0.00    -0.315 N
ATOM     11  H1  UNL     1      82.755  88.700 148.294  1.00  0.00     0.172 HD
BRANCH  10  12
HETATM   12  C1  UNL     1      83.840  88.771 150.158  1.00  0.00     0.132 C
BRANCH  12  13
HETATM   13  C2  UNL     1      83.353  87.362 150.387  1.00  0.00     0.020 C
BRANCH  13  14
HETATM   14  C3  UNL     1      84.209  86.558 151.306  1.00  0.00     0.002 C
BRANCH  14  15
HETATM   15  C4  UNL     1      83.650  85.121 151.401  1.00  0.00     0.000 C
BRANCH  15  16
HETATM   16  C5  UNL     1      83.055  84.772 150.043  1.00  0.00     0.000 C
BRANCH  16  17
HETATM   17  C6  UNL     1      81.974  83.774 150.071  1.00  0.00     0.005 C
BRANCH  17  18
HETATM   18  C7  UNL     1      80.608  84.333 149.739  1.00  0.00    -0.011 C
HETATM   19  C8  UNL     1      80.695  85.512 148.802  1.00  0.00     0.031 C
HETATM   20  C9  UNL     1      79.360  86.235 148.801  1.00  0.00     0.168 C
HETATM   21  O3  UNL     1      79.041  86.782 150.018  1.00  0.00    -0.391 OA
HETATM   22  C10 UNL     1      79.806  86.266 151.074  1.00  0.00     0.168 C
HETATM   23  C11 UNL     1      79.833  84.761 150.939  1.00  0.00     0.031 C
ENDBRANCH  17  18
ENDBRANCH  16  17
ENDBRANCH  15  16
ENDBRANCH  14  15
ENDBRANCH  13  14
ENDBRANCH  12  13
ENDBRANCH  10  12
ENDBRANCH   7  10
ENDBRANCH   1   7
BRANCH   4  24
HETATM   24  C16 UNL     1      88.393  93.645 147.807  1.00  0.00     0.137 A
HETATM   25  N2  UNL     1      88.685  94.869 147.350  1.00  0.00    -0.242 N
HETATM   26  O4  UNL     1      89.986  95.046 147.348  1.00  0.00    -0.222 OA
ATOM     27  H2  UNL     1      88.000  95.562 147.049  1.00  0.00     0.196 HD
HETATM   28  C17 UNL     1      90.595  93.946 147.802  1.00  0.00     0.158 A
HETATM   29  N3  UNL     1      89.606  93.107 148.076  1.00  0.00    -0.322 N
ATOM     30  H3  UNL     1      89.743  92.167 148.447  1.00  0.00     0.169 HD
BRANCH  28  31
HETATM   31  C18 UNL     1      92.078  93.750 147.947  1.00  0.00     0.166 C
BRANCH  31  32
HETATM   32  S2  UNL     1      92.537  92.748 149.342  1.00  0.00    -0.122 SA
BRANCH  32  33
HETATM   33  C19 UNL     1      93.952  91.727 149.124  1.00  0.00     0.001 A
HETATM   34  C20 UNL     1      95.068  92.010 149.904  1.00  0.00     0.018 A
HETATM   35  C21 UNL     1      96.230  91.285 149.843  1.00  0.00     0.001 A
HETATM   36  C22 UNL     1      96.282  90.233 148.963  1.00  0.00     0.000 A
HETATM   37  C23 UNL     1      95.220  89.890 148.158  1.00  0.00     0.001 A
HETATM   38  C24 UNL     1      94.070  90.660 148.270  1.00  0.00     0.018 A
ENDBRANCH  32  33
ENDBRANCH  31  32
ENDBRANCH  28  31
ENDBRANCH   4  24
TORSDOF 13
ENDMDL