MODEL 3
REMARK VINA RESULT: -9.305750292      3.859      9.387
REMARK  13 active torsions:
REMARK  status: ('A' for Active; 'I' for Inactive)
REMARK    1  A    between atoms: C1_2  and  C2_4
REMARK    2  A    between atoms: C2_4  and  C3_5
REMARK    3  A    between atoms: C8_10  and  C9_11
REMARK    4  A    between atoms: C9_11  and  S1_12
REMARK    5  A    between atoms: S1_12  and  C10_13
REMARK    6  A    between atoms: C11_18  and  S2_19
REMARK    7  A    between atoms: S2_19  and  C12_20
REMARK    8  A    between atoms: C12_20  and  C13_21
REMARK    9  A    between atoms: C13_21  and  O3_22
REMARK   10  A    between atoms: O3_22  and  C14_23
REMARK   11  A    between atoms: N3_29  and  C20_30
REMARK   12  A    between atoms: C20_30  and  C21_31
REMARK   13  A    between atoms: C21_31  and  C22_32
ROOT
HETATM    1  C10 UNL     1      81.014  90.702 149.312  1.00  0.00     0.163 A
HETATM    2  N1  UNL     1      80.568  91.570 148.359  1.00  0.00    -0.278 N
ATOM      3  H1  UNL     1      79.598  91.841 148.198  1.00  0.00     0.189 HD
HETATM    4  N2  UNL     1      81.610  91.992 147.686  1.00  0.00    -0.278 N
ATOM      5  H2  UNL     1      81.563  92.654 146.911  1.00  0.00     0.189 HD
HETATM    6  C11 UNL     1      82.740  91.450 148.141  1.00  0.00     0.163 A
HETATM    7  N3  UNL     1      82.343  90.627 149.182  1.00  0.00    -0.306 N
ENDROOT
BRANCH   1   8
HETATM    8  S1  UNL     1      79.983  89.804 150.477  1.00  0.00    -0.088 SA
BRANCH   8   9
HETATM    9  C9  UNL     1      79.028  88.518 149.578  1.00  0.00     0.121 C
BRANCH   9  10
HETATM   10  C8  UNL     1      79.098  87.278 150.377  1.00  0.00    -0.042 A
HETATM   11  C3  UNL     1      79.148  86.031 149.790  1.00  0.00    -0.041 A
HETATM   12  C4  UNL     1      79.244  84.851 150.547  1.00  0.00     0.008 A
HETATM   13  C5  UNL     1      79.286  84.964 151.918  1.00  0.00     0.001 A
HETATM   14  C6  UNL     1      79.237  86.182 152.547  1.00  0.00     0.001 A
HETATM   15  C7  UNL     1      79.145  87.316 151.773  1.00  0.00     0.008 A
BRANCH  11  16
HETATM   16  C2  UNL     1      79.072  85.935 148.315  1.00  0.00     0.152 C
BRANCH  16  17
HETATM   17  C1  UNL     1      77.873  85.157 147.923  1.00  0.00     0.176 C
HETATM   18  O1  UNL     1      77.956  84.069 147.310  1.00  0.00    -0.648 OA
HETATM   19  O2  UNL     1      76.597  85.625 148.232  1.00  0.00    -0.648 OA
ENDBRANCH  16  17
ENDBRANCH  11  16
ENDBRANCH   9  10
ENDBRANCH   8   9
ENDBRANCH   1   8
BRANCH   7  20
HETATM   20  C20 UNL     1      83.309  89.886 149.964  1.00  0.00     0.134 C
BRANCH  20  21
HETATM   21  C21 UNL     1      83.775  88.602 149.465  1.00  0.00     0.025 C
BRANCH  21  22
HETATM   22  C22 UNL     1      83.325  87.294 149.904  1.00  0.00    -0.013 C
HETATM   23  C23 UNL     1      82.542  86.432 148.968  1.00  0.00     0.005 C
HETATM   24  C24 UNL     1      82.831  84.977 149.386  1.00  0.00     0.000 C
HETATM   25  C25 UNL     1      83.383  84.843 150.754  1.00  0.00     0.000 C
HETATM   26  C26 UNL     1      82.906  85.807 151.782  1.00  0.00     0.000 C
HETATM   27  C27 UNL     1      82.632  87.208 151.248  1.00  0.00     0.005 C
ENDBRANCH  21  22
ENDBRANCH  20  21
ENDBRANCH   7  20
BRANCH   6  28
HETATM   28  S2  UNL     1      84.430  91.659 147.613  1.00  0.00    -0.090 SA
BRANCH  28  29
HETATM   29  C12 UNL     1      84.911  93.382 147.925  1.00  0.00     0.109 C
BRANCH  29  30
HETATM   30  C13 UNL     1      86.061  93.730 147.049  1.00  0.00     0.186 C
BRANCH  30  31
HETATM   31  O3  UNL     1      87.107  94.365 147.642  1.00  0.00    -0.350 OA
BRANCH  31  32
HETATM   32  C14 UNL     1      88.442  94.160 147.681  1.00  0.00     0.068 A
HETATM   33  C15 UNL     1      89.022  92.935 147.693  1.00  0.00     0.037 A
HETATM   34  C16 UNL     1      90.405  92.807 147.738  1.00  0.00     0.003 A
HETATM   35  C17 UNL     1      91.252  93.889 147.771  1.00  0.00     0.000 A
HETATM   36  C18 UNL     1      90.668  95.135 147.758  1.00  0.00     0.003 A
HETATM   37  C19 UNL     1      89.310  95.267 147.715  1.00  0.00     0.037 A
ENDBRANCH  31  32
ENDBRANCH  30  31
ENDBRANCH  29  30
ENDBRANCH  28  29
ENDBRANCH   6  28
TORSDOF 13
ENDMDL