MODEL 4
REMARK VINA RESULT: -8.624927285      1.460      2.225
REMARK  14 active torsions:
REMARK  status: ('A' for Active; 'I' for Inactive)
REMARK    1  A    between atoms: C2_2  and  C3_3
REMARK    2  A    between atoms: C3_3  and  C4_4
REMARK    3  A    between atoms: C4_4  and  N1_5
REMARK    4  A    between atoms: C5_7  and  N2_8
REMARK    5  A    between atoms: C5_7  and  C7_12
REMARK    6  A    between atoms: C10_15  and  C11_16
REMARK    7  A    between atoms: C11_16  and  N4_17
REMARK    8  A    between atoms: N4_17  and  C12_18
REMARK    9  A    between atoms: N4_17  and  C21_28
REMARK   10  A    between atoms: C12_18  and  C13_19
REMARK   11  A    between atoms: C13_19  and  C14_20
REMARK   12  A    between atoms: C14_20  and  O1_21
REMARK   13  A    between atoms: O1_21  and  C15_22
REMARK   14  A    between atoms: C22_31  and  C23_32
ROOT
HETATM    1  N2  UNL     1      82.858  86.905 150.912  1.00  0.00    -0.279 N
ATOM      2  H2  UNL     1      82.024  87.077 151.474  1.00  0.00     0.179 HD
HETATM    3  C6  UNL     1      83.805  85.991 151.341  1.00  0.00     0.183 C
HETATM    4  N3  UNL     1      84.595  85.206 151.713  1.00  0.00    -0.172 NA
ENDROOT
BRANCH   1   5
HETATM    5  C5  UNL     1      83.044  87.599 149.694  1.00  0.00     0.120 C
HETATM    6  N1  UNL     1      82.527  87.096 148.644  1.00  0.00    -0.375 N
ATOM      7  H1  UNL     1      82.664  87.599 147.767  1.00  0.00     0.161 HD
BRANCH   6   8
HETATM    8  C4  UNL     1      81.770  85.887 148.594  1.00  0.00     0.121 C
BRANCH   8   9
HETATM    9  C3  UNL     1      80.297  86.090 148.537  1.00  0.00     0.019 C
BRANCH   9  10
HETATM   10  C2  UNL     1      79.590  84.776 148.694  1.00  0.00    -0.003 C
HETATM   11  C1  UNL     1      78.387  84.590 147.828  1.00  0.00     0.005 C
ENDBRANCH   9  10
ENDBRANCH   8   9
ENDBRANCH   6   8
BRANCH   5  12
HETATM   12  C7  UNL     1      83.807  88.851 149.692  1.00  0.00     0.008 A
HETATM   13  C8  UNL     1      83.983  89.539 150.885  1.00  0.00     0.016 A
HETATM   14  C9  UNL     1      84.692  90.714 150.929  1.00  0.00     0.014 A
HETATM   15  C10 UNL     1      85.274  91.283 149.781  1.00  0.00    -0.021 A
HETATM   16  C29 UNL     1      85.097  90.600 148.609  1.00  0.00     0.014 A
HETATM   17  C30 UNL     1      84.375  89.405 148.570  1.00  0.00     0.016 A
BRANCH  15  18
HETATM   18  C11 UNL     1      86.002  92.566 149.888  1.00  0.00     0.104 C
BRANCH  18  19
HETATM   19  N4  UNL     1      86.116  93.361 148.737  1.00  0.00    -0.337 N
BRANCH  19  20
HETATM   20  C12 UNL     1      85.071  93.805 147.894  1.00  0.00     0.132 C
BRANCH  20  21
HETATM   21  C13 UNL     1      83.874  94.450 148.543  1.00  0.00     0.047 C
BRANCH  21  22
HETATM   22  C14 UNL     1      82.773  93.384 148.483  1.00  0.00     0.177 C
BRANCH  22  23
HETATM   23  O1  UNL     1      82.189  93.199 149.733  1.00  0.00    -0.351 OA
BRANCH  23  24
HETATM   24  C15 UNL     1      81.451  92.032 149.940  1.00  0.00     0.068 A
HETATM   25  C16 UNL     1      81.079  91.232 148.886  1.00  0.00     0.037 A
HETATM   26  C17 UNL     1      80.357  90.086 149.082  1.00  0.00     0.003 A
HETATM   27  C18 UNL     1      80.011  89.760 150.401  1.00  0.00     0.000 A
HETATM   28  C19 UNL     1      80.385  90.567 151.459  1.00  0.00     0.003 A
HETATM   29  C20 UNL     1      81.118  91.725 151.241  1.00  0.00     0.037 A
ENDBRANCH  23  24
ENDBRANCH  22  23
ENDBRANCH  21  22
ENDBRANCH  20  21
ENDBRANCH  19  20
BRANCH  19  30
HETATM   30  C21 UNL     1      87.462  93.748 148.339  1.00  0.00     0.151 A
HETATM   31  N5  UNL     1      88.604  93.143 148.522  1.00  0.00    -0.334 N
HETATM   32  C22 UNL     1      89.708  93.676 148.094  1.00  0.00     0.067 A
ATOM     33  H5  UNL     1      88.630  92.244 149.004  1.00  0.00     0.168 HD
HETATM   34  C28 UNL     1      89.615  94.885 147.452  1.00  0.00     0.085 A
HETATM   35  S1  UNL     1      87.936  95.183 147.503  1.00  0.00    -0.063 SA
BRANCH  32  36
HETATM   36  C23 UNL     1      91.023  93.000 148.285  1.00  0.00     0.059 A
HETATM   37  C24 UNL     1      91.807  93.272 149.358  1.00  0.00     0.032 A
HETATM   38  C25 UNL     1      93.044  92.650 149.562  1.00  0.00     0.004 A
HETATM   39  C26 UNL     1      93.443  91.737 148.616  1.00  0.00     0.017 A
HETATM   40  C27 UNL     1      92.650  91.460 147.529  1.00  0.00     0.088 A
HETATM   41  N6  UNL     1      91.481  92.089 147.395  1.00  0.00    -0.364 N
ATOM     42  H6  UNL     1      90.904  91.873 146.582  1.00  0.00     0.165 HD
ENDBRANCH  32  36
ENDBRANCH  19  30
ENDBRANCH  18  19
ENDBRANCH  15  18
ENDBRANCH   5  12
ENDBRANCH   1   5
TORSDOF 14
ENDMDL