MODEL 2
REMARK VINA RESULT: -8.647723554      2.410      4.106
REMARK  12 active torsions:
REMARK  status: ('A' for Active; 'I' for Inactive)
REMARK    1  A    between atoms: S1_2  and  C2_3
REMARK    2  A    between atoms: C7_8  and  C8_9
REMARK    3  A    between atoms: N1_10  and  C9_11
REMARK    4  A    between atoms: N1_10  and  C20_23
REMARK    5  A    between atoms: C9_11  and  C10_12
REMARK    6  A    between atoms: C10_12  and  C11_13
REMARK    7  A    between atoms: C11_13  and  C12_14
REMARK    8  A    between atoms: C12_14  and  C13_15
REMARK    9  A    between atoms: C13_15  and  C14_16
REMARK   10  A    between atoms: C14_16  and  N2_17
REMARK   11  A    between atoms: C20_23  and  C21_24
REMARK   12  A    between atoms: C23_28  and  C24_29
ROOT
HETATM    1  C8  UNL     1      82.516  88.695 150.220  1.00  0.00     0.103 C
HETATM    2  N1  UNL     1      83.111  89.602 149.392  1.00  0.00    -0.365 N
ENDROOT
BRANCH   2   3
HETATM    3  C9  UNL     1      82.241  90.755 149.181  1.00  0.00     0.128 C
BRANCH   3   4
HETATM    4  C10 UNL     1      82.168  91.700 150.329  1.00  0.00     0.020 C
BRANCH   4   5
HETATM    5  C11 UNL     1      80.699  91.971 150.661  1.00  0.00     0.002 C
BRANCH   5   6
HETATM    6  C12 UNL     1      80.266  91.152 151.847  1.00  0.00     0.002 C
BRANCH   6   7
HETATM    7  C13 UNL     1      78.960  90.454 151.670  1.00  0.00     0.030 C
BRANCH   7   8
HETATM    8  C14 UNL     1      78.961  89.690 150.370  1.00  0.00     0.272 C
BRANCH   8   9
HETATM    9  N2  UNL     1      77.780  90.019 149.597  1.00  0.00     0.088 N
HETATM   10  C15 UNL     1      77.011  88.811 149.322  1.00  0.00     0.272 C
HETATM   11  C16 UNL     1      77.495  88.227 148.010  1.00  0.00     0.030 C
HETATM   12  C17 UNL     1      77.022  89.095 146.859  1.00  0.00     0.003 C
HETATM   13  C18 UNL     1      77.056  90.552 147.295  1.00  0.00     0.030 C
HETATM   14  C19 UNL     1      78.076  90.747 148.404  1.00  0.00     0.272 C
ENDBRANCH   8   9
ENDBRANCH   7   8
ENDBRANCH   6   7
ENDBRANCH   5   6
ENDBRANCH   4   5
ENDBRANCH   3   4
ENDBRANCH   2   3
BRANCH   2  15
HETATM   15  C20 UNL     1      84.031  89.438 148.388  1.00  0.00     0.106 C
BRANCH  15  16
HETATM   16  C21 UNL     1      85.098  90.449 148.185  1.00  0.00     0.036 A
HETATM   17  C22 UNL     1      85.487  90.959 146.973  1.00  0.00     0.106 A
HETATM   18  N3  UNL     1      86.454  91.889 146.854  1.00  0.00    -0.349 N
HETATM   19  C23 UNL     1      87.103  92.382 147.903  1.00  0.00     0.134 A
ATOM     20  H3  UNL     1      86.698  92.227 145.923  1.00  0.00     0.166 HD
HETATM   21  N5  UNL     1      86.727  91.885 149.118  1.00  0.00    -0.328 N
HETATM   22  C30 UNL     1      85.786  90.974 149.288  1.00  0.00     0.131 A
ATOM     23  H5  UNL     1      87.204  92.239 149.947  1.00  0.00     0.168 HD
HETATM   24  N6  UNL     1      85.441  90.492 150.568  1.00  0.00    -0.082 NA
BRANCH  19  25
HETATM   25  C24 UNL     1      88.165  93.388 147.851  1.00  0.00     0.082 A
HETATM   26  N4  UNL     1      89.466  92.980 147.994  1.00  0.00    -0.362 N
HETATM   27  C25 UNL     1      90.489  93.834 147.952  1.00  0.00     0.088 A
ATOM     28  H4  UNL     1      89.658  91.988 148.136  1.00  0.00     0.165 HD
HETATM   29  C26 UNL     1      90.313  95.196 147.762  1.00  0.00     0.018 A
HETATM   30  C27 UNL     1      89.029  95.636 147.615  1.00  0.00     0.010 A
HETATM   31  C28 UNL     1      87.979  94.724 147.663  1.00  0.00    -0.031 A
HETATM   32  C29 UNL     1      86.601  95.250 147.499  1.00  0.00     0.050 C
ENDBRANCH  19  25
ENDBRANCH  15  16
ENDBRANCH   2  15
BRANCH   1  33
HETATM   33  C7  UNL     1      83.057  87.423 150.632  1.00  0.00    -0.004 A
HETATM   34  C2  UNL     1      82.290  86.298 150.255  1.00  0.00     0.011 A
HETATM   35  C3  UNL     1      82.667  85.027 150.585  1.00  0.00     0.019 A
HETATM   36  C4  UNL     1      83.816  84.787 151.301  1.00  0.00     0.001 A
HETATM   37  C5  UNL     1      84.590  85.848 151.685  1.00  0.00     0.001 A
HETATM   38  C6  UNL     1      84.176  87.128 151.334  1.00  0.00     0.014 A
BRANCH  34  39
HETATM   39  S1  UNL     1      80.779  86.503 149.322  1.00  0.00    -0.134 SA
HETATM   40  C1  UNL     1      79.950  84.926 149.076  1.00  0.00     0.095 C
ENDBRANCH  34  39
ENDBRANCH   1  33
TORSDOF 12
ENDMDL