MODEL 1
REMARK VINA RESULT: -9.767082496      0.000      0.000
REMARK  14 active torsions:
REMARK  status: ('A' for Active; 'I' for Inactive)
REMARK    1  A    between atoms: C2_2  and  O2_4
REMARK    2  A    between atoms: O2_4  and  C3_5
REMARK    3  A    between atoms: C3_5  and  C4_6
REMARK    4  A    between atoms: C4_6  and  N1_7
REMARK    5  A    between atoms: N1_7  and  C5_9
REMARK    6  A    between atoms: C5_9  and  C6_10
REMARK    7  A    between atoms: C6_10  and  C7_11
REMARK    8  A    between atoms: C7_11  and  C8_12
REMARK    9  A    between atoms: C17_21  and  C18_22
REMARK   10  A    between atoms: C18_22  and  N2_23
REMARK   11  A    between atoms: C20_25  and  C21_26
REMARK   12  A    between atoms: C21_26  and  S1_27
REMARK   13  A    between atoms: S1_27  and  C22_28
REMARK   14  A    between atoms: C22_28  and  C23_29
ROOT
HETATM    1  C5  UNL     1      83.332  90.361 149.205  1.00  0.00     0.029 C
HETATM    2  C14 UNL     1      83.734  90.916 150.526  1.00  0.00     0.031 C
HETATM    3  C15 UNL     1      85.166  91.389 150.629  1.00  0.00     0.003 C
HETATM    4  C16 UNL     1      85.436  92.341 149.492  1.00  0.00     0.006 C
HETATM    5  C17 UNL     1      85.400  91.469 148.235  1.00  0.00     0.008 C
HETATM    6  C29 UNL     1      83.969  91.113 148.042  1.00  0.00     0.037 C
ENDROOT
BRANCH   5   7
HETATM    7  C18 UNL     1      85.805  92.298 147.043  1.00  0.00     0.154 C
BRANCH   7   8
HETATM    8  N2  UNL     1      86.921  93.154 147.226  1.00  0.00    -0.287 N
HETATM    9  C19 UNL     1      88.189  92.844 147.539  1.00  0.00     0.138 A
HETATM   10  C20 UNL     1      88.927  94.007 147.608  1.00  0.00     0.053 A
HETATM   11  N3  UNL     1      88.065  94.988 147.330  1.00  0.00    -0.288 N
HETATM   12  N4  UNL     1      86.881  94.483 147.103  1.00  0.00    -0.241 N
ATOM     13  H3  UNL     1      88.296  95.980 147.298  1.00  0.00     0.188 HD
ATOM     14  H4  UNL     1      86.050  95.025 146.869  1.00  0.00     0.208 HD
BRANCH  10  15
HETATM   15  C21 UNL     1      90.357  94.192 147.923  1.00  0.00     0.134 C
BRANCH  15  16
HETATM   16  S1  UNL     1      91.343  92.725 147.672  1.00  0.00    -0.158 SA
BRANCH  16  17
HETATM   17  C22 UNL     1      92.270  92.289 149.154  1.00  0.00     0.112 C
BRANCH  17  18
HETATM   18  C23 UNL     1      93.579  91.663 148.832  1.00  0.00    -0.049 A
HETATM   19  C24 UNL     1      94.701  91.938 149.536  1.00  0.00     0.008 A
HETATM   20  C25 UNL     1      95.893  91.339 149.205  1.00  0.00     0.001 A
HETATM   21  C26 UNL     1      95.932  90.463 148.154  1.00  0.00     0.000 A
HETATM   22  C27 UNL     1      94.802  90.154 147.405  1.00  0.00     0.001 A
HETATM   23  C28 UNL     1      93.632  90.773 147.770  1.00  0.00     0.008 A
ENDBRANCH  17  18
ENDBRANCH  16  17
ENDBRANCH  15  16
ENDBRANCH  10  15
ENDBRANCH   7   8
ENDBRANCH   5   7
BRANCH   1  24
HETATM   24  N1  UNL     1      81.948  90.483 148.983  1.00  0.00    -0.391 N
ATOM     25  H1  UNL     1      81.543  89.899 148.253  1.00  0.00     0.159 HD
BRANCH  24  26
HETATM   26  C4  UNL     1      81.094  91.317 149.663  1.00  0.00     0.083 C
BRANCH  26  27
HETATM   27  C3  UNL     1      79.624  91.134 149.626  1.00  0.00     0.222 C
BRANCH  27  28
HETATM   28  O2  UNL     1      79.014  91.176 148.377  1.00  0.00    -0.317 OA
BRANCH  28  29
HETATM   29  C2  UNL     1      77.668  91.224 148.111  1.00  0.00     0.255 C
HETATM   30  C1  UNL     1      76.730  91.916 149.073  1.00  0.00     0.126 C
HETATM   31  O1  UNL     1      77.245  90.689 147.067  1.00  0.00    -0.266 OA
ENDBRANCH  28  29
ENDBRANCH  27  28
ENDBRANCH  26  27
ENDBRANCH  24  26
ENDBRANCH   1  24
BRANCH   1  32
HETATM   32  C6  UNL     1      83.846  88.939 149.149  1.00  0.00     0.031 C
BRANCH  32  33
HETATM   33  C7  UNL     1      82.797  87.888 149.108  1.00  0.00     0.007 C
BRANCH  33  34
HETATM   34  C8  UNL     1      82.982  86.866 150.213  1.00  0.00    -0.014 C
HETATM   35  C9  UNL     1      82.775  85.468 149.712  1.00  0.00     0.004 C
HETATM   36  C10 UNL     1      82.921  84.480 150.849  1.00  0.00     0.000 C
HETATM   37  C11 UNL     1      84.277  84.676 151.477  1.00  0.00     0.000 C
HETATM   38  C12 UNL     1      84.346  86.062 152.075  1.00  0.00     0.000 C
HETATM   39  C13 UNL     1      84.273  87.059 150.956  1.00  0.00     0.004 C
ENDBRANCH  33  34
ENDBRANCH  32  33
ENDBRANCH   1  32
TORSDOF 14
ENDMDL