MODEL 3
REMARK VINA RESULT: -10.067037379      1.024      1.548
REMARK  14 active torsions:
REMARK  status: ('A' for Active; 'I' for Inactive)
REMARK    1  A    between atoms: C2_2  and  O1_3
REMARK    2  A    between atoms: O1_3  and  C3_4
REMARK    3  A    between atoms: C3_4  and  C4_5
REMARK    4  A    between atoms: C4_5  and  C5_6
REMARK    5  A    between atoms: C5_6  and  N1_7
REMARK    6  A    between atoms: C6_14  and  S1_15
REMARK    7  A    between atoms: S1_15  and  C7_16
REMARK    8  A    between atoms: C7_16  and  C8_17
REMARK    9  A    between atoms: C8_17  and  C9_18
REMARK   10  A    between atoms: C9_18  and  C10_19
REMARK   11  A    between atoms: C10_19  and  C11_20
REMARK   12  A    between atoms: C19_28  and  C20_29
REMARK   13  A    between atoms: C20_29  and  O2_30
REMARK   14  A    between atoms: C20_29  and  C21_32
ROOT
HETATM    1  C11 UNL     1      88.562  93.438 148.331  1.00  0.00    -0.039 C
HETATM    2  C12 UNL     1      87.501  93.771 149.333  1.00  0.00     0.015 C
HETATM    3  C13 UNL     1      88.875  94.751 147.610  1.00  0.00     0.014 C
HETATM    4  C14 UNL     1      90.315  95.094 147.878  1.00  0.00    -0.013 C
HETATM    5  C15 UNL     1      90.585  95.215 149.369  1.00  0.00     0.010 C
HETATM    6  C16 UNL     1      90.207  93.941 150.093  1.00  0.00    -0.009 C
HETATM    7  C17 UNL     1      91.345  93.405 150.938  1.00  0.00     0.005 C
HETATM    8  C18 UNL     1      91.967  92.170 150.268  1.00  0.00     0.008 C
HETATM    9  C19 UNL     1      92.259  92.572 148.864  1.00  0.00     0.023 C
HETATM   10  C27 UNL     1      90.950  92.774 148.079  1.00  0.00    -0.002 C
HETATM   11  C28 UNL     1      91.167  94.027 147.243  1.00  0.00     0.010 C
HETATM   12  C29 UNL     1      89.802  92.932 149.051  1.00  0.00     0.002 C
ENDROOT
BRANCH   1  13
HETATM   13  C10 UNL     1      88.090  92.465 147.325  1.00  0.00     0.010 C
BRANCH  13  14
HETATM   14  C9  UNL     1      86.927  91.593 147.577  1.00  0.00     0.002 C
BRANCH  14  15
HETATM   15  C8  UNL     1      85.709  91.720 146.783  1.00  0.00     0.010 C
BRANCH  15  16
HETATM   16  C7  UNL     1      84.465  91.470 147.574  1.00  0.00     0.082 C
BRANCH  16  17
HETATM   17  S1  UNL     1      84.269  89.984 148.474  1.00  0.00    -0.091 SA
BRANCH  17  18
HETATM   18  C6  UNL     1      82.818  89.715 149.409  1.00  0.00     0.178 A
HETATM   19  N1  UNL     1      82.288  88.457 149.603  1.00  0.00    -0.254 N
HETATM   20  N2  UNL     1      81.228  88.526 150.385  1.00  0.00    -0.224 N
HETATM   21  N3  UNL     1      81.046  89.791 150.710  1.00  0.00    -0.226 N
ATOM     22  H2  UNL     1      80.651  87.740 150.684  1.00  0.00     0.210 HD
HETATM   23  N4  UNL     1      81.994  90.497 150.129  1.00  0.00    -0.263 N
ATOM     24  H3  UNL     1      80.304  90.158 151.306  1.00  0.00     0.210 HD
ATOM     25  H4  UNL     1      82.090  91.508 150.213  1.00  0.00     0.190 HD
BRANCH  19  26
HETATM   26  C5  UNL     1      82.768  87.201 149.064  1.00  0.00     0.155 C
BRANCH  26  27
HETATM   27  C4  UNL     1      81.710  86.148 149.298  1.00  0.00     0.048 C
BRANCH  27  28
HETATM   28  C3  UNL     1      82.148  85.080 150.242  1.00  0.00     0.169 C
BRANCH  28  29
HETATM   29  O1  UNL     1      83.489  84.807 150.255  1.00  0.00    -0.391 OA
BRANCH  29  30
HETATM   30  C2  UNL     1      83.943  84.683 151.554  1.00  0.00     0.163 C
HETATM   31  C1  UNL     1      84.810  85.889 151.848  1.00  0.00     0.033 C
ENDBRANCH  29  30
ENDBRANCH  28  29
ENDBRANCH  27  28
ENDBRANCH  26  27
ENDBRANCH  19  26
ENDBRANCH  17  18
ENDBRANCH  16  17
ENDBRANCH  15  16
ENDBRANCH  14  15
ENDBRANCH  13  14
ENDBRANCH   1  13
BRANCH   9  32
HETATM   32  C20 UNL     1      93.113  91.636 148.080  1.00  0.00     0.155 C
BRANCH  32  33
HETATM   33  O2  UNL     1      92.346  90.539 147.676  1.00  0.00    -0.391 OA
ATOM     34  H2  UNL     1      92.078  90.045 148.442  1.00  0.00     0.210 HD
ENDBRANCH  32  33
BRANCH  32  35
HETATM   35  C21 UNL     1      94.349  91.215 148.735  1.00  0.00    -0.029 A
HETATM   36  C22 UNL     1      95.148  92.046 149.482  1.00  0.00     0.010 A
HETATM   37  C23 UNL     1      96.304  91.604 150.087  1.00  0.00     0.001 A
HETATM   38  C24 UNL     1      96.695  90.291 149.953  1.00  0.00     0.000 A
HETATM   39  C25 UNL     1      95.906  89.422 149.200  1.00  0.00     0.001 A
HETATM   40  C26 UNL     1      94.757  89.881 148.605  1.00  0.00     0.010 A
ENDBRANCH  32  35
ENDBRANCH   9  32
TORSDOF 14
ENDMDL