MODEL 4
REMARK VINA RESULT: -9.627843045      1.505      2.777
REMARK  13 active torsions:
REMARK  status: ('A' for Active; 'I' for Inactive)
REMARK    1  A    between atoms: N2_5  and  C4_6
REMARK    2  A    between atoms: C7_9  and  N3_10
REMARK    3  A    between atoms: N4_12  and  C8_14
REMARK    4  A    between atoms: C11_17  and  O1_18
REMARK    5  A    between atoms: O1_18  and  C12_19
REMARK    6  A    between atoms: C12_19  and  C13_20
REMARK       I    between atoms: C13_20  and  N5_22
REMARK    7  A    between atoms: N5_22  and  C14_24
REMARK    8  A    between atoms: C14_24  and  C15_25
REMARK    9  A    between atoms: C15_25  and  C16_26
REMARK   10  A    between atoms: C16_26  and  C17_27
REMARK   11  A    between atoms: C17_27  and  C18_28
REMARK   12  A    between atoms: C18_28  and  C19_29
REMARK   13  A    between atoms: C19_29  and  C20_30
ROOT
HETATM    1  C8  UNL     1      87.813  94.443 148.054  1.00  0.00     0.048 A
HETATM    2  C9  UNL     1      87.830  93.358 148.899  1.00  0.00     0.034 A
HETATM    3  C10 UNL     1      86.947  92.303 148.842  1.00  0.00     0.039 A
HETATM    4  C11 UNL     1      85.946  92.314 147.857  1.00  0.00     0.069 A
HETATM    5  C25 UNL     1      85.911  93.385 147.003  1.00  0.00     0.039 A
HETATM    6  C26 UNL     1      86.803  94.423 147.082  1.00  0.00     0.034 A
ENDROOT
BRANCH   1   7
HETATM    7  N4  UNL     1      88.678  95.542 148.089  1.00  0.00    -0.300 N
HETATM    8  N3  UNL     1      89.870  95.537 148.235  1.00  0.00    -0.300 N
ATOM      9  H3  UNL     1      90.263  96.479 148.223  1.00  0.00     0.187 HD
ATOM     10  H4  UNL     1      88.243  96.459 147.977  1.00  0.00     0.187 HD
BRANCH   8  11
HETATM   11  C7  UNL     1      90.851  94.557 148.418  1.00  0.00     0.048 A
HETATM   12  C6  UNL     1      91.200  93.655 147.410  1.00  0.00     0.033 A
HETATM   13  C5  UNL     1      92.150  92.679 147.600  1.00  0.00     0.031 A
HETATM   14  C4  UNL     1      92.828  92.529 148.816  1.00  0.00     0.030 A
HETATM   15  C28 UNL     1      92.474  93.434 149.813  1.00  0.00     0.031 A
HETATM   16  C27 UNL     1      91.515  94.414 149.613  1.00  0.00     0.033 A
BRANCH  14  17
HETATM   17  N2  UNL     1      93.775  91.507 149.001  1.00  0.00    -0.378 N
HETATM   18  C3  UNL     1      95.139  91.803 149.352  1.00  0.00     0.142 C
HETATM   19  C2  UNL     1      96.019  90.816 148.629  1.00  0.00     0.136 C
HETATM   20  N1  UNL     1      95.450  90.195 147.492  1.00  0.00    -0.414 N
HETATM   21  C1  UNL     1      96.309  89.715 146.488  1.00  0.00     0.143 C
HETATM   22  C30 UNL     1      94.228  89.486 147.721  1.00  0.00     0.136 C
HETATM   23  C29 UNL     1      93.430  90.114 148.851  1.00  0.00     0.142 C
ENDBRANCH  14  17
ENDBRANCH   8  11
ENDBRANCH   1   7
BRANCH   4  24
HETATM   24  O1  UNL     1      85.065  91.284 147.777  1.00  0.00    -0.342 OA
BRANCH  24  25
HETATM   25  C12 UNL     1      83.730  91.253 148.095  1.00  0.00     0.278 C
BRANCH  25  26
HETATM   26  C13 UNL     1      83.309  90.361 149.183  1.00  0.00     0.241 C
HETATM   27  O2  UNL     1      82.762  90.927 150.202  1.00  0.00    -0.271 OA
HETATM   28  N5  UNL     1      83.472  88.963 149.141  1.00  0.00    -0.359 N
ATOM     29  H5  UNL     1      83.915  88.540 148.325  1.00  0.00     0.162 HD
BRANCH  28  30
HETATM   30  C14 UNL     1      83.034  88.118 150.212  1.00  0.00     0.122 C
BRANCH  30  31
HETATM   31  C15 UNL     1      84.007  87.155 150.768  1.00  0.00     0.020 C
BRANCH  31  32
HETATM   32  C16 UNL     1      83.361  86.144 151.654  1.00  0.00     0.002 C
BRANCH  32  33
HETATM   33  C17 UNL     1      83.590  84.706 151.214  1.00  0.00     0.000 C
BRANCH  33  34
HETATM   34  C18 UNL     1      82.878  84.382 149.921  1.00  0.00     0.000 C
BRANCH  34  35
HETATM   35  C19 UNL     1      81.659  83.524 150.158  1.00  0.00     0.004 C
BRANCH  35  36
HETATM   36  C20 UNL     1      80.372  84.290 149.959  1.00  0.00    -0.014 C
HETATM   37  C21 UNL     1      79.931  84.989 151.226  1.00  0.00     0.004 C
HETATM   38  C22 UNL     1      78.976  86.035 150.711  1.00  0.00     0.000 C
HETATM   39  C23 UNL     1      79.757  86.598 149.524  1.00  0.00     0.000 C
HETATM   40  C24 UNL     1      80.616  85.450 149.020  1.00  0.00     0.004 C
ENDBRANCH  35  36
ENDBRANCH  34  35
ENDBRANCH  33  34
ENDBRANCH  32  33
ENDBRANCH  31  32
ENDBRANCH  30  31
ENDBRANCH  28  30
ENDBRANCH  25  26
ENDBRANCH  24  25
ENDBRANCH   4  24
TORSDOF 13
ENDMDL