MODEL 5
REMARK VINA RESULT: -5.119267006      1.881      2.463
REMARK  6 active torsions:
REMARK  status: ('A' for Active; 'I' for Inactive)
REMARK    1  A    between atoms: N1_2  and  C2_4
REMARK    2  A    between atoms: C2_4  and  C3_5
REMARK    3  A    between atoms: C2_4  and  C4_10
REMARK    4  A    between atoms: C3_5  and  N2_6
REMARK    5  A    between atoms: C4_10  and  N3_11
REMARK    6  A    between atoms: C4_10  and  C5_15
ROOT
HETATM    1  C4  UNL     1     -40.790  12.906  10.336  1.00  0.00     0.211 C
ENDROOT
BRANCH   1   2
HETATM    2  C2  UNL     1     -41.731  13.307  11.383  1.00  0.00     0.132 C
BRANCH   2   3
HETATM    3  N1  UNL     1     -42.984  12.601  11.206  1.00  0.00    -0.418 N
HETATM    4  C1  UNL     1     -43.217  11.502  12.057  1.00  0.00     0.140 C
ATOM      5  H1  UNL     1     -43.664  12.885  10.500  1.00  0.00     0.153 HD
ENDBRANCH   2   3
BRANCH   2   6
HETATM    6  C3  UNL     1     -41.969  14.732  11.644  1.00  0.00     0.256 C
BRANCH   6   7
HETATM    7  N2  UNL     1     -42.346  15.130  12.955  1.00  0.00    -0.077 N
ATOM      8  H23 UNL     1     -42.146  14.368  13.603  1.00  0.00     0.274 HD
ATOM      9  H22 UNL     1     -41.696  15.844  13.284  1.00  0.00     0.274 HD
ATOM     10  H21 UNL     1     -43.300  15.455  13.111  1.00  0.00     0.274 HD
ENDBRANCH   6   7
ENDBRANCH   2   6
ENDBRANCH   1   2
BRANCH   1  11
HETATM   11  N3  UNL     1     -41.525  12.728   9.094  1.00  0.00    -0.073 N
ATOM     12  H33 UNL     1     -42.478  12.399   9.248  1.00  0.00     0.274 HD
ATOM     13  H32 UNL     1     -41.754  13.615   8.644  1.00  0.00     0.274 HD
ATOM     14  H31 UNL     1     -40.992  12.107   8.486  1.00  0.00     0.274 HD
ENDBRANCH   1  11
BRANCH   1  15
HETATM   15  C5  UNL     1     -39.927  11.736  10.542  1.00  0.00     0.021 C
HETATM   16  C6  UNL     1     -38.531  12.077  10.020  1.00  0.00     0.034 C
HETATM   17  C7  UNL     1     -38.061  11.064   8.996  1.00  0.00     0.232 C
HETATM   18  N4  UNL     1     -38.098   9.721   9.494  1.00  0.00    -0.075 N
HETATM   19  C8  UNL     1     -39.288   9.418  10.235  1.00  0.00     0.232 C
ATOM     20  H42 UNL     1     -37.964   9.052   8.736  1.00  0.00     0.277 HD
ATOM     21  H41 UNL     1     -37.266   9.519  10.048  1.00  0.00     0.277 HD
HETATM   22  C9  UNL     1     -40.336  10.477   9.850  1.00  0.00     0.034 C
ENDBRANCH   1  15
TORSDOF 6
ENDMDL