MODEL 1
REMARK VINA RESULT: -5.348764180      0.000      0.000
REMARK  6 active torsions:
REMARK  status: ('A' for Active; 'I' for Inactive)
REMARK    1  A    between atoms: N1_2  and  C2_5
REMARK    2  A    between atoms: C2_5  and  C3_6
REMARK    3  A    between atoms: C4_7  and  N2_8
REMARK    4  A    between atoms: C7_17  and  C8_18
REMARK    5  A    between atoms: C8_18  and  C9_19
REMARK    6  A    between atoms: C9_19  and  N4_20
ROOT
HETATM    1  C3  UNL     1     -41.560  12.175  11.383  1.00  0.00     0.072 C
HETATM    2  C4  UNL     1     -40.609  11.131  10.850  1.00  0.00     0.192 C
HETATM    3  C5  UNL     1     -40.965  10.712   9.441  1.00  0.00     0.060 C
HETATM    4  C6  UNL     1     -40.645  11.926   8.559  1.00  0.00     0.235 C
HETATM    5  N3  UNL     1     -40.913  13.142   9.306  1.00  0.00    -0.070 N
ATOM      6  H31 UNL     1     -41.040  13.945   8.690  1.00  0.00     0.277 HD
ATOM      7  H32 UNL     1     -40.088  13.465   9.810  1.00  0.00     0.277 HD
HETATM    8  C7  UNL     1     -42.062  12.955  10.200  1.00  0.00     0.195 C
ENDROOT
BRANCH   8   9
HETATM    9  C8  UNL     1     -42.688  14.261  10.549  1.00  0.00     0.060 C
BRANCH   9  10
HETATM   10  C9  UNL     1     -41.819  15.192  11.327  1.00  0.00     0.231 C
BRANCH  10  11
HETATM   11  N4  UNL     1     -42.419  15.440  12.648  1.00  0.00    -0.079 N
ATOM     12  H43 UNL     1     -43.438  15.441  12.614  1.00  0.00     0.274 HD
ATOM     13  H42 UNL     1     -42.294  14.649  13.282  1.00  0.00     0.274 HD
ATOM     14  H41 UNL     1     -42.046  16.306  13.037  1.00  0.00     0.274 HD
ENDBRANCH  10  11
ENDBRANCH   9  10
ENDBRANCH   8   9
BRANCH   1  15
HETATM   15  C2  UNL     1     -42.643  11.639  12.255  1.00  0.00     0.240 C
BRANCH  15  16
HETATM   16  N1  UNL     1     -42.670  12.115  13.597  1.00  0.00    -0.079 N
HETATM   17  C1  UNL     1     -43.935  11.640  14.183  1.00  0.00     0.267 C
ATOM     18  H12 UNL     1     -42.545  13.125  13.671  1.00  0.00     0.276 HD
ATOM     19  H11 UNL     1     -41.849  11.846  14.138  1.00  0.00     0.276 HD
ENDBRANCH  15  16
ENDBRANCH   1  15
BRANCH   2  20
HETATM   20  N2  UNL     1     -40.520   9.961  11.681  1.00  0.00    -0.074 N
ATOM     21  H23 UNL     1     -39.928  10.139  12.493  1.00  0.00     0.274 HD
ATOM     22  H22 UNL     1     -41.407   9.784  12.153  1.00  0.00     0.274 HD
ATOM     23  H21 UNL     1     -40.206   9.130  11.180  1.00  0.00     0.274 HD
ENDBRANCH   2  20
TORSDOF 6
ENDMDL