MODEL 3
REMARK VINA RESULT: -5.127457788      1.889      3.921
REMARK  8 active torsions:
REMARK  status: ('A' for Active; 'I' for Inactive)
REMARK    1  A    between atoms: N1_1  and  C1_5
REMARK    2  A    between atoms: C1_5  and  C2_6
REMARK    3  A    between atoms: C2_6  and  C3_7
REMARK    4  A    between atoms: C3_7  and  C4_8
REMARK    5  A    between atoms: C4_8  and  C5_9
REMARK    6  A    between atoms: C5_9  and  N2_10
REMARK    7  A    between atoms: C5_9  and  C6_14
REMARK    8  A    between atoms: C9_20  and  N4_21
ROOT
HETATM    1  C5  UNL     1     -42.648  12.004  11.158  1.00  0.00     0.191 C
ENDROOT
BRANCH   1   2
HETATM    2  C4  UNL     1     -43.477  12.693  10.102  1.00  0.00     0.033 C
BRANCH   2   3
HETATM    3  C3  UNL     1     -43.116  14.128   9.916  1.00  0.00     0.004 C
BRANCH   3   4
HETATM    4  C2  UNL     1     -41.916  14.557  10.719  1.00  0.00     0.027 C
BRANCH   4   5
HETATM    5  C1  UNL     1     -42.228  15.627  11.716  1.00  0.00     0.229 C
BRANCH   5   6
HETATM    6  N1  UNL     1     -42.406  15.121  13.058  1.00  0.00    -0.079 N
ATOM      7  H13 UNL     1     -43.210  14.496  13.106  1.00  0.00     0.274 HD
ATOM      8  H12 UNL     1     -41.665  14.461  13.298  1.00  0.00     0.274 HD
ATOM      9  H11 UNL     1     -42.476  15.857  13.759  1.00  0.00     0.274 HD
ENDBRANCH   5   6
ENDBRANCH   4   5
ENDBRANCH   3   4
ENDBRANCH   2   3
ENDBRANCH   1   2
BRANCH   1  10
HETATM   10  N2  UNL     1     -43.440  11.524  12.255  1.00  0.00    -0.075 N
ATOM     11  H23 UNL     1     -44.414  11.811  12.158  1.00  0.00     0.274 HD
ATOM     12  H22 UNL     1     -43.562  10.512  12.204  1.00  0.00     0.274 HD
ATOM     13  H21 UNL     1     -43.065  11.804  13.162  1.00  0.00     0.274 HD
ENDBRANCH   1  10
BRANCH   1  14
HETATM   14  C6  UNL     1     -41.832  10.878  10.621  1.00  0.00     0.073 C
HETATM   15  C7  UNL     1     -41.837  10.778   9.129  1.00  0.00     0.241 C
HETATM   16  N3  UNL     1     -40.612  10.032   8.861  1.00  0.00    -0.073 N
HETATM   17  C8  UNL     1     -39.630  10.786   9.632  1.00  0.00     0.265 C
ATOM     18  H32 UNL     1     -40.656   9.035   9.071  1.00  0.00     0.277 HD
ATOM     19  H31 UNL     1     -40.386   9.910   7.873  1.00  0.00     0.277 HD
HETATM   20  C9  UNL     1     -40.367  10.965  10.963  1.00  0.00     0.216 C
BRANCH  20  21
HETATM   21  N4  UNL     1     -40.034   9.791  11.758  1.00  0.00    -0.073 N
ATOM     22  H43 UNL     1     -40.195   9.927  12.756  1.00  0.00     0.274 HD
ATOM     23  H42 UNL     1     -40.689   9.021  11.621  1.00  0.00     0.274 HD
ATOM     24  H41 UNL     1     -39.070   9.538  11.540  1.00  0.00     0.274 HD
ENDBRANCH  20  21
ENDBRANCH   1  14
TORSDOF 8
ENDMDL