MODEL 2
REMARK VINA RESULT: -4.988749110      1.958      4.156
REMARK  7 active torsions:
REMARK  status: ('A' for Active; 'I' for Inactive)
REMARK    1  A    between atoms: N1_1  and  C1_5
REMARK    2  A    between atoms: C1_5  and  C2_6
REMARK    3  A    between atoms: C2_6  and  C3_7
REMARK    4  A    between atoms: C3_7  and  N2_8
REMARK    5  A    between atoms: N2_8  and  C4_10
REMARK    6  A    between atoms: C4_10  and  C5_11
REMARK    7  A    between atoms: C8_16  and  N4_17
ROOT
HETATM    1  C5  UNL     1     -41.926  10.884   9.685  1.00  0.00     0.022 C
HETATM    2  C6  UNL     1     -41.043  11.416   8.614  1.00  0.00     0.120 C
HETATM    3  N3  UNL     1     -40.004  12.284   9.034  1.00  0.00    -0.419 N
ATOM      4  H3  UNL     1     -39.789  13.148   8.536  1.00  0.00     0.153 HD
HETATM    5  C7  UNL     1     -39.278  11.884  10.186  1.00  0.00     0.146 C
HETATM    6  C8  UNL     1     -39.820  10.677  10.904  1.00  0.00     0.201 C
HETATM    7  C9  UNL     1     -41.320  10.861  11.046  1.00  0.00     0.042 C
ENDROOT
BRANCH   1   8
HETATM    8  C4  UNL     1     -43.289  11.605   9.653  1.00  0.00     0.120 C
BRANCH   8   9
HETATM    9  N2  UNL     1     -43.176  12.667  10.594  1.00  0.00    -0.421 N
ATOM     10  H2  UNL     1     -43.150  12.489  11.598  1.00  0.00     0.153 HD
BRANCH   9  11
HETATM   11  C3  UNL     1     -43.101  13.991  10.067  1.00  0.00     0.115 C
BRANCH  11  12
HETATM   12  C2  UNL     1     -41.971  14.749  10.751  1.00  0.00     0.046 C
BRANCH  12  13
HETATM   13  C1  UNL     1     -41.790  14.313  12.172  1.00  0.00     0.231 C
BRANCH  13  14
HETATM   14  N1  UNL     1     -42.403  15.323  13.032  1.00  0.00    -0.079 N
ATOM     15  H13 UNL     1     -43.422  15.298  13.007  1.00  0.00     0.274 HD
ATOM     16  H12 UNL     1     -42.286  15.121  14.025  1.00  0.00     0.274 HD
ATOM     17  H11 UNL     1     -42.024  16.232  12.766  1.00  0.00     0.274 HD
ENDBRANCH  13  14
ENDBRANCH  12  13
ENDBRANCH  11  12
ENDBRANCH   9  11
ENDBRANCH   8   9
ENDBRANCH   1   8
BRANCH   6  18
HETATM   18  N4  UNL     1     -39.468   9.425  10.321  1.00  0.00    -0.073 N
ATOM     19  H43 UNL     1     -40.298   8.958   9.957  1.00  0.00     0.274 HD
ATOM     20  H42 UNL     1     -38.952   9.571   9.454  1.00  0.00     0.274 HD
ATOM     21  H41 UNL     1     -38.952   8.796  10.936  1.00  0.00     0.274 HD
ENDBRANCH   6  18
TORSDOF 7
ENDMDL