MODEL 2
REMARK VINA RESULT: -5.606741720      1.423      1.661
REMARK  7 active torsions:
REMARK  status: ('A' for Active; 'I' for Inactive)
REMARK    1  A    between atoms: N1_1  and  N2_4
REMARK    2  A    between atoms: N3_6  and  C1_8
REMARK    3  A    between atoms: C1_8  and  C2_9
REMARK    4  A    between atoms: C2_9  and  N4_10
REMARK    5  A    between atoms: N4_10  and  C3_13
REMARK    6  A    between atoms: C3_13  and  C4_14
REMARK    7  A    between atoms: N5_18  and  N6_20
ROOT
HETATM    1  N4  UNL     1     -43.012  11.800  10.139  1.00  0.00    -0.072 N
ATOM      2  H41 UNL     1     -43.653  11.388   9.461  1.00  0.00     0.277 HD
ATOM      3  H42 UNL     1     -42.196  11.212   9.975  1.00  0.00     0.277 HD
ENDROOT
BRANCH   1   4
HETATM    4  C2  UNL     1     -43.508  11.634  11.488  1.00  0.00     0.253 C
BRANCH   4   5
HETATM    5  C1  UNL     1     -42.343  11.803  12.471  1.00  0.00     0.168 C
BRANCH   5   6
HETATM    6  N3  UNL     1     -42.719  12.820  13.435  1.00  0.00    -0.321 N
HETATM    7  N2  UNL     1     -42.294  13.968  13.298  1.00  0.00    -0.254 N
ATOM      8  H2  UNL     1     -41.288  13.872  13.443  1.00  0.00     0.207 HD
ATOM      9  H3  UNL     1     -43.330  12.587  14.217  1.00  0.00     0.181 HD
BRANCH   7  10
HETATM   10  N1  UNL     1     -42.446  15.187  13.076  1.00  0.00    -0.331 N
ATOM     11  H12 UNL     1     -43.064  15.168  12.264  1.00  0.00     0.178 HD
ATOM     12  H11 UNL     1     -42.278  16.173  13.280  1.00  0.00     0.178 HD
ENDBRANCH   7  10
ENDBRANCH   5   6
ENDBRANCH   4   5
ENDBRANCH   1   4
BRANCH   1  13
HETATM   13  C3  UNL     1     -42.732  13.167   9.816  1.00  0.00     0.257 C
BRANCH  13  14
HETATM   14  C4  UNL     1     -41.327  13.372   9.309  1.00  0.00     0.108 C
HETATM   15  C5  UNL     1     -40.546  14.336  10.161  1.00  0.00     0.034 C
HETATM   16  C6  UNL     1     -39.118  14.041   9.694  1.00  0.00     0.079 C
HETATM   17  C7  UNL     1     -39.213  12.537   9.676  1.00  0.00     0.091 C
HETATM   18  N5  UNL     1     -38.232  11.770   9.935  1.00  0.00    -0.296 N
HETATM   19  N7  UNL     1     -40.539  12.176   9.335  1.00  0.00    -0.372 N
ATOM     20  H5  UNL     1     -38.386  10.763   9.899  1.00  0.00     0.187 HD
ATOM     21  H7  UNL     1     -40.874  11.232   9.142  1.00  0.00     0.161 HD
BRANCH  18  22
HETATM   22  N6  UNL     1     -36.965  12.228  10.262  1.00  0.00    -0.344 N
ATOM     23  H62 UNL     1     -36.905  12.984  10.944  1.00  0.00     0.176 HD
ATOM     24  H61 UNL     1     -36.107  11.850   9.861  1.00  0.00     0.176 HD
ENDBRANCH  18  22
ENDBRANCH  13  14
ENDBRANCH   1  13
TORSDOF 7
ENDMDL