MODEL 5
REMARK VINA RESULT: -5.227118649      1.665      1.884
REMARK  6 active torsions:
REMARK  status: ('A' for Active; 'I' for Inactive)
REMARK    1  A    between atoms: C2_2  and  N1_3
REMARK    2  A    between atoms: C2_2  and  C3_7
REMARK    3  A    between atoms: C3_7  and  C4_8
REMARK    4  A    between atoms: C3_7  and  N3_13
REMARK    5  A    between atoms: C4_8  and  N2_9
REMARK    6  A    between atoms: N3_13  and  C5_15
ROOT
HETATM    1  C3  UNL     1     -41.664  13.264  11.195  1.00  0.00     0.132 C
ENDROOT
BRANCH   1   2
HETATM    2  C2  UNL     1     -42.989  13.385  10.404  1.00  0.00     0.203 C
HETATM    3  C1  UNL     1     -42.748  13.577   8.937  1.00  0.00     0.042 C
BRANCH   2   4
HETATM    4  N1  UNL     1     -43.839  12.254  10.690  1.00  0.00    -0.073 N
ATOM      5  H13 UNL     1     -44.178  11.826   9.828  1.00  0.00     0.274 HD
ATOM      6  H12 UNL     1     -43.297  11.475  11.061  1.00  0.00     0.274 HD
ATOM      7  H11 UNL     1     -44.615  12.487  11.311  1.00  0.00     0.274 HD
ENDBRANCH   2   4
ENDBRANCH   1   2
BRANCH   1   8
HETATM    8  C4  UNL     1     -41.962  13.942  12.508  1.00  0.00     0.256 C
BRANCH   8   9
HETATM    9  N2  UNL     1     -42.392  15.323  12.295  1.00  0.00    -0.077 N
ATOM     10  H23 UNL     1     -42.688  15.482  11.332  1.00  0.00     0.274 HD
ATOM     11  H22 UNL     1     -43.278  15.518  12.763  1.00  0.00     0.274 HD
ATOM     12  H21 UNL     1     -41.664  15.980  12.579  1.00  0.00     0.274 HD
ENDBRANCH   8   9
ENDBRANCH   1   8
BRANCH   1  13
HETATM   13  N3  UNL     1     -41.427  11.889  11.366  1.00  0.00    -0.409 N
ATOM     14  H3  UNL     1     -41.995  11.360  12.027  1.00  0.00     0.154 HD
BRANCH  13  15
HETATM   15  C5  UNL     1     -40.420  11.236  10.638  1.00  0.00     0.080 C
HETATM   16  C6  UNL     1     -39.756  10.056  11.298  1.00  0.00     0.044 C
HETATM   17  C7  UNL     1     -39.139   9.260  10.135  1.00  0.00     0.115 C
HETATM   18  N4  UNL     1     -38.056  10.061   9.645  1.00  0.00    -0.421 N
HETATM   19  C8  UNL     1     -38.427  11.371   9.203  1.00  0.00     0.115 C
ATOM     20  H4  UNL     1     -37.094   9.724   9.613  1.00  0.00     0.153 HD
HETATM   21  C9  UNL     1     -39.298  12.138  10.173  1.00  0.00     0.044 C
ENDBRANCH  13  15
ENDBRANCH   1  13
TORSDOF 6
ENDMDL