MODEL 1
REMARK VINA RESULT: -5.547958402      0.000      0.000
REMARK  9 active torsions:
REMARK  status: ('A' for Active; 'I' for Inactive)
REMARK    1  A    between atoms: N1_1  and  C1_5
REMARK    2  A    between atoms: C1_5  and  C2_6
REMARK    3  A    between atoms: C5_11  and  C6_12
REMARK    4  A    between atoms: C6_12  and  C7_13
REMARK    5  A    between atoms: C7_13  and  N3_14
REMARK    6  A    between atoms: C7_13  and  C8_18
REMARK    7  A    between atoms: C8_18  and  N4_19
REMARK    8  A    between atoms: C8_18  and  C9_23
REMARK    9  A    between atoms: C9_23  and  N5_24
ROOT
HETATM    1  C7  UNL     1     -42.366  10.891  10.801  1.00  0.00     0.220 C
ENDROOT
BRANCH   1   2
HETATM    2  C6  UNL     1     -42.074  11.808   9.676  1.00  0.00     0.087 C
BRANCH   2   3
HETATM    3  C5  UNL     1     -41.040  12.847   9.925  1.00  0.00    -0.010 C
HETATM    4  C2  UNL     1     -41.053  14.070  10.746  1.00  0.00     0.058 C
HETATM    5  C3  UNL     1     -40.065  14.949   9.962  1.00  0.00     0.032 C
HETATM    6  C4  UNL     1     -39.020  13.842   9.719  1.00  0.00     0.120 C
HETATM    7  N2  UNL     1     -39.875  12.761   9.366  1.00  0.00    -0.396 N
ATOM      8  H2  UNL     1     -39.600  12.001   8.743  1.00  0.00     0.159 HD
BRANCH   4   9
HETATM    9  C1  UNL     1     -42.353  14.774  10.874  1.00  0.00     0.240 C
BRANCH   9  10
HETATM   10  N1  UNL     1     -42.353  15.359  12.233  1.00  0.00    -0.079 N
ATOM     11  H13 UNL     1     -41.568  15.057  12.810  1.00  0.00     0.274 HD
ATOM     12  H12 UNL     1     -42.137  16.356  12.251  1.00  0.00     0.274 HD
ATOM     13  H11 UNL     1     -43.265  15.129  12.628  1.00  0.00     0.274 HD
ENDBRANCH   9  10
ENDBRANCH   4   9
ENDBRANCH   2   3
ENDBRANCH   1   2
BRANCH   1  14
HETATM   14  N3  UNL     1     -41.284  10.740  11.743  1.00  0.00    -0.073 N
ATOM     15  H33 UNL     1     -40.386  10.851  11.274  1.00  0.00     0.274 HD
ATOM     16  H32 UNL     1     -41.250  11.538  12.377  1.00  0.00     0.274 HD
ATOM     17  H31 UNL     1     -41.304   9.867  12.271  1.00  0.00     0.274 HD
ENDBRANCH   1  14
BRANCH   1  18
HETATM   18  C8  UNL     1     -43.583  11.509  11.527  1.00  0.00     0.239 C
BRANCH  18  19
HETATM   19  N4  UNL     1     -44.661  11.458  10.576  1.00  0.00    -0.071 N
ATOM     20  H43 UNL     1     -44.706  12.270   9.961  1.00  0.00     0.274 HD
ATOM     21  H42 UNL     1     -44.530  10.760   9.844  1.00  0.00     0.274 HD
ATOM     22  H41 UNL     1     -45.506  11.316  11.131  1.00  0.00     0.274 HD
ENDBRANCH  18  19
BRANCH  18  23
HETATM   23  C9  UNL     1     -43.927  10.730  12.763  1.00  0.00     0.264 C
BRANCH  23  24
HETATM   24  N5  UNL     1     -43.791  11.497  13.983  1.00  0.00    -0.077 N
ATOM     25  H53 UNL     1     -42.835  11.833  14.093  1.00  0.00     0.274 HD
ATOM     26  H52 UNL     1     -44.276  12.390  13.904  1.00  0.00     0.274 HD
ATOM     27  H51 UNL     1     -44.095  10.993  14.816  1.00  0.00     0.274 HD
ENDBRANCH  23  24
ENDBRANCH  18  23
ENDBRANCH   1  18
TORSDOF 9
ENDMDL