MODEL 1
REMARK VINA RESULT: -5.333325258      0.000      0.000
REMARK  7 active torsions:
REMARK  status: ('A' for Active; 'I' for Inactive)
REMARK    1  A    between atoms: C2_2  and  C3_3
REMARK    2  A    between atoms: C3_3  and  N1_4
REMARK    3  A    between atoms: N1_4  and  C4_6
REMARK    4  A    between atoms: C5_11  and  N4_12
REMARK    5  A    between atoms: N4_12  and  C6_14
REMARK    6  A    between atoms: C6_14  and  C7_15
REMARK    7  A    between atoms: C7_15  and  N5_16
ROOT
HETATM    1  C4  UNL     1     -40.631  14.264  10.393  1.00  0.00     0.707 A
HETATM    2  N2  UNL     1     -41.444  15.082  11.070  1.00  0.00    -0.117 N
ATOM      3  H2  UNL     1     -41.239  16.047  11.333  1.00  0.00     0.206 HD
HETATM    4  N3  UNL     1     -42.557  14.427  11.340  1.00  0.00    -0.117 N
ATOM      5  H3  UNL     1     -43.356  14.806  11.848  1.00  0.00     0.206 HD
HETATM    6  C5  UNL     1     -42.475  13.186  10.842  1.00  0.00     0.707 A
HETATM    7  N6  UNL     1     -41.273  13.096  10.257  1.00  0.00    -0.020 N
ATOM      8  H6  UNL     1     -40.906  12.270   9.784  1.00  0.00     0.203 HD
ENDROOT
BRANCH   6   9
HETATM    9  N4  UNL     1     -43.410  12.277  10.937  1.00  0.00    -0.223 N
ATOM     10  H4  UNL     1     -44.327  12.407  10.509  1.00  0.00     0.177 HD
BRANCH   9  11
HETATM   11  C6  UNL     1     -43.082  11.077  11.677  1.00  0.00     0.165 C
BRANCH  11  12
HETATM   12  C7  UNL     1     -44.052  10.850  12.822  1.00  0.00     0.249 C
BRANCH  12  13
HETATM   13  N5  UNL     1     -43.607  11.583  13.980  1.00  0.00    -0.078 N
ATOM     14  H53 UNL     1     -42.720  11.231  14.341  1.00  0.00     0.274 HD
ATOM     15  H52 UNL     1     -43.303  12.528  13.744  1.00  0.00     0.274 HD
ATOM     16  H51 UNL     1     -44.341  11.579  14.687  1.00  0.00     0.274 HD
ENDBRANCH  12  13
ENDBRANCH  11  12
ENDBRANCH   9  11
ENDBRANCH   6   9
BRANCH   1  17
HETATM   17  N1  UNL     1     -39.459  14.557   9.962  1.00  0.00    -0.224 N
ATOM     18  H1  UNL     1     -39.055  15.459  10.213  1.00  0.00     0.177 HD
BRANCH  17  19
HETATM   19  C3  UNL     1     -38.701  13.670   9.148  1.00  0.00     0.138 C
BRANCH  19  20
HETATM   20  C2  UNL     1     -37.533  13.030   9.851  1.00  0.00     0.016 C
HETATM   21  C1  UNL     1     -37.892  11.666  10.408  1.00  0.00     0.006 C
ENDBRANCH  19  20
ENDBRANCH  17  19
ENDBRANCH   1  17
TORSDOF 7
ENDMDL