MODEL 2
REMARK VINA RESULT: -8.271596377      1.534      2.123
REMARK  5 active torsions:
REMARK  status: ('A' for Active; 'I' for Inactive)
REMARK    1  A    between atoms: N3_4  and  N4_6
REMARK    2  A    between atoms: N4_6  and  C2_7
REMARK    3  A    between atoms: C2_7  and  C3_8
REMARK    4  A    between atoms: C6_11  and  C7_12
REMARK    5  A    between atoms: N6_26  and  C19_27
ROOT
HETATM    1  C7  UNL     1      -8.090 -13.216  16.519  1.00  0.00     0.059 A
HETATM    2  C8  UNL     1      -7.231 -12.534  15.702  1.00  0.00     0.032 A
HETATM    3  C9  UNL     1      -6.344 -11.652  16.255  1.00  0.00     0.005 A
HETATM    4  C10 UNL     1      -6.346 -11.474  17.664  1.00  0.00     0.033 A
HETATM    5  C11 UNL     1      -7.197 -12.152  18.461  1.00  0.00     0.077 A
HETATM    6  C12 UNL     1      -7.315 -12.052  19.898  1.00  0.00     0.136 A
HETATM    7  N5  UNL     1      -8.275 -12.818  20.523  1.00  0.00    -0.339 N
ATOM      8  H5  UNL     1      -8.914 -13.455  20.048  1.00  0.00     0.167 HD
HETATM    9  C13 UNL     1      -8.249 -12.609  21.814  1.00  0.00     0.060 A
HETATM   10  C14 UNL     1      -9.026 -13.147  22.849  1.00  0.00     0.032 A
HETATM   11  C15 UNL     1      -8.759 -12.721  24.124  1.00  0.00     0.002 A
HETATM   12  C16 UNL     1      -7.761 -11.798  24.374  1.00  0.00     0.002 A
HETATM   13  C17 UNL     1      -7.012 -11.288  23.323  1.00  0.00     0.032 A
HETATM   14  C18 UNL     1      -7.246 -11.689  22.028  1.00  0.00     0.063 A
HETATM   15  N6  UNL     1      -6.664 -11.344  20.819  1.00  0.00    -0.325 N
HETATM   16  N7  UNL     1      -8.041 -13.008  17.810  1.00  0.00    -0.351 N
ATOM     17  H7  UNL     1      -8.697 -13.535  18.386  1.00  0.00     0.166 HD
ENDROOT
BRANCH  15  18
HETATM   18  C19 UNL     1      -5.574 -10.420  20.689  1.00  0.00     0.092 C
HETATM   19  C20 UNL     1      -5.967  -9.121  19.990  1.00  0.00     0.026 C
HETATM   20  C21 UNL     1      -4.946  -8.604  19.069  1.00  0.00     0.002 C
HETATM   21  C22 UNL     1      -3.531  -8.847  19.419  1.00  0.00     0.000 C
HETATM   22  C23 UNL     1      -3.232 -10.052  20.232  1.00  0.00     0.002 C
HETATM   23  C24 UNL     1      -4.369 -11.058  19.994  1.00  0.00     0.026 C
ENDBRANCH  15  18
BRANCH   1  24
HETATM   24  C6  UNL     1      -9.064 -14.175  15.991  1.00  0.00     0.059 A
HETATM   25  C5  UNL     1     -10.383 -13.819  15.825  1.00  0.00     0.033 A
HETATM   26  C4  UNL     1     -11.329 -14.695  15.332  1.00  0.00     0.017 A
HETATM   27  C3  UNL     1     -10.902 -15.963  15.006  1.00  0.00     0.010 A
HETATM   28  C25 UNL     1      -9.579 -16.307  15.177  1.00  0.00     0.102 A
HETATM   29  N8  UNL     1      -8.683 -15.425  15.661  1.00  0.00    -0.363 N
ATOM     30  H8  UNL     1      -7.710 -15.705  15.779  1.00  0.00     0.165 HD
BRANCH  27  31
HETATM   31  C2  UNL     1     -11.850 -16.974  14.467  1.00  0.00     0.221 C
BRANCH  31  32
HETATM   32  N4  UNL     1     -12.692 -16.749  13.645  1.00  0.00    -0.336 NA
BRANCH  32  33
HETATM   33  N3  UNL     1     -13.592 -16.526  12.772  1.00  0.00    -0.209 N
HETATM   34  C1  UNL     1     -13.842 -16.984  11.603  1.00  0.00     0.226 C
HETATM   35  N1  UNL     1     -14.954 -16.514  10.873  1.00  0.00    -0.065 NA
HETATM   36  N2  UNL     1     -13.005 -17.968  11.032  1.00  0.00    -0.065 NA
ATOM     37  H3  UNL     1     -14.267 -15.822  13.073  1.00  0.00     0.204 HD
ENDBRANCH  32  33
ENDBRANCH  31  32
ENDBRANCH  27  31
ENDBRANCH   1  24
TORSDOF 5
ENDMDL