MODEL 3
REMARK VINA RESULT: -9.878249534      1.276      1.311
REMARK  5 active torsions:
REMARK  status: ('A' for Active; 'I' for Inactive)
REMARK       I    between atoms: C1_2  and  N1_3
REMARK    1  A    between atoms: C1_2  and  C10_14
REMARK    2  A    between atoms: N1_3  and  C2_5
REMARK    3  A    between atoms: C13_18  and  C14_19
REMARK       I    between atoms: C14_19  and  N2_21
REMARK    4  A    between atoms: N2_21  and  S3_23
REMARK    5  A    between atoms: S3_23  and  C15_26
ROOT
HETATM    1  C10 UNL     1      -7.527 -13.123  16.555  1.00  0.00     0.055 A
HETATM    2  C11 UNL     1      -7.594 -14.291  15.882  1.00  0.00     0.026 A
HETATM    3  C12 UNL     1      -7.250 -14.296  14.567  1.00  0.00     0.051 A
HETATM    4  S2  UNL     1      -6.839 -12.684  14.274  1.00  0.00    -0.095 SA
HETATM    5  C13 UNL     1      -7.122 -12.016  15.874  1.00  0.00     0.089 A
ENDROOT
BRANCH   1   6
HETATM    6  C1  UNL     1      -7.822 -13.137  18.037  1.00  0.00     0.258 C
HETATM    7  O1  UNL     1      -8.440 -14.124  18.505  1.00  0.00    -0.267 OA
HETATM    8  N1  UNL     1      -7.418 -12.097  18.878  1.00  0.00    -0.317 N
ATOM      9  H1  UNL     1      -6.913 -11.322  18.449  1.00  0.00     0.169 HD
BRANCH   8  10
HETATM   10  C2  UNL     1      -7.644 -12.023  20.265  1.00  0.00     0.078 A
HETATM   11  C3  UNL     1      -8.273 -12.812  21.169  1.00  0.00     0.050 A
HETATM   12  C4  UNL     1      -8.214 -12.447  22.481  1.00  0.00    -0.016 A
HETATM   13  C5  UNL     1      -8.779 -13.128  23.575  1.00  0.00     0.013 A
HETATM   14  C9  UNL     1      -7.527 -11.318  22.784  1.00  0.00     0.017 A
HETATM   15  C6  UNL     1      -8.617 -12.642  24.854  1.00  0.00     0.001 A
HETATM   16  C7  UNL     1      -7.928 -11.511  25.143  1.00  0.00     0.001 A
HETATM   17  C8  UNL     1      -7.367 -10.827  24.091  1.00  0.00     0.020 A
HETATM   18  S1  UNL     1      -6.976 -10.771  21.269  1.00  0.00    -0.072 SA
ENDBRANCH   8  10
ENDBRANCH   1   6
BRANCH   5  19
HETATM   19  C14 UNL     1      -6.964 -10.615  16.217  1.00  0.00     0.273 C
HETATM   20  O2  UNL     1      -6.042 -10.338  17.065  1.00  0.00    -0.266 OA
HETATM   21  N2  UNL     1      -7.704  -9.559  15.716  1.00  0.00    -0.245 N
ATOM     22  H2  UNL     1      -8.447  -9.755  15.044  1.00  0.00     0.182 HD
BRANCH  21  23
HETATM   23  S3  UNL     1      -7.414  -7.903  16.191  1.00  0.00     0.265 S
HETATM   24  O3  UNL     1      -7.817  -7.060  15.023  1.00  0.00    -0.200 OA
HETATM   25  O4  UNL     1      -5.918  -7.761  16.440  1.00  0.00    -0.200 OA
BRANCH  23  26
HETATM   26  C15 UNL     1      -8.300  -7.433  17.589  1.00  0.00     0.080 A
HETATM   27  C16 UNL     1      -8.939  -6.190  17.699  1.00  0.00     0.025 A
HETATM   28  C17 UNL     1      -9.645  -5.890  18.823  1.00  0.00     0.002 A
HETATM   29  C18 UNL     1      -9.773  -6.758  19.883  1.00  0.00     0.000 A
HETATM   30  C19 UNL     1      -9.154  -7.988  19.801  1.00  0.00     0.002 A
HETATM   31  C20 UNL     1      -8.430  -8.297  18.652  1.00  0.00     0.025 A
ENDBRANCH  23  26
ENDBRANCH  21  23
ENDBRANCH   5  19
TORSDOF 5
ENDMDL