MODEL 5
REMARK VINA RESULT: -8.217881670      2.417      5.646
REMARK  7 active torsions:
REMARK  status: ('A' for Active; 'I' for Inactive)
REMARK    1  A    between atoms: C2_2  and  O2_4
REMARK    2  A    between atoms: O2_4  and  C3_5
REMARK    3  A    between atoms: C11_14  and  C13_16
REMARK    4  A    between atoms: C18_21  and  C19_22
REMARK    5  A    between atoms: C19_22  and  C20_23
REMARK    6  A    between atoms: C23_28  and  O6_29
REMARK    7  A    between atoms: O6_29  and  O7_30
ROOT
HETATM    1  C3  UNL     1      -8.643  -9.998  16.566  1.00  0.00     0.139 C
HETATM    2  C4  UNL     1      -8.733  -8.473  16.451  1.00  0.00     0.111 C
HETATM    3  C5  UNL     1      -7.873  -7.905  17.561  1.00  0.00     0.134 C
HETATM    4  O3  UNL     1      -8.213  -6.947  18.194  1.00  0.00    -0.297 OA
HETATM    5  C6  UNL     1      -6.591  -8.656  17.767  1.00  0.00     0.060 C
HETATM    6  C7  UNL     1      -5.722  -7.861  18.660  1.00  0.00     0.013 C
HETATM    7  C8  UNL     1      -4.461  -8.598  19.054  1.00  0.00     0.006 C
HETATM    8  C9  UNL     1      -4.720 -10.074  18.942  1.00  0.00    -0.010 C
HETATM    9  C10 UNL     1      -3.495 -10.895  19.252  1.00  0.00     0.011 C
HETATM   10  C11 UNL     1      -6.049 -10.588  19.358  1.00  0.00    -0.030 C
HETATM   11  C12 UNL     1      -5.989 -12.103  19.131  1.00  0.00     0.016 C
HETATM   12  C24 UNL     1      -6.895 -10.067  18.183  1.00  0.00     0.008 C
HETATM   13  C25 UNL     1      -8.293 -10.333  18.040  1.00  0.00     0.039 C
ENDROOT
BRANCH  10  14
HETATM   14  C13 UNL     1      -6.640 -10.324  20.655  1.00  0.00     0.033 C
HETATM   15  C14 UNL     1      -8.031  -9.766  20.590  1.00  0.00     0.009 C
HETATM   16  C15 UNL     1      -8.644  -9.818  21.962  1.00  0.00     0.013 C
HETATM   17  C16 UNL     1      -7.855 -10.835  22.672  1.00  0.00    -0.005 C
HETATM   18  C17 UNL     1      -7.555 -10.319  24.087  1.00  0.00     0.019 C
HETATM   19  C18 UNL     1      -8.661 -12.071  22.864  1.00  0.00     0.007 C
HETATM   20  C23 UNL     1      -6.611 -11.157  21.864  1.00  0.00     0.108 C
HETATM   21  C21 UNL     1      -7.557 -13.093  23.015  1.00  0.00     0.009 C
HETATM   22  C22 UNL     1      -6.668 -12.611  21.883  1.00  0.00     0.043 C
BRANCH  19  23
HETATM   23  C19 UNL     1      -9.600 -12.488  21.809  1.00  0.00     0.118 C
BRANCH  23  24
HETATM   24  C20 UNL     1     -10.275 -13.794  22.118  1.00  0.00     0.172 C
HETATM   25  O4  UNL     1     -10.626 -14.585  21.246  1.00  0.00    -0.648 OA
HETATM   26  O5  UNL     1     -10.505 -14.106  23.453  1.00  0.00    -0.648 OA
ENDBRANCH  23  24
ENDBRANCH  19  23
BRANCH  20  27
HETATM   27  O6  UNL     1      -5.519 -10.806  22.664  1.00  0.00    -0.231 OA
BRANCH  27  28
HETATM   28  O7  UNL     1      -4.426 -11.427  22.520  1.00  0.00    -0.250 OA
ATOM     29  H7  UNL     1      -4.048 -11.502  21.652  1.00  0.00     0.253 HD
ENDBRANCH  27  28
ENDBRANCH  20  27
ENDBRANCH  10  14
BRANCH   1  30
HETATM   30  O2  UNL     1      -7.671 -10.559  15.745  1.00  0.00    -0.316 OA
BRANCH  30  31
HETATM   31  C2  UNL     1      -7.763 -11.812  15.192  1.00  0.00     0.255 C
HETATM   32  C1  UNL     1      -8.560 -12.852  15.890  1.00  0.00     0.126 C
HETATM   33  O1  UNL     1      -7.164 -12.022  14.113  1.00  0.00    -0.266 OA
ENDBRANCH  30  31
ENDBRANCH   1  30
TORSDOF 7
ENDMDL