MODEL 3
REMARK VINA RESULT: -7.013036226      2.644      5.511
REMARK  5 active torsions:
REMARK  status: ('A' for Active; 'I' for Inactive)
REMARK    1  A    between atoms: C2_2  and  C3_3
REMARK    2  A    between atoms: C5_5  and  C6_6
REMARK       I    between atoms: C6_6  and  N1_8
REMARK    3  A    between atoms: N1_8  and  C7_10
REMARK    4  A    between atoms: C10_15  and  C11_16
REMARK       I    between atoms: C11_16  and  N2_18
REMARK    5  A    between atoms: N2_18  and  C12_20
ROOT
HETATM    1  C7  UNL     1      -7.969  -9.001  17.499  1.00  0.00     0.093 A
HETATM    2  S1  UNL     1      -8.388  -7.537  16.720  1.00  0.00    -0.064 SA
HETATM    3  C8  UNL     1      -8.703  -6.586  18.086  1.00  0.00     0.055 A
HETATM    4  S2  UNL     1      -9.224  -4.851  18.193  1.00  0.00    -0.044 SA
HETATM    5  C9  UNL     1      -8.471  -7.440  19.129  1.00  0.00     0.046 A
HETATM    6  C10 UNL     1      -8.087  -8.705  18.825  1.00  0.00     0.067 A
ENDROOT
BRANCH   6   7
HETATM    7  C11 UNL     1      -7.806  -9.724  19.883  1.00  0.00     0.255 C
HETATM    8  O2  UNL     1      -6.964 -10.628  19.714  1.00  0.00    -0.268 OA
HETATM    9  N2  UNL     1      -8.477  -9.720  21.125  1.00  0.00    -0.348 N
ATOM     10  H2  UNL     1      -9.167  -8.982  21.270  1.00  0.00     0.163 HD
BRANCH   9  11
HETATM   11  C12 UNL     1      -8.288 -10.644  22.205  1.00  0.00     0.034 C
HETATM   12  C13 UNL     1      -8.948 -10.078  23.480  1.00  0.00     0.035 C
HETATM   13  C14 UNL     1      -8.743 -11.039  24.600  1.00  0.00    -0.012 C
HETATM   14  C15 UNL     1      -9.519 -12.298  24.273  1.00  0.00     0.009 C
HETATM   15  C19 UNL     1      -7.314 -11.372  24.882  1.00  0.00     0.009 C
HETATM   16  C16 UNL     1      -8.896 -12.900  23.054  1.00  0.00    -0.012 C
HETATM   17  C17 UNL     1      -7.430 -13.198  23.227  1.00  0.00     0.009 C
HETATM   18  C21 UNL     1      -9.014 -11.928  21.890  1.00  0.00     0.035 C
HETATM   19  C18 UNL     1      -6.715 -11.930  23.610  1.00  0.00    -0.012 C
HETATM   20  C20 UNL     1      -6.845 -10.845  22.560  1.00  0.00     0.035 C
ENDBRANCH   9  11
ENDBRANCH   6   7
BRANCH   1  21
HETATM   21  N1  UNL     1      -7.591 -10.215  16.819  1.00  0.00    -0.315 N
HETATM   22  C6  UNL     1      -8.573 -11.231  16.623  1.00  0.00     0.274 C
HETATM   23  O1  UNL     1      -9.730 -11.040  17.047  1.00  0.00    -0.266 OA
ATOM     24  H1  UNL     1      -6.636 -10.346  16.482  1.00  0.00     0.170 HD
BRANCH  22  25
HETATM   25  C5  UNL     1      -8.259 -12.476  15.947  1.00  0.00     0.120 A
HETATM   26  C4  UNL     1      -8.791 -13.722  16.296  1.00  0.00     0.063 A
HETATM   27  C3  UNL     1      -8.232 -14.609  15.408  1.00  0.00     0.028 A
HETATM   28  N4  UNL     1      -7.435 -13.932  14.602  1.00  0.00    -0.302 N
HETATM   29  N3  UNL     1      -7.441 -12.666  14.910  1.00  0.00    -0.291 N
ATOM     30  H4  UNL     1      -6.892 -14.343  13.843  1.00  0.00     0.186 HD
HETATM   31  C22 UNL     1      -6.684 -11.639  14.234  1.00  0.00     0.178 C
BRANCH  27  32
HETATM   32  C2  UNL     1      -8.484 -16.077  15.365  1.00  0.00     0.054 C
HETATM   33  C1  UNL     1      -7.434 -16.745  16.196  1.00  0.00     0.011 C
ENDBRANCH  27  32
ENDBRANCH  22  25
ENDBRANCH   1  21
TORSDOF 5
ENDMDL