MODEL 2
REMARK VINA RESULT: -9.340727718      1.949      7.106
REMARK  6 active torsions:
REMARK  status: ('A' for Active; 'I' for Inactive)
REMARK    1  A    between atoms: C2_2  and  C3_3
REMARK    2  A    between atoms: C6_6  and  N1_7
REMARK       I    between atoms: N1_7  and  C7_9
REMARK    3  A    between atoms: C7_9  and  C8_11
REMARK    4  A    between atoms: C13_16  and  N2_17
REMARK    5  A    between atoms: N2_17  and  C14_19
REMARK    6  A    between atoms: C19_28  and  C20_29
ROOT
HETATM    1  N2  UNL     1      -9.824 -10.271  21.311  1.00  0.00    -0.341 N
ATOM      2  H2  UNL     1     -10.305 -11.043  20.848  1.00  0.00     0.167 HD
ENDROOT
BRANCH   1   3
HETATM    3  C13 UNL     1      -8.916 -10.583  22.344  1.00  0.00     0.049 A
HETATM    4  C8  UNL     1      -8.054 -11.629  22.192  1.00  0.00     0.059 A
HETATM    5  C9  UNL     1      -7.145 -11.862  23.239  1.00  0.00     0.019 A
HETATM    6  C10 UNL     1      -7.168 -11.044  24.345  1.00  0.00     0.001 A
HETATM    7  C11 UNL     1      -8.050  -9.996  24.472  1.00  0.00     0.002 A
HETATM    8  C12 UNL     1      -8.941  -9.751  23.465  1.00  0.00     0.030 A
BRANCH   4   9
HETATM    9  C7  UNL     1      -7.996 -12.573  21.088  1.00  0.00     0.258 C
HETATM   10  N1  UNL     1      -7.506 -12.373  19.807  1.00  0.00    -0.322 N
ATOM     11  H1  UNL     1      -7.139 -11.440  19.621  1.00  0.00     0.169 HD
HETATM   12  O1  UNL     1      -8.464 -13.745  21.340  1.00  0.00    -0.267 OA
BRANCH  10  13
HETATM   13  C6  UNL     1      -7.443 -13.265  18.736  1.00  0.00     0.050 A
HETATM   14  C5  UNL     1      -6.257 -13.929  18.426  1.00  0.00     0.033 A
HETATM   15  C4  UNL     1      -6.192 -14.782  17.358  1.00  0.00     0.031 A
HETATM   16  C3  UNL     1      -7.282 -15.023  16.544  1.00  0.00     0.031 A
HETATM   17  N7  UNL     1      -8.407 -14.380  16.854  1.00  0.00    -0.364 N
HETATM   18  C26 UNL     1      -8.509 -13.515  17.921  1.00  0.00     0.117 A
ATOM     19  H7  UNL     1      -9.231 -14.535  16.274  1.00  0.00     0.165 HD
BRANCH  16  20
HETATM   20  C2  UNL     1      -7.180 -15.935  15.415  1.00  0.00     0.019 C
HETATM   21  C1  UNL     1      -7.984 -16.981  15.363  1.00  0.00     0.013 C
ENDBRANCH  16  20
ENDBRANCH  10  13
ENDBRANCH   4   9
ENDBRANCH   1   3
BRANCH   1  22
HETATM   22  C14 UNL     1     -10.083  -9.073  20.916  1.00  0.00     0.119 A
HETATM   23  N3  UNL     1     -11.127  -8.362  21.332  1.00  0.00    -0.338 N
HETATM   24  C15 UNL     1     -11.327  -7.119  20.869  1.00  0.00     0.182 A
ATOM     25  H3  UNL     1     -11.779  -8.763  22.005  1.00  0.00     0.168 HD
HETATM   26  N4  UNL     1     -10.512  -6.525  19.982  1.00  0.00    -0.352 N
HETATM   27  C16 UNL     1      -9.437  -7.205  19.529  1.00  0.00     0.047 A
ATOM     28  H4  UNL     1     -10.703  -5.577  19.656  1.00  0.00     0.166 HD
HETATM   29  C17 UNL     1      -8.568  -6.646  18.618  1.00  0.00     0.031 A
HETATM   30  C25 UNL     1      -9.218  -8.505  20.006  1.00  0.00     0.035 A
HETATM   31  C18 UNL     1      -7.486  -7.375  18.181  1.00  0.00     0.014 A
HETATM   32  C19 UNL     1      -7.238  -8.663  18.631  1.00  0.00    -0.022 A
HETATM   33  C24 UNL     1      -8.113  -9.211  19.541  1.00  0.00     0.030 A
BRANCH  32  34
HETATM   34  C20 UNL     1      -6.103  -9.459  18.193  1.00  0.00     0.005 A
HETATM   35  C21 UNL     1      -6.033 -10.113  16.984  1.00  0.00     0.102 A
HETATM   36  N5  UNL     1      -4.966 -10.842  16.611  1.00  0.00    -0.361 N
HETATM   37  C22 UNL     1      -3.916 -10.941  17.455  1.00  0.00     0.180 A
ATOM     38  H5  UNL     1      -4.951 -11.313  15.707  1.00  0.00     0.166 HD
HETATM   39  N6  UNL     1      -3.963 -10.313  18.641  1.00  0.00    -0.361 N
HETATM   40  C23 UNL     1      -5.018  -9.577  19.037  1.00  0.00     0.102 A
ATOM     41  H6  UNL     1      -3.165 -10.397  19.269  1.00  0.00     0.166 HD
ENDBRANCH  32  34
ENDBRANCH   1  22
TORSDOF 6
ENDMDL