MODEL 3
REMARK VINA RESULT: -9.305882714      2.427      5.895
REMARK  7 active torsions:
REMARK  status: ('A' for Active; 'I' for Inactive)
REMARK    1  A    between atoms: C4_5  and  C5_6
REMARK    2  A    between atoms: C7_9  and  N2_10
REMARK    3  A    between atoms: N2_10  and  C8_11
REMARK    4  A    between atoms: N2_10  and  C14_19
REMARK    5  A    between atoms: C8_11  and  C9_12
REMARK    6  A    between atoms: C14_19  and  N4_21
REMARK       I    between atoms: N4_21  and  C15_23
REMARK    7  A    between atoms: C15_23  and  C16_25
ROOT
HETATM    1  N2  UNL     1      -7.288  -8.690  18.574  1.00  0.00    -0.300 N
ENDROOT
BRANCH   1   2
HETATM    2  C7  UNL     1      -7.609  -9.407  17.375  1.00  0.00     0.153 A
HETATM    3  S1  UNL     1      -7.858  -8.847  15.783  1.00  0.00    -0.063 SA
HETATM    4  C6  UNL     1      -8.189 -10.346  15.034  1.00  0.00     0.083 A
HETATM    5  C5  UNL     1      -8.085 -11.217  16.090  1.00  0.00     0.051 A
HETATM    6  N5  UNL     1      -7.791 -10.708  17.253  1.00  0.00    -0.335 N
ATOM      7  H5  UNL     1      -7.701 -11.314  18.068  1.00  0.00     0.168 HD
BRANCH   5   8
HETATM    8  C4  UNL     1      -8.301 -12.673  15.910  1.00  0.00    -0.009 A
HETATM    9  C3  UNL     1      -9.543 -13.229  15.945  1.00  0.00     0.015 A
HETATM   10  C2  UNL     1      -9.692 -14.604  15.772  1.00  0.00     0.027 A
HETATM   11  C1  UNL     1      -8.628 -15.453  15.563  1.00  0.00     0.046 A
HETATM   12  N1  UNL     1      -8.810 -16.859  15.389  1.00  0.00    -0.102 NA
HETATM   13  C23 UNL     1      -7.370 -14.890  15.529  1.00  0.00     0.027 A
HETATM   14  C22 UNL     1      -7.231 -13.514  15.701  1.00  0.00     0.015 A
ENDBRANCH   5   8
ENDBRANCH   1   2
BRANCH   1  15
HETATM   15  C8  UNL     1      -5.931  -8.261  18.776  1.00  0.00     0.172 C
BRANCH  15  16
HETATM   16  C9  UNL     1      -5.047  -9.415  19.066  1.00  0.00    -0.037 A
HETATM   17  C10 UNL     1      -4.381 -10.125  18.083  1.00  0.00     0.026 A
HETATM   18  C11 UNL     1      -3.570 -11.186  18.412  1.00  0.00     0.088 A
HETATM   19  N3  UNL     1      -3.423 -11.537  19.695  1.00  0.00    -0.375 N
HETATM   20  C12 UNL     1      -4.054 -10.865  20.650  1.00  0.00     0.088 A
ATOM     21  H3  UNL     1      -2.823 -12.325  19.940  1.00  0.00     0.164 HD
HETATM   22  C13 UNL     1      -4.861  -9.813  20.356  1.00  0.00     0.026 A
ENDBRANCH  15  16
ENDBRANCH   1  15
BRANCH   1  23
HETATM   23  C14 UNL     1      -8.295  -8.427  19.523  1.00  0.00     0.183 C
HETATM   24  S2  UNL     1      -9.497  -7.360  19.162  1.00  0.00    -0.040 SA
BRANCH  23  25
HETATM   25  N4  UNL     1      -8.282  -9.073  20.785  1.00  0.00    -0.299 N
HETATM   26  C15 UNL     1      -8.595 -10.446  20.950  1.00  0.00     0.257 C
HETATM   27  O1  UNL     1      -8.904 -11.151  19.926  1.00  0.00    -0.267 OA
ATOM     28  H4  UNL     1      -8.037  -8.526  21.610  1.00  0.00     0.171 HD
BRANCH  26  29
HETATM   29  C16 UNL     1      -8.582 -11.113  22.250  1.00  0.00     0.032 A
HETATM   30  C17 UNL     1      -8.633 -12.480  22.385  1.00  0.00     0.017 A
HETATM   31  C18 UNL     1      -8.609 -13.054  23.643  1.00  0.00     0.001 A
HETATM   32  C19 UNL     1      -8.535 -12.296  24.803  1.00  0.00     0.000 A
HETATM   33  C20 UNL     1      -8.487 -10.927  24.616  1.00  0.00     0.001 A
HETATM   34  C21 UNL     1      -8.509 -10.336  23.383  1.00  0.00     0.017 A
ENDBRANCH  26  29
ENDBRANCH  23  25
ENDBRANCH   1  23
TORSDOF 7
ENDMDL