MODEL 1
REMARK VINA RESULT: -9.174246835      0.000      0.000
REMARK  6 active torsions:
REMARK  status: ('A' for Active; 'I' for Inactive)
REMARK    1  A    between atoms: C2_2  and  N1_3
REMARK    2  A    between atoms: C5_6  and  C6_7
REMARK    3  A    between atoms: C7_10  and  C8_11
REMARK    4  A    between atoms: C8_11  and  N3_12
REMARK    5  A    between atoms: C8_11  and  C16_26
REMARK    6  A    between atoms: N3_12  and  C9_14
ROOT
HETATM    1  C8  UNL     1      -5.865 -13.115  17.713  1.00  0.00     0.156 C
ENDROOT
BRANCH   1   2
HETATM    2  C7  UNL     1      -6.049 -11.639  17.500  1.00  0.00     0.120 A
HETATM    3  N2  UNL     1      -7.067 -10.849  17.833  1.00  0.00    -0.331 N
HETATM    4  C6  UNL     1      -6.833  -9.590  17.450  1.00  0.00     0.101 A
ATOM      5  H2  UNL     1      -7.910 -11.162  18.314  1.00  0.00     0.168 HD
HETATM    6  N7  UNL     1      -5.621  -9.623  16.862  1.00  0.00    -0.287 N
HETATM    7  N6  UNL     1      -5.150 -10.858  16.891  1.00  0.00    -0.286 N
ATOM      8  H7  UNL     1      -5.141  -8.819  16.457  1.00  0.00     0.188 HD
ATOM      9  H6  UNL     1      -4.253 -11.163  16.512  1.00  0.00     0.188 HD
BRANCH   4  10
HETATM   10  C5  UNL     1      -7.664  -8.367  17.604  1.00  0.00     0.058 C
HETATM   11  C4  UNL     1      -7.325  -7.698  18.903  1.00  0.00     0.042 C
HETATM   12  C3  UNL     1      -8.475  -6.851  19.340  1.00  0.00     0.273 C
HETATM   13  N1  UNL     1      -9.552  -7.700  19.747  1.00  0.00     0.088 N
HETATM   14  C23 UNL     1      -9.811  -8.787  18.854  1.00  0.00     0.273 C
HETATM   15  C22 UNL     1      -9.132  -8.651  17.526  1.00  0.00     0.042 C
BRANCH  13  16
HETATM   16  C2  UNL     1     -10.721  -6.965  20.145  1.00  0.00     0.268 C
HETATM   17  C1  UNL     1     -11.516  -7.680  21.210  1.00  0.00     0.037 C
ENDBRANCH  13  16
ENDBRANCH   4  10
ENDBRANCH   1   2
BRANCH   1  18
HETATM   18  N3  UNL     1      -6.140 -13.388  19.060  1.00  0.00    -0.364 N
ATOM     19  H3  UNL     1      -6.505 -14.328  19.211  1.00  0.00     0.162 HD
BRANCH  18  20
HETATM   20  C9  UNL     1      -6.033 -12.722  20.126  1.00  0.00     0.115 A
HETATM   21  N4  UNL     1      -4.910 -12.053  20.396  1.00  0.00    -0.338 N
HETATM   22  C10 UNL     1      -4.709 -11.319  21.510  1.00  0.00     0.182 A
ATOM     23  H4  UNL     1      -4.153 -12.099  19.714  1.00  0.00     0.168 HD
HETATM   24  N5  UNL     1      -5.711 -11.264  22.401  1.00  0.00    -0.346 N
HETATM   25  C11 UNL     1      -6.889 -11.931  22.181  1.00  0.00     0.089 A
ATOM     26  H5  UNL     1      -5.594 -10.719  23.255  1.00  0.00     0.167 HD
HETATM   27  S1  UNL     1      -8.349 -12.097  23.053  1.00  0.00    -0.076 SA
HETATM   28  C15 UNL     1      -7.108 -12.677  21.060  1.00  0.00     0.043 A
HETATM   29  C12 UNL     1      -9.200 -13.106  21.977  1.00  0.00    -0.018 A
HETATM   30  C13 UNL     1     -10.593 -13.679  22.094  1.00  0.00     0.056 C
HETATM   31  C14 UNL     1      -8.308 -13.287  20.957  1.00  0.00     0.032 A
ENDBRANCH  18  20
ENDBRANCH   1  18
BRANCH   1  32
HETATM   32  C16 UNL     1      -6.716 -13.860  16.710  1.00  0.00     0.016 C
HETATM   33  C17 UNL     1      -6.549 -15.342  16.797  1.00  0.00     0.007 C
HETATM   34  C18 UNL     1      -7.112 -16.012  15.577  1.00  0.00     0.000 C
HETATM   35  C19 UNL     1      -8.170 -15.175  14.898  1.00  0.00     0.000 C
HETATM   36  C20 UNL     1      -9.001 -14.424  15.914  1.00  0.00     0.000 C
HETATM   37  C21 UNL     1      -8.160 -13.492  16.754  1.00  0.00     0.007 C
ENDBRANCH   1  32
TORSDOF 6
ENDMDL