MODEL 2
REMARK VINA RESULT: -7.505695581      2.391      6.056
REMARK  6 active torsions:
REMARK  status: ('A' for Active; 'I' for Inactive)
REMARK    1  A    between atoms: N1_1  and  C1_5
REMARK    2  A    between atoms: N2_8  and  C4_9
REMARK    3  A    between atoms: C7_12  and  C8_13
REMARK    4  A    between atoms: C12_23  and  N6_24
REMARK       I    between atoms: N6_24  and  C13_26
REMARK    5  A    between atoms: C13_26  and  C14_28
REMARK    6  A    between atoms: C17_31  and  C18_32
ROOT
HETATM    1  C4  UNL     1      -7.629 -13.861  18.936  1.00  0.00     0.075 A
HETATM    2  C5  UNL     1      -8.816 -14.067  19.657  1.00  0.00     0.036 A
HETATM    3  C6  UNL     1      -8.886 -13.663  20.965  1.00  0.00     0.036 A
HETATM    4  C7  UNL     1      -7.777 -13.059  21.535  1.00  0.00     0.078 A
HETATM    5  N5  UNL     1      -6.661 -12.881  20.811  1.00  0.00    -0.338 N
ATOM      6  H5  UNL     1      -5.867 -12.433  21.265  1.00  0.00     0.167 HD
HETATM    7  C12 UNL     1      -6.521 -13.251  19.534  1.00  0.00     0.135 A
ENDROOT
BRANCH   7   8
HETATM    8  N6  UNL     1      -5.338 -13.107  18.814  1.00  0.00    -0.307 N
HETATM    9  C13 UNL     1      -4.919 -11.938  18.191  1.00  0.00     0.257 C
HETATM   10  O1  UNL     1      -3.767 -12.004  17.613  1.00  0.00    -0.267 OA
ATOM     11  H6  UNL     1      -4.731 -13.924  18.737  1.00  0.00     0.170 HD
BRANCH   9  12
HETATM   12  C14 UNL     1      -5.647 -10.677  18.133  1.00  0.00     0.032 A
HETATM   13  C15 UNL     1      -6.429 -10.318  17.055  1.00  0.00     0.018 A
HETATM   14  C16 UNL     1      -7.162  -9.147  17.025  1.00  0.00     0.013 A
HETATM   15  C17 UNL     1      -7.140  -8.273  18.092  1.00  0.00    -0.026 A
HETATM   16  C24 UNL     1      -6.358  -8.627  19.173  1.00  0.00     0.013 A
HETATM   17  C25 UNL     1      -5.626  -9.797  19.202  1.00  0.00     0.018 A
BRANCH  15  18
HETATM   18  C18 UNL     1      -7.912  -7.027  18.081  1.00  0.00    -0.026 A
HETATM   19  C19 UNL     1      -8.266  -6.397  16.913  1.00  0.00     0.012 A
HETATM   20  C20 UNL     1      -8.992  -5.229  16.953  1.00  0.00     0.001 A
HETATM   21  C21 UNL     1      -9.380  -4.663  18.153  1.00  0.00     0.000 A
HETATM   22  C22 UNL     1      -9.023  -5.297  19.321  1.00  0.00     0.001 A
HETATM   23  C23 UNL     1      -8.300  -6.461  19.273  1.00  0.00     0.012 A
ENDBRANCH  15  18
ENDBRANCH   9  12
ENDBRANCH   7   8
BRANCH   1  24
HETATM   24  N2  UNL     1      -7.554 -14.237  17.576  1.00  0.00    -0.378 N
HETATM   25  C3  UNL     1      -6.894 -15.476  17.232  1.00  0.00     0.125 C
HETATM   26  C2  UNL     1      -7.318 -15.917  15.836  1.00  0.00     0.052 C
HETATM   27  C1  UNL     1      -7.068 -14.879  14.788  1.00  0.00     0.186 C
HETATM   28  C27 UNL     1      -7.042 -13.494  15.386  1.00  0.00     0.052 C
HETATM   29  C26 UNL     1      -8.097 -13.465  16.482  1.00  0.00     0.125 C
BRANCH  27  30
HETATM   30  N1  UNL     1      -8.178 -14.890  13.826  1.00  0.00    -0.075 N
ATOM     31  H13 UNL     1      -8.688 -15.774  13.831  1.00  0.00     0.274 HD
ATOM     32  H12 UNL     1      -8.944 -14.280  14.112  1.00  0.00     0.274 HD
ATOM     33  H11 UNL     1      -7.820 -14.654  12.901  1.00  0.00     0.274 HD
ENDBRANCH  27  30
ENDBRANCH   1  24
BRANCH   4  34
HETATM   34  C8  UNL     1      -7.922 -12.664  22.931  1.00  0.00     0.132 A
HETATM   35  N3  UNL     1      -8.679 -13.333  23.810  1.00  0.00    -0.350 N
HETATM   36  C9  UNL     1      -8.829 -12.992  25.097  1.00  0.00     0.091 A
ATOM     37  H3  UNL     1      -9.176 -14.160  23.477  1.00  0.00     0.166 HD
HETATM   38  C10 UNL     1      -8.177 -11.883  25.588  1.00  0.00     0.034 A
HETATM   39  C11 UNL     1      -7.390 -11.175  24.705  1.00  0.00     0.091 A
HETATM   40  N4  UNL     1      -7.282 -11.570  23.426  1.00  0.00    -0.350 N
ATOM     41  H4  UNL     1      -6.693 -11.025  22.796  1.00  0.00     0.166 HD
ENDBRANCH   4  34
TORSDOF 6
ENDMDL