MODEL 3
REMARK VINA RESULT: -9.600650747      1.983      2.507
REMARK  10 active torsions:
REMARK  status: ('A' for Active; 'I' for Inactive)
REMARK    1  A    between atoms: O1_1  and  C1_3
REMARK    2  A    between atoms: C1_3  and  N1_4
REMARK    3  A    between atoms: C1_3  and  N3_27
REMARK    4  A    between atoms: N1_4  and  C2_6
REMARK    5  A    between atoms: C2_6  and  O2_7
REMARK    6  A    between atoms: C8_14  and  O3_15
REMARK    7  A    between atoms: O3_15  and  C9_16
REMARK    8  A    between atoms: C9_16  and  C10_18
REMARK    9  A    between atoms: C14_22  and  N2_23
REMARK   10  A    between atoms: N3_27  and  C16_29
ROOT
HETATM    1  C2  UNL     1      -7.066 -11.254  16.360  1.00  0.00     0.156 C
HETATM    2  C3  UNL     1      -6.997 -12.543  16.673  1.00  0.00     0.049 A
HETATM    3  C4  UNL     1      -7.104 -12.948  14.984  1.00  0.00     0.018 A
HETATM    4  C5  UNL     1      -7.099 -14.103  14.506  1.00  0.00     0.001 A
HETATM    5  C6  UNL     1      -7.000 -15.300  15.256  1.00  0.00     0.003 A
HETATM    6  C7  UNL     1      -6.910 -15.040  16.630  1.00  0.00     0.038 A
HETATM    7  C8  UNL     1      -6.929 -13.791  16.975  1.00  0.00     0.094 A
ENDROOT
BRANCH   1   8
HETATM    8  N1  UNL     1      -7.317 -10.096  15.776  1.00  0.00    -0.302 N
ATOM      9  H1  UNL     1      -7.109 -10.196  14.783  1.00  0.00     0.171 HD
BRANCH   8  10
HETATM   10  C1  UNL     1      -7.758  -8.783  15.993  1.00  0.00     0.223 C
BRANCH  10  11
HETATM   11  O1  UNL     1      -8.350  -8.269  14.923  1.00  0.00    -0.332 OA
ATOM     12  H1  UNL     1      -8.765  -7.434  15.107  1.00  0.00     0.220 HD
ENDBRANCH  10  11
BRANCH  10  13
HETATM   13  N3  UNL     1      -7.749  -7.900  17.067  1.00  0.00    -0.330 N
ATOM     14  H3  UNL     1      -7.258  -7.017  16.925  1.00  0.00     0.169 HD
BRANCH  13  15
HETATM   15  C16 UNL     1      -8.362  -8.097  18.368  1.00  0.00    -0.010 C
HETATM   16  C17 UNL     1      -9.311  -9.268  18.441  1.00  0.00     0.052 C
HETATM   17  C18 UNL     1      -9.355  -9.960  19.778  1.00  0.00     0.006 C
HETATM   18  C19 UNL     1      -9.153  -9.201  21.001  1.00  0.00     0.000 C
HETATM   19  C20 UNL     1      -9.953  -8.013  21.346  1.00  0.00     0.000 C
HETATM   20  C21 UNL     1     -10.764  -7.365  20.243  1.00  0.00     0.000 C
HETATM   21  C22 UNL     1      -9.982  -6.472  19.349  1.00  0.00     0.006 C
HETATM   22  C23 UNL     1      -8.548  -6.901  19.141  1.00  0.00     0.052 C
ENDBRANCH  13  15
ENDBRANCH  10  13
ENDBRANCH   8  10
ENDBRANCH   1   8
BRANCH   1  23
HETATM   23  O2  UNL     1      -6.206 -10.779  17.586  1.00  0.00    -0.345 OA
ATOM     24  H2  UNL     1      -5.691 -11.560  17.751  1.00  0.00     0.219 HD
ENDBRANCH   1  23
BRANCH   7  25
HETATM   25  O3  UNL     1      -6.849 -13.655  18.540  1.00  0.00    -0.274 OA
BRANCH  25  26
HETATM   26  C9  UNL     1      -8.096 -13.573  19.118  1.00  0.00     0.298 C
HETATM   27  O4  UNL     1      -9.113 -13.676  18.391  1.00  0.00    -0.259 OA
BRANCH  26  28
HETATM   28  C10 UNL     1      -8.315 -13.401  20.531  1.00  0.00     0.042 A
HETATM   29  C11 UNL     1      -9.431 -13.579  21.266  1.00  0.00     0.018 A
HETATM   30  C12 UNL     1      -9.600 -13.071  22.494  1.00  0.00     0.003 A
HETATM   31  C13 UNL     1      -8.621 -12.286  23.152  1.00  0.00     0.036 A
HETATM   32  C14 UNL     1      -7.469 -12.093  22.412  1.00  0.00     0.103 A
HETATM   33  C15 UNL     1      -7.312 -12.626  21.162  1.00  0.00     0.053 A
BRANCH  32  34
HETATM   34  N2  UNL     1      -6.454 -11.198  22.956  1.00  0.00    -0.116 N
HETATM   35  O5  UNL     1      -6.709 -10.417  23.866  1.00  0.00    -0.532 OA
HETATM   36  O6  UNL     1      -5.206 -11.193  22.368  1.00  0.00    -0.532 OA
ENDBRANCH  32  34
ENDBRANCH  26  28
ENDBRANCH  25  26
ENDBRANCH   7  25
TORSDOF 10
ENDMDL