MODEL 5
REMARK VINA RESULT: -7.801725703      5.422      8.450
REMARK  11 active torsions:
REMARK  status: ('A' for Active; 'I' for Inactive)
REMARK    1  A    between atoms: C2_2  and  C3_3
REMARK    2  A    between atoms: C3_3  and  C4_4
REMARK    3  A    between atoms: C4_4  and  N1_5
REMARK    4  A    between atoms: C4_4  and  C25_36
REMARK       I    between atoms: N1_5  and  C5_7
REMARK    5  A    between atoms: C5_7  and  C6_9
REMARK    6  A    between atoms: N2_12  and  C9_13
REMARK    7  A    between atoms: C9_13  and  C10_14
REMARK    8  A    between atoms: C10_14  and  C11_15
REMARK       I    between atoms: C11_15  and  N3_17
REMARK    9  A    between atoms: C14_20  and  C15_21
REMARK   10  A    between atoms: C14_20  and  N5_24
REMARK   11  A    between atoms: C19_28  and  C20_29
ROOT
HETATM    1  C6  UNL     1      22.881  10.205  23.226  1.00  0.00     0.081 C
HETATM    2  C7  UNL     1      23.409  11.616  23.131  1.00  0.00     0.044 C
HETATM    3  C8  UNL     1      23.011  12.359  21.915  1.00  0.00     0.273 C
HETATM    4  N2  UNL     1      23.353  11.557  20.747  1.00  0.00     0.088 N
HETATM    5  C23 UNL     1      22.483  10.382  20.724  1.00  0.00     0.273 C
HETATM    6  C24 UNL     1      22.626   9.527  21.937  1.00  0.00     0.044 C
ENDROOT
BRANCH   4   7
HETATM    7  C9  UNL     1      24.748  11.153  20.792  1.00  0.00     0.281 C
BRANCH   7   8
HETATM    8  C10 UNL     1      25.624  12.005  19.887  1.00  0.00     0.133 C
BRANCH   8   9
HETATM    9  C11 UNL     1      27.056  11.763  20.150  1.00  0.00     0.221 C
HETATM   10  O2  UNL     1      27.688  11.032  19.349  1.00  0.00    -0.273 OA
HETATM   11  N3  UNL     1      27.704  12.317  21.247  1.00  0.00    -0.352 N
HETATM   12  C12 UNL     1      29.104  12.076  21.489  1.00  0.00     0.128 C
HETATM   13  C22 UNL     1      27.033  13.169  22.194  1.00  0.00     0.128 C
HETATM   14  C13 UNL     1      29.592  12.858  22.650  1.00  0.00     0.060 C
HETATM   15  C14 UNL     1      29.237  14.363  22.579  1.00  0.00     0.110 C
HETATM   16  C21 UNL     1      27.751  14.500  22.273  1.00  0.00     0.060 C
BRANCH  15  17
HETATM   17  C15 UNL     1      29.945  14.837  21.383  1.00  0.00     0.259 C
HETATM   18  N4  UNL     1      29.441  15.284  20.160  1.00  0.00    -0.060 NA
HETATM   19  O3  UNL     1      31.235  14.853  21.455  1.00  0.00    -0.274 OA
ENDBRANCH  15  17
BRANCH  15  20
HETATM   20  N5  UNL     1      29.481  14.962  23.807  1.00  0.00    -0.389 N
HETATM   21  C16 UNL     1      28.809  14.525  24.969  1.00  0.00     0.118 C
HETATM   22  C17 UNL     1      29.445  15.229  26.143  1.00  0.00     0.022 C
HETATM   23  C18 UNL     1      30.549  16.027  25.576  1.00  0.00     0.029 C
HETATM   24  C19 UNL     1      30.233  16.082  24.062  1.00  0.00     0.113 C
BRANCH  24  25
HETATM   25  C20 UNL     1      29.451  17.371  23.810  1.00  0.00     0.200 C
HETATM   26 CL1  UNL     1      29.481  18.487  25.168  1.00  0.00    -0.106 Cl
HETATM   27 CL2  UNL     1      30.050  18.182  22.342  1.00  0.00    -0.106 Cl
ENDBRANCH  24  25
ENDBRANCH  15  20
ENDBRANCH   8   9
ENDBRANCH   7   8
ENDBRANCH   4   7
BRANCH   1  28
HETATM   28  C5  UNL     1      21.618  10.293  24.005  1.00  0.00     0.222 C
HETATM   29  N1  UNL     1      21.261  11.347  24.861  1.00  0.00    -0.346 N
ATOM     30  H1  UNL     1      21.873  12.153  24.992  1.00  0.00     0.163 HD
HETATM   31  O1  UNL     1      20.825   9.303  23.854  1.00  0.00    -0.273 OA
BRANCH  29  32
HETATM   32  C4  UNL     1      19.958  11.244  25.572  1.00  0.00     0.186 C
BRANCH  32  33
HETATM   33  C3  UNL     1      19.033  12.068  24.761  1.00  0.00     0.045 C
BRANCH  33  34
HETATM   34  C2  UNL     1      17.577  11.839  24.817  1.00  0.00    -0.042 C
HETATM   35  C1  UNL     1      16.920  12.687  25.916  1.00  0.00     0.015 C
HETATM   36  C26 UNL     1      17.418  10.390  25.370  1.00  0.00     0.009 C
HETATM   37  C27 UNL     1      16.872   9.569  24.249  1.00  0.00     0.001 C
HETATM   38  C28 UNL     1      15.929  10.559  23.581  1.00  0.00     0.001 C
HETATM   39  C29 UNL     1      16.797  11.839  23.568  1.00  0.00     0.009 C
ENDBRANCH  33  34
ENDBRANCH  32  33
BRANCH  32  40
HETATM   40  C25 UNL     1      20.257  11.727  26.932  1.00  0.00     0.196 C
HETATM   41  O4  UNL     1      19.668  11.238  27.955  1.00  0.00    -0.646 OA
HETATM   42  O5  UNL     1      21.184  12.734  27.162  1.00  0.00    -0.646 OA
ENDBRANCH  32  40
ENDBRANCH  29  32
ENDBRANCH   1  28
TORSDOF 11
ENDMDL