MODEL 1
REMARK VINA RESULT: -7.403240731      0.000      0.000
REMARK  13 active torsions:
REMARK  status: ('A' for Active; 'I' for Inactive)
REMARK    1  A    between atoms: N1_2  and  C2_5
REMARK    2  A    between atoms: C2_5  and  C4_7
REMARK       I    between atoms: C4_7  and  N2_9
REMARK    3  A    between atoms: N2_9  and  C5_11
REMARK    4  A    between atoms: C5_11  and  C6_12
REMARK    5  A    between atoms: C5_11  and  C10_17
REMARK    6  A    between atoms: C6_12  and  C7_13
REMARK    7  A    between atoms: C8_14  and  C9_15
REMARK       I    between atoms: C10_17  and  N3_19
REMARK    8  A    between atoms: N3_19  and  C11_21
REMARK    9  A    between atoms: C11_21  and  C12_22
REMARK   10  A    between atoms: C11_21  and  C15_26
REMARK   11  A    between atoms: C12_22  and  C13_23
REMARK   12  A    between atoms: C13_23  and  S1_24
REMARK       I    between atoms: C15_26  and  N4_28
REMARK   13  A    between atoms: C19_33  and  O4_34
ROOT
HETATM    1  C10 UNL     1      26.598  13.325  22.969  1.00  0.00     0.242 C
HETATM    2  O2  UNL     1      26.873  13.402  24.195  1.00  0.00    -0.271 OA
HETATM    3  N3  UNL     1      27.679  13.372  22.058  1.00  0.00    -0.346 N
ATOM      4  H3  UNL     1      27.497  13.313  21.056  1.00  0.00     0.163 HD
ENDROOT
BRANCH   3   5
HETATM    5  C11 UNL     1      29.064  13.505  22.542  1.00  0.00     0.177 C
BRANCH   5   6
HETATM    6  C12 UNL     1      29.908  12.496  21.832  1.00  0.00     0.045 C
BRANCH   6   7
HETATM    7  C13 UNL     1      29.011  11.789  20.801  1.00  0.00     0.076 C
BRANCH   7   8
HETATM    8  S1  UNL     1      28.854  10.041  21.164  1.00  0.00    -0.173 SA
HETATM    9  C14 UNL     1      29.585   9.625  22.758  1.00  0.00     0.089 C
ENDBRANCH   7   8
ENDBRANCH   6   7
ENDBRANCH   5   6
BRANCH   5  10
HETATM   10  C15 UNL     1      29.512  14.916  22.370  1.00  0.00     0.242 C
HETATM   11  O3  UNL     1      29.585  15.364  21.158  1.00  0.00    -0.271 OA
HETATM   12  N4  UNL     1      29.861  15.816  23.380  1.00  0.00    -0.346 N
HETATM   13  C16 UNL     1      29.719  15.282  24.709  1.00  0.00     0.154 C
HETATM   14  C25 UNL     1      30.285  17.089  22.886  1.00  0.00     0.135 C
HETATM   15  C17 UNL     1      29.136  16.313  25.644  1.00  0.00     0.010 C
HETATM   16  C18 UNL     1      29.478  17.534  25.954  1.00  0.00     0.015 C
HETATM   17 BR1  UNL     1      28.311  18.338  27.234  1.00  0.00    -0.053 Br
HETATM   18  C19 UNL     1      30.553  18.462  25.558  1.00  0.00     0.161 C
HETATM   19  C21 UNL     1      31.708  17.767  24.881  1.00  0.00     0.047 C
HETATM   20  C22 UNL     1      31.574  17.620  23.416  1.00  0.00    -0.029 C
HETATM   21  C23 UNL     1      31.686  19.046  22.841  1.00  0.00     0.016 C
HETATM   22  C24 UNL     1      32.785  16.895  22.876  1.00  0.00     0.016 C
BRANCH  18  23
HETATM   23  O4  UNL     1      31.072  18.988  26.765  1.00  0.00    -0.386 OA
HETATM   24  C20 UNL     1      31.869  20.084  26.515  1.00  0.00     0.202 C
ENDBRANCH  18  23
ENDBRANCH   5  10
ENDBRANCH   3   5
BRANCH   1  25
HETATM   25  C5  UNL     1      25.194  13.192  22.538  1.00  0.00     0.187 C
BRANCH  25  26
HETATM   26  N2  UNL     1      24.438  12.578  23.608  1.00  0.00    -0.345 N
HETATM   27  C4  UNL     1      23.086  12.916  23.835  1.00  0.00     0.248 C
HETATM   28  O1  UNL     1      22.552  13.774  23.073  1.00  0.00    -0.271 OA
ATOM     29  H2  UNL     1      24.889  11.889  24.209  1.00  0.00     0.163 HD
BRANCH  27  30
HETATM   30  C2  UNL     1      22.340  12.275  24.933  1.00  0.00     0.272 C
HETATM   31  C3  UNL     1      20.899  12.067  24.499  1.00  0.00     0.050 C
BRANCH  30  32
HETATM   32  N1  UNL     1      22.876  10.958  25.241  1.00  0.00    -0.067 N
HETATM   33  C1  UNL     1      22.228   9.902  24.519  1.00  0.00     0.267 C
ATOM     34  H12 UNL     1      22.850  10.781  26.245  1.00  0.00     0.277 HD
ATOM     35  H11 UNL     1      23.885  10.933  25.094  1.00  0.00     0.277 HD
ENDBRANCH  30  32
ENDBRANCH  27  30
ENDBRANCH  25  26
BRANCH  25  36
HETATM   36  C6  UNL     1      25.058  12.300  21.319  1.00  0.00     0.128 C
BRANCH  36  37
HETATM   37  C7  UNL     1      25.521  13.007  20.115  1.00  0.00    -0.103 C
HETATM   38  C8  UNL     1      25.920  13.576  19.124  1.00  0.00    -0.092 C
BRANCH  38  39
HETATM   39  C9  UNL     1      26.428  14.256  17.926  1.00  0.00     0.208 C
HETATM   40 CL1  UNL     1      28.048  14.910  18.204  1.00  0.00    -0.117 Cl
ENDBRANCH  38  39
ENDBRANCH  36  37
ENDBRANCH  25  36
ENDBRANCH   1  25
TORSDOF 13
ENDMDL