MODEL 3
REMARK VINA RESULT: -5.761595528      0.906      1.202
REMARK  11 active torsions:
REMARK  status: ('A' for Active; 'I' for Inactive)
REMARK    1  A    between atoms: S1_2  and  C2_3
REMARK    2  A    between atoms: C2_3  and  C3_4
REMARK    3  A    between atoms: C3_4  and  C4_5
REMARK    4  A    between atoms: C4_5  and  C5_6
REMARK    5  A    between atoms: C5_6  and  C6_7
REMARK    6  A    between atoms: C6_7  and  C7_8
REMARK    7  A    between atoms: C9_13  and  C10_14
REMARK    8  A    between atoms: C12_20  and  C13_21
REMARK    9  A    between atoms: C13_21  and  C14_22
REMARK   10  A    between atoms: C17_26  and  C18_27
REMARK   11  A    between atoms: C21_31  and  C22_32
ROOT
HETATM    1  C7  UNL     1      29.099  17.910  26.867  1.00  0.00     0.176 C
HETATM    2  N1  UNL     1      29.828  16.862  26.209  1.00  0.00    -0.346 N
ATOM      3  H1  UNL     1      30.838  16.910  26.346  1.00  0.00     0.163 HD
HETATM    4  C8  UNL     1      29.412  15.789  25.414  1.00  0.00     0.243 C
HETATM    5  O1  UNL     1      29.616  14.582  25.833  1.00  0.00    -0.271 OA
HETATM    6  C9  UNL     1      28.736  15.815  24.095  1.00  0.00     0.205 C
HETATM    7  N2  UNL     1      29.537  15.064  23.158  1.00  0.00    -0.340 N
ATOM      8  H2  UNL     1      29.158  14.152  22.901  1.00  0.00     0.163 HD
HETATM    9  C11 UNL     1      30.732  15.389  22.558  1.00  0.00     0.265 C
HETATM   10  O2  UNL     1      31.701  14.552  22.698  1.00  0.00    -0.266 OA
HETATM   11  C12 UNL     1      31.063  16.585  21.757  1.00  0.00     0.081 C
HETATM   12  N3  UNL     1      32.337  17.091  21.987  1.00  0.00    -0.335 N
HETATM   13  C17 UNL     1      33.562  16.712  21.554  1.00  0.00     0.091 C
HETATM   14  C21 UNL     1      32.320  17.869  23.235  1.00  0.00     0.195 C
HETATM   15  N4  UNL     1      32.103  19.274  22.973  1.00  0.00    -0.337 N
ATOM     16  H4  UNL     1      32.537  19.670  22.139  1.00  0.00     0.164 HD
HETATM   17  C25 UNL     1      31.331  20.147  23.787  1.00  0.00     0.241 C
HETATM   18  O3  UNL     1      31.805  21.311  23.989  1.00  0.00    -0.271 OA
HETATM   19  C26 UNL     1      30.025  19.785  24.408  1.00  0.00     0.174 C
HETATM   20  C27 UNL     1      28.903  20.545  23.685  1.00  0.00     0.042 C
HETATM   21  N5  UNL     1      29.973  20.113  25.830  1.00  0.00    -0.342 N
HETATM   22  C28 UNL     1      30.048  21.553  26.128  1.00  0.00     0.153 C
HETATM   23  C29 UNL     1      29.872  19.187  26.878  1.00  0.00     0.243 C
HETATM   24  O4  UNL     1      30.510  19.485  27.940  1.00  0.00    -0.271 OA
ENDROOT
BRANCH   1  25
HETATM   25  C6  UNL     1      27.683  18.096  26.441  1.00  0.00     0.035 C
BRANCH  25  26
HETATM   26  C5  UNL     1      26.990  19.207  27.187  1.00  0.00     0.002 C
BRANCH  26  27
HETATM   27  C4  UNL     1      26.183  20.109  26.253  1.00  0.00     0.001 C
BRANCH  27  28
HETATM   28  C3  UNL     1      26.271  21.533  26.673  1.00  0.00     0.010 C
BRANCH  28  29
HETATM   29  C2  UNL     1      25.582  21.922  27.920  1.00  0.00     0.073 C
BRANCH  29  30
HETATM   30  S1  UNL     1      26.529  22.800  29.144  1.00  0.00    -0.173 SA
HETATM   31  C1  UNL     1      28.117  22.002  29.448  1.00  0.00     0.089 C
ENDBRANCH  29  30
ENDBRANCH  28  29
ENDBRANCH  27  28
ENDBRANCH  26  27
ENDBRANCH  25  26
ENDBRANCH   1  25
BRANCH   6  32
HETATM   32  C10 UNL     1      27.381  15.107  24.184  1.00  0.00     0.257 C
HETATM   33  F1  UNL     1      26.338  16.002  24.199  1.00  0.00    -0.253 F
ENDBRANCH   6  32
BRANCH  11  34
HETATM   34  C13 UNL     1      30.517  16.427  20.404  1.00  0.00     0.067 C
BRANCH  34  35
HETATM   35  C14 UNL     1      30.615  15.067  19.766  1.00  0.00    -0.017 C
HETATM   36  C15 UNL     1      29.339  14.302  19.699  1.00  0.00     0.010 C
HETATM   37  C16 UNL     1      31.108  15.252  18.333  1.00  0.00     0.010 C
ENDBRANCH  34  35
ENDBRANCH  11  34
BRANCH  14  38
HETATM   38  C22 UNL     1      33.533  17.652  24.068  1.00  0.00     0.029 A
HETATM   39  C23 UNL     1      33.363  16.750  25.272  1.00  0.00     0.009 A
HETATM   40  C24 UNL     1      33.532  18.211  25.471  1.00  0.00     0.009 A
ENDBRANCH  14  38
BRANCH  13  41
HETATM   41  C18 UNL     1      34.158  16.846  20.214  1.00  0.00     0.062 C
HETATM   42  C19 UNL     1      34.298  15.734  19.278  1.00  0.00     0.038 C
HETATM   43  C20 UNL     1      33.449  17.986  19.419  1.00  0.00     0.038 C
HETATM   44 CL1  UNL     1      35.822  17.578  20.471  1.00  0.00    -0.114 Cl
ENDBRANCH  13  41
TORSDOF 11
ENDMDL