MODEL 3
REMARK VINA RESULT: -8.689887879      2.075      2.957
REMARK  14 active torsions:
REMARK  status: ('A' for Active; 'I' for Inactive)
REMARK    1  A    between atoms: C2_2  and  N1_3
REMARK    2  A    between atoms: N1_3  and  C3_4
REMARK    3  A    between atoms: N1_3  and  C5_6
REMARK    4  A    between atoms: C5_6  and  C6_7
REMARK    5  A    between atoms: C6_7  and  N2_8
REMARK    6  A    between atoms: N2_8  and  C7_9
REMARK       I    between atoms: N2_8  and  C25_38
REMARK    7  A    between atoms: C7_9  and  C8_10
REMARK    8  A    between atoms: C8_10  and  C9_11
REMARK    9  A    between atoms: C9_11  and  N3_12
REMARK   10  A    between atoms: N3_12  and  C10_14
REMARK   11  A    between atoms: N4_16  and  C11_18
REMARK   12  A    between atoms: C14_25  and  N7_26
REMARK   13  A    between atoms: N7_26  and  C15_28
REMARK   14  A    between atoms: C25_38  and  C26_40
ROOT
HETATM    1  C26 UNL     1      20.251  12.114  28.569  1.00  0.00     0.256 C
HETATM    2 BR1  UNL     1      19.116  11.908  30.144  1.00  0.00    -0.065 Br
HETATM    3  C27 UNL     1      20.877  13.464  28.731  1.00  0.00     0.085 C
HETATM    4  N8  UNL     1      21.367  14.502  28.837  1.00  0.00    -0.196 NA
ENDROOT
BRANCH   1   5
HETATM    5  C25 UNL     1      19.466  12.092  27.337  1.00  0.00     0.248 C
HETATM    6  N2  UNL     1      19.967  11.874  26.032  1.00  0.00    -0.349 N
HETATM    7  O1  UNL     1      18.196  12.284  27.480  1.00  0.00    -0.271 OA
BRANCH   6   8
HETATM    8  C6  UNL     1      19.025  11.758  24.907  1.00  0.00     0.156 C
BRANCH   8   9
HETATM    9  C5  UNL     1      18.622  10.377  24.573  1.00  0.00     0.292 C
BRANCH   9  10
HETATM   10  N1  UNL     1      17.236  10.220  24.199  1.00  0.00     0.089 N
BRANCH  10  11
HETATM   11  C2  UNL     1      16.485   9.624  25.313  1.00  0.00     0.268 C
HETATM   12  C1  UNL     1      15.741   8.438  24.758  1.00  0.00     0.037 C
ENDBRANCH  10  11
BRANCH  10  13
HETATM   13  C3  UNL     1      16.635  11.515  23.878  1.00  0.00     0.268 C
HETATM   14  C4  UNL     1      15.730  11.502  22.698  1.00  0.00     0.037 C
ENDBRANCH  10  13
ENDBRANCH   9  10
ENDBRANCH   8   9
ENDBRANCH   6   8
BRANCH   6  15
HETATM   15  C7  UNL     1      21.363  11.878  25.751  1.00  0.00     0.127 C
BRANCH  15  16
HETATM   16  C8  UNL     1      21.742  12.398  24.391  1.00  0.00     0.039 C
BRANCH  16  17
HETATM   17  C9  UNL     1      23.203  12.406  24.186  1.00  0.00     0.123 C
BRANCH  17  18
HETATM   18  N3  UNL     1      23.718  13.760  23.921  1.00  0.00    -0.367 N
ATOM     19  H3  UNL     1      23.272  14.392  23.258  1.00  0.00     0.161 HD
BRANCH  18  20
HETATM   20  C10 UNL     1      24.900  14.132  24.666  1.00  0.00     0.173 C
HETATM   21  S1  UNL     1      24.742  15.322  25.796  1.00  0.00    -0.041 SA
HETATM   22  N4  UNL     1      26.103  13.523  24.481  1.00  0.00    -0.317 N
ATOM     23  H4  UNL     1      26.214  12.719  25.099  1.00  0.00     0.170 HD
BRANCH  22  24
HETATM   24  C11 UNL     1      27.116  13.686  23.748  1.00  0.00     0.149 A
HETATM   25  N5  UNL     1      28.166  14.422  24.260  1.00  0.00    -0.284 N
HETATM   26  N6  UNL     1      29.262  14.657  23.597  1.00  0.00    -0.310 N
ATOM     27  H5  UNL     1      28.079  14.800  25.203  1.00  0.00     0.188 HD
HETATM   28  C12 UNL     1      29.434  14.187  22.354  1.00  0.00     0.109 A
ATOM     29  H6  UNL     1      30.001  15.207  24.031  1.00  0.00     0.186 HD
HETATM   30  C13 UNL     1      28.445  13.443  21.756  1.00  0.00     0.051 A
HETATM   31  C14 UNL     1      27.284  13.193  22.453  1.00  0.00     0.075 A
BRANCH  31  32
HETATM   32  N7  UNL     1      26.313  12.500  21.952  1.00  0.00    -0.381 N
ATOM     33  H7  UNL     1      25.619  12.077  22.569  1.00  0.00     0.160 HD
BRANCH  32  34
HETATM   34  C15 UNL     1      26.207  12.325  20.539  1.00  0.00     0.090 C
HETATM   35  C16 UNL     1      24.846  12.753  20.081  1.00  0.00     0.009 C
HETATM   36  C17 UNL     1      24.827  12.635  18.570  1.00  0.00     0.011 C
HETATM   37  C21 UNL     1      23.809  11.853  20.697  1.00  0.00     0.011 C
HETATM   38  C18 UNL     1      25.117  11.198  18.222  1.00  0.00    -0.013 C
HETATM   39  C19 UNL     1      24.070  10.312  18.845  1.00  0.00     0.009 C
HETATM   40  C24 UNL     1      26.478  10.752  18.697  1.00  0.00     0.011 C
HETATM   41  C20 UNL     1      24.094  10.430  20.358  1.00  0.00    -0.013 C
HETATM   42  C22 UNL     1      25.455  10.002  20.823  1.00  0.00     0.011 C
HETATM   43  C23 UNL     1      26.502  10.861  20.213  1.00  0.00     0.009 C
ENDBRANCH  32  34
ENDBRANCH  31  32
ENDBRANCH  22  24
ENDBRANCH  18  20
ENDBRANCH  17  18
ENDBRANCH  16  17
ENDBRANCH  15  16
ENDBRANCH   6  15
ENDBRANCH   1   5
TORSDOF 14
ENDMDL