MODEL 2
REMARK VINA RESULT: -8.133881062      1.502      2.073
REMARK  13 active torsions:
REMARK  status: ('A' for Active; 'I' for Inactive)
REMARK       I    between atoms: N1_2  and  C2_4
REMARK    1  A    between atoms: N3_6  and  C3_8
REMARK    2  A    between atoms: C3_8  and  C4_9
REMARK    3  A    between atoms: C4_9  and  C5_10
REMARK    4  A    between atoms: C5_10  and  N4_11
REMARK    5  A    between atoms: N4_11  and  C7_13
REMARK    6  A    between atoms: C7_13  and  C8_14
REMARK    7  A    between atoms: C8_14  and  C9_15
REMARK    8  A    between atoms: C9_15  and  N5_16
REMARK    9  A    between atoms: N5_16  and  C10_17
REMARK   10  A    between atoms: C17_28  and  N7_29
REMARK       I    between atoms: N7_29  and  C18_31
REMARK   11  A    between atoms: N8_34  and  C20_35
REMARK   12  A    between atoms: C20_35  and  C21_36
REMARK   13  A    between atoms: C21_36  and  C22_37
ROOT
HETATM    1  C10 UNL     1      26.381  12.888  22.242  1.00  0.00     0.207 A
HETATM    2  C11 UNL     1      26.898  13.752  23.252  1.00  0.00     0.051 A
HETATM    3  C12 UNL     1      26.100  14.714  23.852  1.00  0.00     0.039 A
HETATM    4  C13 UNL     1      26.598  15.562  24.821  1.00  0.00     0.029 A
HETATM    5 BR1  UNL     1      25.527  16.873  25.674  1.00  0.00    -0.050 Br
HETATM    6  C14 UNL     1      27.922  15.451  25.201  1.00  0.00     0.030 A
HETATM    7 BR2  UNL     1      28.686  16.600  26.547  1.00  0.00    -0.050 Br
HETATM    8  C15 UNL     1      28.702  14.485  24.592  1.00  0.00     0.051 A
HETATM    9  C16 UNL     1      28.200  13.623  23.613  1.00  0.00     0.065 A
HETATM   10  N6  UNL     1      28.979  12.702  23.038  1.00  0.00    -0.190 N
ATOM     11  H6  UNL     1      29.956  12.608  23.315  1.00  0.00     0.184 HD
HETATM   12  C17 UNL     1      28.451  11.889  22.073  1.00  0.00     0.690 A
HETATM   13  N8  UNL     1      27.189  11.959  21.661  1.00  0.00    -0.154 N
ENDROOT
BRANCH   1  14
HETATM   14  N5  UNL     1      25.200  13.015  22.039  1.00  0.00    -0.402 NA
BRANCH  14  15
HETATM   15  C9  UNL     1      23.887  13.138  21.828  1.00  0.00     0.159 C
BRANCH  15  16
HETATM   16  C8  UNL     1      23.076  11.861  21.990  1.00  0.00     0.089 C
BRANCH  16  17
HETATM   17  C7  UNL     1      22.909  11.314  23.339  1.00  0.00     0.278 C
BRANCH  17  18
HETATM   18  N4  UNL     1      21.620  10.884  23.805  1.00  0.00     0.084 N
HETATM   19  C6  UNL     1      21.736   9.679  24.591  1.00  0.00     0.309 C
BRANCH  18  20
HETATM   20  C5  UNL     1      21.130  11.898  24.774  1.00  0.00     0.273 C
BRANCH  20  21
HETATM   21  C4  UNL     1      20.996  11.361  26.152  1.00  0.00     0.050 C
BRANCH  21  22
HETATM   22  C3  UNL     1      21.692  12.272  27.178  1.00  0.00     0.124 C
BRANCH  22  23
HETATM   23  N3  UNL     1      20.824  12.291  28.350  1.00  0.00    -0.365 N
HETATM   24  C2  UNL     1      20.662  13.330  29.082  1.00  0.00     0.183 C
HETATM   25  N1  UNL     1      19.816  13.357  30.216  1.00  0.00    -0.369 N
HETATM   26  N2  UNL     1      21.381  14.516  28.720  1.00  0.00    -0.064 NA
HETATM   27  C1  UNL     1      19.906  12.423  31.295  1.00  0.00     0.148 C
ATOM     28  H1  UNL     1      19.102  14.084  30.266  1.00  0.00     0.161 HD
ATOM     29  H3  UNL     1      20.322  11.438  28.597  1.00  0.00     0.162 HD
ENDBRANCH  22  23
ENDBRANCH  21  22
ENDBRANCH  20  21
ENDBRANCH  18  20
ENDBRANCH  17  18
ENDBRANCH  16  17
ENDBRANCH  15  16
ENDBRANCH  14  15
ENDBRANCH   1  14
BRANCH  13  30
HETATM   30  C20 UNL     1      26.673  11.121  20.578  1.00  0.00     0.151 C
BRANCH  30  31
HETATM   31  C21 UNL     1      26.685  11.854  19.270  1.00  0.00     0.025 C
BRANCH  31  32
HETATM   32  C22 UNL     1      25.670  11.534  18.246  1.00  0.00    -0.021 C
HETATM   33  C23 UNL     1      24.729  12.779  18.205  1.00  0.00     0.009 C
HETATM   34  C24 UNL     1      24.706  10.413  18.586  1.00  0.00     0.009 C
ENDBRANCH  31  32
ENDBRANCH  30  31
ENDBRANCH  13  30
BRANCH  12  35
HETATM   35  N7  UNL     1      29.181  10.907  21.645  1.00  0.00    -0.160 N
HETATM   36  C18 UNL     1      29.339   9.644  22.238  1.00  0.00     0.231 C
HETATM   37  C19 UNL     1      30.212   9.238  23.329  1.00  0.00     0.118 C
HETATM   38  O1  UNL     1      28.598   8.712  21.731  1.00  0.00    -0.273 OA
ATOM     39  H7  UNL     1      29.698  11.070  20.781  1.00  0.00     0.187 HD
ENDBRANCH  12  35
TORSDOF 13
ENDMDL