MODEL 3
REMARK VINA RESULT: -8.520690358      7.677     14.195
REMARK  15 active torsions:
REMARK  status: ('A' for Active; 'I' for Inactive)
REMARK    1  A    between atoms: C2_2  and  C4_4
REMARK    2  A    between atoms: C4_4  and  C5_5
REMARK    3  A    between atoms: C5_5  and  O1_6
REMARK    4  A    between atoms: C5_5  and  N1_8
REMARK    5  A    between atoms: N1_8  and  C7_10
REMARK       I    between atoms: N2_13  and  C10_14
REMARK    6  A    between atoms: C10_14  and  C11_16
REMARK    7  A    between atoms: C11_16  and  N3_17
REMARK    8  A    between atoms: C11_16  and  C28_44
REMARK       I    between atoms: N3_17  and  C12_19
REMARK    9  A    between atoms: C12_19  and  C13_21
REMARK   10  A    between atoms: C13_21  and  N4_22
REMARK   11  A    between atoms: C13_21  and  C25_41
REMARK       I    between atoms: N4_22  and  C14_24
REMARK   12  A    between atoms: C14_24  and  C15_26
REMARK   13  A    between atoms: C15_26  and  N5_27
REMARK   14  A    between atoms: C15_26  and  C21_37
REMARK       I    between atoms: N5_27  and  C16_29
REMARK   15  A    between atoms: C16_29  and  C17_31
ROOT
HETATM    1  N3  UNL     1      26.187  12.282  20.315  1.00  0.00    -0.346 N
ATOM      2  H3  UNL     1      26.798  11.567  19.920  1.00  0.00     0.163 HD
HETATM    3  C12 UNL     1      26.776  13.260  21.164  1.00  0.00     0.241 C
HETATM    4  O3  UNL     1      25.983  14.129  21.589  1.00  0.00    -0.271 OA
ENDROOT
BRANCH   3   5
HETATM    5  C13 UNL     1      28.212  13.186  21.483  1.00  0.00     0.180 C
BRANCH   5   6
HETATM    6  N4  UNL     1      28.653  14.343  22.279  1.00  0.00    -0.342 N
HETATM    7  C14 UNL     1      29.010  14.230  23.639  1.00  0.00     0.265 C
HETATM    8  O4  UNL     1      28.915  13.027  24.081  1.00  0.00    -0.266 OA
ATOM      9  H4  UNL     1      28.703  15.258  21.832  1.00  0.00     0.163 HD
BRANCH   7  10
HETATM   10  C15 UNL     1      29.449  15.246  24.580  1.00  0.00     0.087 C
BRANCH  10  11
HETATM   11  N5  UNL     1      30.749  15.832  24.411  1.00  0.00    -0.325 N
HETATM   12  C16 UNL     1      31.811  15.591  23.600  1.00  0.00     0.226 C
HETATM   13  O5  UNL     1      31.977  14.779  22.690  1.00  0.00    -0.273 OA
ATOM     14  H5  UNL     1      30.913  16.611  25.048  1.00  0.00     0.169 HD
BRANCH  12  15
HETATM   15  C17 UNL     1      33.076  16.458  23.840  1.00  0.00     0.089 C
HETATM   16  C18 UNL     1      32.531  17.900  23.738  1.00  0.00     0.093 C
HETATM   17  C19 UNL     1      33.271  18.255  25.028  1.00  0.00     0.245 C
HETATM   18  F1  UNL     1      32.514  18.904  25.974  1.00  0.00    -0.206 F
HETATM   19  F2  UNL     1      34.456  18.906  24.819  1.00  0.00    -0.206 F
HETATM   20  C20 UNL     1      33.378  16.746  25.253  1.00  0.00     0.093 C
ENDBRANCH  12  15
ENDBRANCH  10  11
BRANCH  10  21
HETATM   21  C21 UNL     1      28.432  16.229  25.049  1.00  0.00    -0.003 C
HETATM   22  C22 UNL     1      28.457  16.382  26.576  1.00  0.00     0.021 C
HETATM   23  C23 UNL     1      27.029  15.918  24.651  1.00  0.00     0.021 C
HETATM   24  C24 UNL     1      28.768  17.632  24.536  1.00  0.00     0.021 C
ENDBRANCH  10  21
ENDBRANCH   7  10
ENDBRANCH   5   6
BRANCH   5  25
HETATM   25  C25 UNL     1      29.116  12.825  20.363  1.00  0.00     0.009 C
HETATM   26  C26 UNL     1      30.004  11.613  20.700  1.00  0.00     0.012 C
HETATM   27  C27 UNL     1      29.978  13.945  19.847  1.00  0.00     0.012 C
ENDBRANCH   5  25
ENDBRANCH   3   5
BRANCH   1  28
HETATM   28  C11 UNL     1      24.763  12.230  19.967  1.00  0.00     0.180 C
BRANCH  28  29
HETATM   29  C10 UNL     1      24.149  11.066  20.657  1.00  0.00     0.243 C
HETATM   30  N2  UNL     1      23.381  11.084  21.834  1.00  0.00    -0.348 N
HETATM   31  C9  UNL     1      22.835   9.849  22.438  1.00  0.00     0.128 C
HETATM   32  C31 UNL     1      22.959  12.220  22.678  1.00  0.00     0.151 C
HETATM   33  C8  UNL     1      21.938  10.314  23.559  1.00  0.00     0.047 C
HETATM   34  C7  UNL     1      22.756  11.570  23.988  1.00  0.00     0.105 C
HETATM   35  O2  UNL     1      24.333   9.905  20.139  1.00  0.00    -0.271 OA
BRANCH  34  36
HETATM   36  N1  UNL     1      22.080  12.266  25.012  1.00  0.00    -0.363 N
HETATM   37  C6  UNL     1      22.866  13.382  25.631  1.00  0.00     0.152 C
BRANCH  36  38
HETATM   38  C5  UNL     1      20.805  12.037  25.580  1.00  0.00     0.113 C
BRANCH  38  39
HETATM   39  C4  UNL     1      20.452  11.335  26.804  1.00  0.00     0.087 C
BRANCH  39  40
HETATM   40  C2  UNL     1      20.330  12.249  28.016  1.00  0.00    -0.015 C
HETATM   41  C1  UNL     1      19.165  11.882  28.891  1.00  0.00     0.010 C
HETATM   42  C3  UNL     1      21.570  12.356  28.830  1.00  0.00     0.010 C
ENDBRANCH  39  40
ENDBRANCH  38  39
BRANCH  38  43
HETATM   43  O1  UNL     1      19.783  12.515  24.921  1.00  0.00    -0.349 OA
ATOM     44  H1  UNL     1      19.979  12.770  24.026  1.00  0.00     0.219 HD
ENDBRANCH  38  43
ENDBRANCH  36  38
ENDBRANCH  34  36
ENDBRANCH  28  29
BRANCH  28  45
HETATM   45  C28 UNL     1      24.649  12.014  18.480  1.00  0.00     0.009 C
HETATM   46  C29 UNL     1      23.938  13.223  17.881  1.00  0.00     0.012 C
HETATM   47  C30 UNL     1      25.995  11.879  17.848  1.00  0.00     0.012 C
ENDBRANCH  28  45
ENDBRANCH   1  28
TORSDOF 15
ENDMDL