MODEL 5
REMARK VINA RESULT: -7.783464716      5.430      7.718
REMARK  12 active torsions:
REMARK  status: ('A' for Active; 'I' for Inactive)
REMARK       I    between atoms: C2_2  and  N1_4
REMARK    1  A    between atoms: N1_4  and  C3_6
REMARK    2  A    between atoms: C3_6  and  C4_7
REMARK    3  A    between atoms: C4_7  and  C5_8
REMARK    4  A    between atoms: C5_8  and  C6_9
REMARK    5  A    between atoms: C6_9  and  C7_10
REMARK       I    between atoms: C7_10  and  N2_12
REMARK    6  A    between atoms: N2_12  and  C9_14
REMARK    7  A    between atoms: C9_14  and  C10_15
REMARK    8  A    between atoms: C10_15  and  N3_17
REMARK    9  A    between atoms: C15_21  and  C16_22
REMARK   10  A    between atoms: C16_22  and  N4_23
REMARK       I    between atoms: N4_23  and  C17_25
REMARK       I    between atoms: C17_25  and  N5_27
REMARK   11  A    between atoms: N5_27  and  C18_29
REMARK   12  A    between atoms: C24_36  and  C26_38
ROOT
HETATM    1  N3  UNL     1      26.880  13.426  19.893  1.00  0.00    -0.262 N
HETATM    2  C12 UNL     1      27.004  12.953  21.269  1.00  0.00     0.147 C
HETATM    3  C13 UNL     1      25.755  13.034  22.053  1.00  0.00     0.009 C
HETATM    4  C14 UNL     1      25.162  14.419  21.863  1.00  0.00     0.012 C
HETATM    5  C15 UNL     1      24.816  11.913  22.000  1.00  0.00     0.038 C
HETATM    6  C24 UNL     1      24.463  11.286  20.722  1.00  0.00     0.058 C
HETATM    7  C25 UNL     1      23.262  11.905  20.034  1.00  0.00     0.041 C
HETATM    8  N6  UNL     1      25.493  11.086  19.777  1.00  0.00    -0.287 N
HETATM    9  C27 UNL     1      26.401  10.045  19.990  1.00  0.00     0.165 C
HETATM   10  S1  UNL     1      26.054  12.421  18.891  1.00  0.00     0.323 S
HETATM   11  O4  UNL     1      26.673  11.922  17.634  1.00  0.00    -0.182 OA
HETATM   12  O5  UNL     1      24.820  13.216  18.359  1.00  0.00    -0.182 OA
ENDROOT
BRANCH   1  13
HETATM   13  C10 UNL     1      27.989  14.220  19.502  1.00  0.00     0.035 C
HETATM   14  C11 UNL     1      27.766  14.818  18.175  1.00  0.00     0.070 C
BRANCH  13  15
HETATM   15  C9  UNL     1      29.358  13.930  19.946  1.00  0.00     0.118 C
BRANCH  15  16
HETATM   16  N2  UNL     1      30.306  14.847  20.396  1.00  0.00    -0.331 N
HETATM   17  C7  UNL     1      30.609  15.091  21.738  1.00  0.00     0.223 C
HETATM   18  O2  UNL     1      31.571  15.894  21.994  1.00  0.00    -0.273 OA
HETATM   19  C8  UNL     1      31.153  15.557  19.418  1.00  0.00     0.158 C
BRANCH  17  20
HETATM   20  C6  UNL     1      29.953  14.535  22.937  1.00  0.00     0.103 C
BRANCH  20  21
HETATM   21  C5  UNL     1      30.335  15.262  24.206  1.00  0.00     0.011 C
BRANCH  21  22
HETATM   22  C4  UNL     1      29.348  15.109  25.314  1.00  0.00     0.020 C
BRANCH  22  23
HETATM   23  C3  UNL     1      27.967  14.755  24.816  1.00  0.00     0.122 C
BRANCH  23  24
HETATM   24  N1  UNL     1      26.969  15.730  25.106  1.00  0.00    -0.361 N
HETATM   25  C2  UNL     1      25.644  15.320  25.388  1.00  0.00     0.213 C
HETATM   26  C1  UNL     1      24.571  16.299  25.697  1.00  0.00     0.117 C
HETATM   27  O1  UNL     1      25.392  14.072  25.373  1.00  0.00    -0.274 OA
ATOM     28  H1  UNL     1      27.209  16.721  25.111  1.00  0.00     0.162 HD
ENDBRANCH  23  24
ENDBRANCH  22  23
ENDBRANCH  21  22
ENDBRANCH  20  21
ENDBRANCH  17  20
ENDBRANCH  15  16
ENDBRANCH  13  15
ENDBRANCH   1  13
BRANCH   5  29
HETATM   29  C16 UNL     1      23.542  12.293  22.723  1.00  0.00     0.132 C
BRANCH  29  30
HETATM   30  N4  UNL     1      23.546  11.854  24.094  1.00  0.00    -0.342 N
HETATM   31  C17 UNL     1      22.444  12.238  24.934  1.00  0.00     0.320 C
HETATM   32  O3  UNL     1      21.570  12.936  24.373  1.00  0.00    -0.247 OA
HETATM   33  N5  UNL     1      22.390  11.836  26.280  1.00  0.00    -0.309 N
ATOM     34  H5  UNL     1      23.178  11.274  26.603  1.00  0.00     0.170 HD
ATOM     35  H4  UNL     1      24.310  11.286  24.460  1.00  0.00     0.164 HD
BRANCH  33  36
HETATM   36  C18 UNL     1      21.402  12.103  27.242  1.00  0.00     0.036 A
HETATM   37  C19 UNL     1      21.593  12.844  28.380  1.00  0.00     0.032 A
HETATM   38  C20 UNL     1      20.568  13.089  29.309  1.00  0.00     0.044 A
HETATM   39  C21 UNL     1      19.312  12.583  29.099  1.00  0.00     0.116 A
HETATM   40  F1  UNL     1      18.328  12.830  30.015  1.00  0.00    -0.206 F
HETATM   41  C22 UNL     1      19.091  11.840  27.974  1.00  0.00     0.044 A
HETATM   42  C23 UNL     1      20.096  11.605  27.072  1.00  0.00     0.032 A
ENDBRANCH  33  36
ENDBRANCH  29  30
ENDBRANCH   5  29
BRANCH   6  43
HETATM   43  C26 UNL     1      23.966   9.848  21.027  1.00  0.00     0.146 C
HETATM   44 CL1  UNL     1      22.438   9.688  20.092  1.00  0.00    -0.128 Cl
ENDBRANCH   6  43
TORSDOF 12
ENDMDL