MODEL 2
REMARK VINA RESULT: -5.903790330      5.307      8.361
REMARK  13 active torsions:
REMARK  status: ('A' for Active; 'I' for Inactive)
REMARK    1  A    between atoms: C2_2  and  C3_3
REMARK    2  A    between atoms: C3_3  and  N1_4
REMARK    3  A    between atoms: C5_9  and  C6_10
REMARK    4  A    between atoms: C5_9  and  C7_12
REMARK    5  A    between atoms: C7_12  and  C8_13
REMARK    6  A    between atoms: C8_13  and  C9_14
REMARK    7  A    between atoms: C9_14  and  C10_15
REMARK    8  A    between atoms: C14_20  and  O2_21
REMARK    9  A    between atoms: C15_23  and  N3_24
REMARK       I    between atoms: N4_28  and  C16_29
REMARK   10  A    between atoms: C16_29  and  C17_31
REMARK   11  A    between atoms: C17_31  and  C18_32
REMARK   12  A    between atoms: C18_32  and  O4_33
REMARK   13  A    between atoms: O4_33  and  C19_34
ROOT
HETATM    1  C8  UNL     1      27.739  12.684  19.523  1.00  0.00    -0.023 C
HETATM    2  C11 UNL     1      26.647  12.508  18.474  1.00  0.00     0.025 C
HETATM    3  C12 UNL     1      25.967  11.216  18.419  1.00  0.00    -0.021 C
HETATM    4  C13 UNL     1      24.937  10.656  19.263  1.00  0.00     0.011 C
HETATM    5  C14 UNL     1      24.951  10.608  20.737  1.00  0.00     0.127 C
HETATM    6  C15 UNL     1      23.652  10.870  21.457  1.00  0.00     0.325 C
HETATM    7  N4  UNL     1      23.946  11.767  22.555  1.00  0.00    -0.315 N
HETATM    8  C16 UNL     1      22.987  12.128  23.582  1.00  0.00     0.224 C
HETATM    9  O3  UNL     1      23.397  12.892  24.470  1.00  0.00    -0.273 OA
HETATM   10  C21 UNL     1      25.338  12.262  22.466  1.00  0.00     0.106 A
HETATM   11  C22 UNL     1      25.849  11.611  21.383  1.00  0.00     0.062 A
HETATM   12  C23 UNL     1      25.713  12.983  21.216  1.00  0.00    -0.009 A
HETATM   13  C24 UNL     1      24.820  14.162  21.551  1.00  0.00     0.018 C
HETATM   14  C25 UNL     1      26.657  13.355  20.248  1.00  0.00     0.014 C
HETATM   15  C26 UNL     1      25.889  13.717  18.959  1.00  0.00    -0.035 C
HETATM   16  C27 UNL     1      24.479  13.469  18.681  1.00  0.00     0.016 C
HETATM   17  C28 UNL     1      26.200  15.081  18.395  1.00  0.00     0.016 C
ENDROOT
BRANCH   1  18
HETATM   18  C7  UNL     1      28.872  13.605  19.130  1.00  0.00     0.066 C
BRANCH  18  19
HETATM   19  C5  UNL     1      29.655  14.544  19.764  1.00  0.00     0.127 C
HETATM   20  N1  UNL     1      29.884  15.016  21.076  1.00  0.00    -0.303 N
HETATM   21  C4  UNL     1      31.152  15.639  20.620  1.00  0.00     0.322 C
HETATM   22  O1  UNL     1      31.893  16.572  20.929  1.00  0.00    -0.247 OA
HETATM   23  N2  UNL     1      31.112  14.637  19.639  1.00  0.00    -0.315 N
ATOM     24  H2  UNL     1      31.813  14.165  19.069  1.00  0.00     0.166 HD
BRANCH  20  25
HETATM   25  C3  UNL     1      29.398  15.153  22.414  1.00  0.00     0.157 C
BRANCH  25  26
HETATM   26  C2  UNL     1      28.930  13.947  23.093  1.00  0.00    -0.017 C
HETATM   27  C1  UNL     1      28.046  13.871  24.061  1.00  0.00     0.008 C
ENDBRANCH  25  26
ENDBRANCH  20  25
BRANCH  19  28
HETATM   28  C6  UNL     1      29.236  15.927  19.063  1.00  0.00     0.168 C
HETATM   29 CL1  UNL     1      29.670  15.801  17.348  1.00  0.00    -0.126 Cl
ENDBRANCH  19  28
ENDBRANCH  18  19
ENDBRANCH   1  18
BRANCH   1  30
HETATM   30  C9  UNL     1      28.385  11.403  19.739  1.00  0.00     0.021 C
BRANCH  30  31
HETATM   31  C10 UNL     1      29.637  11.381  20.634  1.00  0.00     0.086 C
HETATM   32 BR1  UNL     1      29.308  10.084  22.077  1.00  0.00    -0.096 Br
ENDBRANCH  30  31
ENDBRANCH   1  30
BRANCH   5  33
HETATM   33  O2  UNL     1      25.274   9.286  21.194  1.00  0.00    -0.381 OA
ATOM     34  H2  UNL     1      25.297   9.258  22.144  1.00  0.00     0.211 HD
ENDBRANCH   5  33
BRANCH   6  35
HETATM   35  N3  UNL     1      23.001   9.648  21.900  1.00  0.00    -0.055 N
ATOM     36  H33 UNL     1      23.552   8.827  21.647  1.00  0.00     0.276 HD
ATOM     37  H32 UNL     1      23.034   9.562  22.915  1.00  0.00     0.276 HD
ATOM     38  H31 UNL     1      22.044   9.566  21.556  1.00  0.00     0.276 HD
ENDBRANCH   6  35
BRANCH   8  39
HETATM   39  C17 UNL     1      21.631  11.628  23.584  1.00  0.00     0.129 C
BRANCH  39  40
HETATM   40  C18 UNL     1      20.855  11.910  24.830  1.00  0.00     0.176 C
BRANCH  40  41
HETATM   41  O4  UNL     1      19.686  12.477  24.809  1.00  0.00    -0.391 OA
BRANCH  41  42
HETATM   42  C19 UNL     1      18.448  12.110  24.939  1.00  0.00     0.163 C
HETATM   43  C20 UNL     1      18.105  10.636  24.697  1.00  0.00     0.033 C
ENDBRANCH  41  42
ENDBRANCH  40  41
ENDBRANCH  39  40
ENDBRANCH   8  39
TORSDOF 13
ENDMDL