MODEL 2
REMARK VINA RESULT: -7.563400860      0.967      1.018
REMARK  15 active torsions:
REMARK  status: ('A' for Active; 'I' for Inactive)
REMARK    1  A    between atoms: C4_6  and  C5_7
REMARK    2  A    between atoms: C9_13  and  C10_14
REMARK    3  A    between atoms: C10_14  and  O2_15
REMARK    4  A    between atoms: C10_14  and  C11_17
REMARK    5  A    between atoms: C11_17  and  O3_18
REMARK    6  A    between atoms: C11_17  and  C12_20
REMARK    7  A    between atoms: C12_20  and  C13_21
REMARK    8  A    between atoms: C14_22  and  C15_23
REMARK    9  A    between atoms: C15_23  and  C16_24
REMARK   10  A    between atoms: C16_24  and  C17_25
REMARK   11  A    between atoms: C17_25  and  C18_26
REMARK   12  A    between atoms: C18_26  and  C19_27
REMARK   13  A    between atoms: C19_27  and  C20_28
REMARK   14  A    between atoms: N3_34  and  C23_35
REMARK   15  A    between atoms: C23_35  and  C24_36
ROOT
HETATM    1  O1  UNL     1      31.007  14.502  22.969  1.00  0.00    -0.270 OA
HETATM    2  C1  UNL     1      30.409  14.407  21.848  1.00  0.00     0.253 C
HETATM    3  C2  UNL     1      29.312  13.464  21.733  1.00  0.00     0.247 C
HETATM    4  S1  UNL     1      28.186  13.855  23.150  1.00  0.00    -0.097 SA
HETATM    5  C3  UNL     1      26.688  13.534  22.244  1.00  0.00     0.008 C
HETATM    6  C4  UNL     1      25.486  13.743  22.664  1.00  0.00     0.045 C
HETATM    7  C9  UNL     1      27.179  12.994  20.960  1.00  0.00     0.160 C
HETATM    8  N2  UNL     1      28.383  13.691  20.641  1.00  0.00    -0.316 N
HETATM    9  C21 UNL     1      28.869  14.502  19.576  1.00  0.00     0.239 C
HETATM   10  O4  UNL     1      28.104  14.900  18.692  1.00  0.00    -0.271 OA
HETATM   11  C22 UNL     1      30.300  14.904  19.475  1.00  0.00     0.228 C
HETATM   12  N3  UNL     1      30.836  15.219  20.776  1.00  0.00    -0.340 N
ENDROOT
BRANCH   7  13
HETATM   13  C10 UNL     1      26.096  12.909  19.983  1.00  0.00     0.175 C
BRANCH  13  14
HETATM   14  O2  UNL     1      25.555  14.071  19.504  1.00  0.00    -0.391 OA
ATOM     15  H2  UNL     1      25.575  14.843  20.057  1.00  0.00     0.210 HD
ENDBRANCH  13  14
BRANCH  13  16
HETATM   16  C11 UNL     1      26.323  11.863  18.880  1.00  0.00     0.160 C
BRANCH  16  17
HETATM   17  O3  UNL     1      26.970  10.752  19.418  1.00  0.00    -0.392 OA
ATOM     18  H3  UNL     1      26.348  10.041  19.520  1.00  0.00     0.210 HD
ENDBRANCH  16  17
BRANCH  16  19
HETATM   19  C12 UNL     1      24.982  11.361  18.362  1.00  0.00     0.128 C
BRANCH  19  20
HETATM   20  C13 UNL     1      24.166  10.861  19.436  1.00  0.00    -0.104 C
HETATM   21  C14 UNL     1      23.489  10.462  20.349  1.00  0.00    -0.106 C
BRANCH  21  22
HETATM   22  C15 UNL     1      22.652  10.002  21.464  1.00  0.00     0.094 C
BRANCH  22  23
HETATM   23  C16 UNL     1      22.866  10.805  22.706  1.00  0.00     0.012 C
BRANCH  23  24
HETATM   24  C17 UNL     1      22.491  10.002  23.958  1.00  0.00     0.001 C
BRANCH  24  25
HETATM   25  C18 UNL     1      21.048  10.179  24.300  1.00  0.00     0.001 C
BRANCH  25  26
HETATM   26  C19 UNL     1      20.746  11.578  24.730  1.00  0.00     0.011 C
BRANCH  26  27
HETATM   27  C20 UNL     1      21.355  11.877  26.061  1.00  0.00     0.085 C
HETATM   28 BR1  UNL     1      20.242  11.127  27.457  1.00  0.00    -0.097 Br
ENDBRANCH  26  27
ENDBRANCH  25  26
ENDBRANCH  24  25
ENDBRANCH  23  24
ENDBRANCH  22  23
ENDBRANCH  21  22
ENDBRANCH  19  20
ENDBRANCH  16  19
ENDBRANCH  13  16
ENDBRANCH   7  13
BRANCH   6  29
HETATM   29  C5  UNL     1      25.180  14.298  24.002  1.00  0.00     0.033 A
HETATM   30  C6  UNL     1      25.643  15.501  24.510  1.00  0.00     0.031 A
HETATM   31  C7  UNL     1      25.117  15.625  25.758  1.00  0.00     0.019 A
HETATM   32  C8  UNL     1      24.351  14.502  25.974  1.00  0.00     0.088 A
HETATM   33  N1  UNL     1      24.390  13.693  24.900  1.00  0.00    -0.366 N
ATOM     34  H1  UNL     1      23.914  12.797  24.791  1.00  0.00     0.165 HD
ENDBRANCH   6  29
BRANCH  12  35
HETATM   35  C23 UNL     1      31.766  16.297  21.043  1.00  0.00     0.137 C
BRANCH  35  36
HETATM   36  C24 UNL     1      32.743  16.377  19.872  1.00  0.00     0.105 C
HETATM   37 BR2  UNL     1      34.535  16.002  20.449  1.00  0.00    -0.095 Br
ENDBRANCH  35  36
ENDBRANCH  12  35
TORSDOF 15
ENDMDL