MODEL 3
REMARK VINA RESULT: -5.958531744      2.399      4.996
REMARK  14 active torsions:
REMARK  status: ('A' for Active; 'I' for Inactive)
REMARK    1  A    between atoms: C2_2  and  C3_3
REMARK    2  A    between atoms: C5_6  and  O1_7
REMARK    3  A    between atoms: C6_9  and  C7_10
REMARK    4  A    between atoms: C7_10  and  C8_11
REMARK       I    between atoms: C8_11  and  N2_13
REMARK    5  A    between atoms: N2_13  and  N3_14
REMARK    6  A    between atoms: N2_13  and  C9_17
REMARK    7  A    between atoms: C9_17  and  C10_18
REMARK    8  A    between atoms: C12_21  and  C13_22
REMARK    9  A    between atoms: C13_22  and  C14_23
REMARK   10  A    between atoms: C17_26  and  C18_27
REMARK   11  A    between atoms: C18_27  and  C20_29
REMARK   12  A    between atoms: C22_33  and  O3_34
REMARK   13  A    between atoms: C23_36  and  C24_37
REMARK   14  A    between atoms: C24_37  and  C25_38
ROOT
HETATM    1  C3  UNL     1      29.631  17.708  19.475  1.00  0.00     0.056 C
HETATM    2  C4  UNL     1      28.757  17.438  18.313  1.00  0.00     0.136 C
HETATM    3  N1  UNL     1      28.856  16.109  17.678  1.00  0.00    -0.356 N
HETATM    4  C5  UNL     1      27.728  15.270  17.394  1.00  0.00     0.144 C
HETATM    5  C6  UNL     1      27.057  14.353  18.409  1.00  0.00    -0.002 C
HETATM    6  C11 UNL     1      27.754  14.233  19.665  1.00  0.00    -0.008 C
HETATM    7  C12 UNL     1      27.563  13.382  20.798  1.00  0.00     0.032 C
HETATM    8  C17 UNL     1      28.919  13.197  21.581  1.00  0.00     0.094 C
HETATM    9  N4  UNL     1      29.499  14.457  21.876  1.00  0.00    -0.367 N
ATOM     10  H4  UNL     1      28.779  15.178  21.942  1.00  0.00     0.161 HD
HETATM   11  C22 UNL     1      30.757  14.999  22.100  1.00  0.00     0.143 C
HETATM   12  C23 UNL     1      31.844  15.487  21.249  1.00  0.00     0.268 C
HETATM   13  N6  UNL     1      31.632  16.789  20.615  1.00  0.00    -0.058 N
ATOM     14  H61 UNL     1      32.519  17.216  20.353  1.00  0.00     0.278 HD
ATOM     15  H62 UNL     1      31.310  17.478  21.295  1.00  0.00     0.278 HD
HETATM   16  C26 UNL     1      30.747  16.722  19.499  1.00  0.00     0.201 C
HETATM   17  C27 UNL     1      31.295  16.502  18.150  1.00  0.00     0.035 C
HETATM   18  C28 UNL     1      31.870  17.678  17.446  1.00  0.00     0.014 C
HETATM   19  C29 UNL     1      30.245  15.747  17.358  1.00  0.00     0.088 C
HETATM   20  C30 UNL     1      30.624  15.995  15.912  1.00  0.00     0.033 C
ENDROOT
BRANCH   5  21
HETATM   21  C7  UNL     1      26.367  13.226  17.780  1.00  0.00     0.147 C
BRANCH  21  22
HETATM   22  C8  UNL     1      24.955  12.973  18.154  1.00  0.00     0.242 C
HETATM   23  O2  UNL     1      24.043  13.778  17.778  1.00  0.00    -0.271 OA
HETATM   24  N2  UNL     1      24.556  11.857  18.924  1.00  0.00    -0.267 N
BRANCH  24  25
HETATM   25  N3  UNL     1      25.549  10.932  19.340  1.00  0.00    -0.340 N
ATOM     26  H32 UNL     1      26.409  10.806  18.806  1.00  0.00     0.177 HD
ATOM     27  H31 UNL     1      25.381  10.384  20.183  1.00  0.00     0.177 HD
ENDBRANCH  24  25
BRANCH  24  28
HETATM   28  C9  UNL     1      23.175  11.679  19.286  1.00  0.00     0.166 C
BRANCH  28  29
HETATM   29  C10 UNL     1      22.888  10.413  20.038  1.00  0.00     0.136 C
HETATM   30 CL1  UNL     1      22.799  10.615  21.786  1.00  0.00    -0.129 Cl
ENDBRANCH  28  29
ENDBRANCH  24  28
ENDBRANCH  21  22
ENDBRANCH   5  21
BRANCH   4  31
HETATM   31  O1  UNL     1      27.103  15.145  16.261  1.00  0.00    -0.346 OA
ATOM     32  H1  UNL     1      27.199  14.447  15.623  1.00  0.00     0.219 HD
ENDBRANCH   4  31
BRANCH   7  33
HETATM   33  C13 UNL     1      26.583  13.858  21.824  1.00  0.00     0.014 C
BRANCH  33  34
HETATM   34  C14 UNL     1      26.483  13.166  23.118  1.00  0.00    -0.022 C
HETATM   35  C15 UNL     1      27.088  13.819  24.308  1.00  0.00     0.009 C
HETATM   36  C16 UNL     1      24.982  13.021  23.461  1.00  0.00     0.009 C
ENDBRANCH  33  34
ENDBRANCH   7  33
BRANCH   8  37
HETATM   37  C18 UNL     1      29.744  12.168  20.898  1.00  0.00     0.004 C
HETATM   38  C19 UNL     1      28.857  11.208  20.082  1.00  0.00     0.012 C
BRANCH  37  39
HETATM   39  C20 UNL     1      30.341  11.250  21.947  1.00  0.00     0.002 C
HETATM   40  C21 UNL     1      29.408  10.148  22.347  1.00  0.00     0.005 C
ENDBRANCH  37  39
ENDBRANCH   8  37
BRANCH   1  41
HETATM   41  C2  UNL     1      30.049  19.098  19.685  1.00  0.00    -0.029 C
HETATM   42  C1  UNL     1      29.279  20.097  20.046  1.00  0.00     0.007 C
ENDBRANCH   1  41
BRANCH  11  43
HETATM   43  O3  UNL     1      31.053  15.101  23.375  1.00  0.00    -0.348 OA
ATOM     44  H3  UNL     1      31.658  15.809  23.561  1.00  0.00     0.219 HD
ENDBRANCH  11  43
BRANCH  12  45
HETATM   45  C24 UNL     1      33.131  15.707  22.014  1.00  0.00     0.141 C
BRANCH  45  46
HETATM   46  C25 UNL     1      33.378  17.077  22.449  1.00  0.00     0.233 C
HETATM   47  N5  UNL     1      34.501  17.743  21.864  1.00  0.00    -0.062 NA
HETATM   48  O4  UNL     1      32.732  17.758  23.277  1.00  0.00    -0.277 OA
ENDBRANCH  45  46
ENDBRANCH  12  45
TORSDOF 14
ENDMDL