MODEL 3
REMARK VINA RESULT: -9.341585236      1.103      1.844
REMARK  10 active torsions:
REMARK  status: ('A' for Active; 'I' for Inactive)
REMARK    1  A    between atoms: C2_2  and  C3_3
REMARK    2  A    between atoms: N1_7  and  C7_8
REMARK    3  A    between atoms: N2_10  and  C9_11
REMARK    4  A    between atoms: C9_11  and  C10_12
REMARK    5  A    between atoms: C10_12  and  C11_13
REMARK    6  A    between atoms: C13_15  and  N3_16
REMARK    7  A    between atoms: N3_16  and  C14_18
REMARK    8  A    between atoms: C14_18  and  C15_19
REMARK    9  A    between atoms: C15_19  and  C16_21
REMARK   10  A    between atoms: C16_21  and  C17_22
ROOT
HETATM    1  C9  UNL     1     -16.354  20.939  -3.968  1.00  0.00     0.273 C
ENDROOT
BRANCH   1   2
HETATM    2  N2  UNL     1     -17.728  20.504  -4.269  1.00  0.00     0.094 N
HETATM    3  C8  UNL     1     -17.601  19.821  -5.549  1.00  0.00     0.338 C
HETATM    4  C7  UNL     1     -18.841  19.039  -5.933  1.00  0.00     0.452 C
HETATM    5  N4  UNL     1     -19.481  18.448  -4.784  1.00  0.00     0.119 N
HETATM    6  C24 UNL     1     -18.597  18.305  -3.653  1.00  0.00     0.304 C
HETATM    7  C25 UNL     1     -20.588  19.288  -4.282  1.00  0.00     0.312 C
HETATM    8  C23 UNL     1     -18.156  19.674  -3.198  1.00  0.00     0.302 C
BRANCH   4   9
HETATM    9  N1  UNL     1     -18.626  18.179  -7.046  1.00  0.00    -0.029 N
HETATM   10  C6  UNL     1     -18.542  18.934  -8.306  1.00  0.00     0.241 C
HETATM   11  C5  UNL     1     -18.679  18.055  -9.516  1.00  0.00     0.033 C
HETATM   12  C4  UNL     1     -18.203  16.656  -9.085  1.00  0.00    -0.005 C
HETATM   13  C3  UNL     1     -19.116  16.068  -8.050  1.00  0.00     0.020 C
HETATM   14  C27 UNL     1     -16.892  16.992  -8.359  1.00  0.00     0.033 C
HETATM   15  C28 UNL     1     -19.687  17.160  -7.226  1.00  0.00     0.193 C
HETATM   16  C29 UNL     1     -20.967  17.771  -7.636  1.00  0.00     0.041 C
HETATM   17  C26 UNL     1     -17.347  17.481  -6.978  1.00  0.00     0.241 C
BRANCH  13  18
HETATM   18  C2  UNL     1     -19.946  14.934  -8.471  1.00  0.00     0.002 C
HETATM   19  C1  UNL     1     -20.638  14.964  -9.780  1.00  0.00     0.005 C
ENDBRANCH  13  18
ENDBRANCH   4   9
ENDBRANCH   1   2
BRANCH   1  20
HETATM   20  C10 UNL     1     -16.240  22.332  -3.491  1.00  0.00     0.037 C
BRANCH  20  21
HETATM   21  C11 UNL     1     -15.082  22.645  -2.575  1.00  0.00     0.012 A
HETATM   22  C12 UNL     1     -15.239  23.438  -1.353  1.00  0.00     0.032 A
HETATM   23  C13 UNL     1     -14.553  24.005  -2.555  1.00  0.00     0.085 A
BRANCH  23  24
HETATM   24  N3  UNL     1     -13.275  24.533  -2.564  1.00  0.00    -0.391 N
ATOM     25  H3  UNL     1     -12.566  24.039  -2.022  1.00  0.00     0.159 HD
BRANCH  24  26
HETATM   26  C14 UNL     1     -12.870  25.671  -3.244  1.00  0.00     0.134 C
BRANCH  26  27
HETATM   27  C15 UNL     1     -11.798  25.491  -4.243  1.00  0.00     0.168 C
HETATM   28  O1  UNL     1     -11.428  26.345  -5.005  1.00  0.00    -0.291 OA
BRANCH  27  29
HETATM   29  C16 UNL     1     -11.093  24.165  -4.341  1.00  0.00     0.123 C
BRANCH  29  30
HETATM   30  C17 UNL     1     -11.457  23.455  -5.575  1.00  0.00    -0.048 A
HETATM   31  C18 UNL     1     -10.475  23.150  -6.492  1.00  0.00     0.026 A
HETATM   32  C19 UNL     1     -10.786  22.478  -7.664  1.00  0.00     0.012 A
HETATM   33 BR1  UNL     1      -9.378  22.083  -8.885  1.00  0.00    -0.051 Br
HETATM   34  C20 UNL     1     -12.090  22.103  -7.929  1.00  0.00     0.038 A
HETATM   35  C21 UNL     1     -13.076  22.403  -7.019  1.00  0.00     0.012 A
HETATM   36 BR2  UNL     1     -14.900  21.914  -7.327  1.00  0.00    -0.051 Br
HETATM   37  C22 UNL     1     -12.769  23.072  -5.854  1.00  0.00     0.026 A
ENDBRANCH  29  30
ENDBRANCH  27  29
ENDBRANCH  26  27
ENDBRANCH  24  26
ENDBRANCH  23  24
ENDBRANCH  20  21
ENDBRANCH   1  20
TORSDOF 10
ENDMDL