MODEL 4
REMARK VINA RESULT: -9.580475996      2.460      5.336
REMARK  12 active torsions:
REMARK  status: ('A' for Active; 'I' for Inactive)
REMARK    1  A    between atoms: C4_4  and  C5_5
REMARK    2  A    between atoms: C5_5  and  C6_6
REMARK       I    between atoms: C6_6  and  N1_8
REMARK    3  A    between atoms: N1_8  and  C7_10
REMARK    4  A    between atoms: C7_10  and  C8_11
REMARK    5  A    between atoms: C7_10  and  C21_30
REMARK    6  A    between atoms: C8_11  and  C9_12
REMARK    7  A    between atoms: C9_12  and  C10_13
REMARK       I    between atoms: C10_13  and  N2_15
REMARK    8  A    between atoms: N3_18  and  C13_19
REMARK    9  A    between atoms: C13_19  and  O3_20
REMARK   10  A    between atoms: C13_19  and  C14_22
REMARK   11  A    between atoms: C21_30  and  C22_31
REMARK   12  A    between atoms: C22_31  and  N5_32
ROOT
HETATM    1  C7  UNL     1     -16.324  20.744  -7.524  1.00  0.00     0.086 C
ENDROOT
BRANCH   1   2
HETATM    2  N1  UNL     1     -15.679  20.691  -6.199  1.00  0.00    -0.356 N
HETATM    3  C6  UNL     1     -15.709  21.778  -5.299  1.00  0.00     0.222 C
HETATM    4  O1  UNL     1     -16.331  22.810  -5.668  1.00  0.00    -0.273 OA
ATOM      5  H1  UNL     1     -15.194  19.837  -5.922  1.00  0.00     0.162 HD
BRANCH   3   6
HETATM    6  C5  UNL     1     -15.030  21.687  -3.983  1.00  0.00     0.143 C
BRANCH   6   7
HETATM    7  C4  UNL     1     -13.920  22.658  -3.972  1.00  0.00    -0.027 A
HETATM    8  C3  UNL     1     -12.924  22.564  -4.919  1.00  0.00     0.017 A
HETATM    9  C2  UNL     1     -11.876  23.464  -4.944  1.00  0.00    -0.043 A
HETATM   10  C1  UNL     1     -10.790  23.408  -5.943  1.00  0.00     0.049 C
HETATM   11  C30 UNL     1     -11.870  24.466  -3.976  1.00  0.00     0.024 A
HETATM   12  C28 UNL     1     -12.838  24.595  -3.017  1.00  0.00    -0.022 A
HETATM   13 BR1  UNL     1     -10.432  25.710  -4.003  1.00  0.00    -0.050 Br
HETATM   14  C27 UNL     1     -13.880  23.657  -3.035  1.00  0.00     0.048 A
HETATM   15  C29 UNL     1     -12.824  25.661  -1.979  1.00  0.00     0.051 C
HETATM   16 CL1  UNL     1     -15.160  23.745  -1.848  1.00  0.00    -0.083 Cl
ENDBRANCH   6   7
ENDBRANCH   3   6
ENDBRANCH   1   2
BRANCH   1  17
HETATM   17  C8  UNL     1     -17.490  19.755  -7.518  1.00  0.00     0.034 C
BRANCH  17  18
HETATM   18  C9  UNL     1     -17.487  18.999  -8.822  1.00  0.00     0.105 C
BRANCH  18  19
HETATM   19  C10 UNL     1     -17.625  17.545  -8.611  1.00  0.00     0.219 C
HETATM   20  O2  UNL     1     -16.577  16.856  -8.540  1.00  0.00    -0.273 OA
HETATM   21  N2  UNL     1     -18.899  16.957  -8.490  1.00  0.00    -0.349 N
HETATM   22  C11 UNL     1     -19.043  15.504  -8.261  1.00  0.00     0.145 C
HETATM   23  C20 UNL     1     -20.074  17.793  -8.602  1.00  0.00     0.145 C
HETATM   24  C12 UNL     1     -20.456  15.382  -7.666  1.00  0.00     0.144 C
HETATM   25  N3  UNL     1     -20.674  16.425  -6.713  1.00  0.00    -0.361 N
HETATM   26  C19 UNL     1     -20.920  17.764  -7.359  1.00  0.00     0.144 C
BRANCH  25  27
HETATM   27  C13 UNL     1     -20.668  16.349  -5.331  1.00  0.00     0.147 C
BRANCH  27  28
HETATM   28  O3  UNL     1     -20.482  15.169  -4.769  1.00  0.00    -0.348 OA
ATOM     29  H3  UNL     1     -19.871  15.106  -4.045  1.00  0.00     0.219 HD
ENDBRANCH  27  28
BRANCH  27  30
HETATM   30  C14 UNL     1     -20.837  17.405  -4.348  1.00  0.00     0.296 C
HETATM   31  C15 UNL     1     -19.448  17.952  -3.957  1.00  0.00     0.046 C
HETATM   32  C16 UNL     1     -19.530  18.136  -2.456  1.00  0.00     0.033 C
HETATM   33  C17 UNL     1     -20.514  17.046  -2.060  1.00  0.00     0.273 C
HETATM   34  N4  UNL     1     -21.490  17.086  -3.138  1.00  0.00     0.096 N
HETATM   35  C18 UNL     1     -22.532  18.058  -2.810  1.00  0.00     0.310 C
ENDBRANCH  27  30
ENDBRANCH  25  27
ENDBRANCH  18  19
ENDBRANCH  17  18
ENDBRANCH   1  17
BRANCH   1  36
HETATM   36  C21 UNL     1     -15.326  20.413  -8.591  1.00  0.00     0.055 C
BRANCH  36  37
HETATM   37  C22 UNL     1     -14.985  21.636  -9.441  1.00  0.00     0.274 C
BRANCH  37  38
HETATM   38  N5  UNL     1     -13.961  22.436  -8.763  1.00  0.00     0.088 N
HETATM   39  C23 UNL     1     -13.530  23.530  -9.622  1.00  0.00     0.272 C
HETATM   40  C24 UNL     1     -12.057  23.715  -9.279  1.00  0.00     0.032 C
HETATM   41  C25 UNL     1     -11.604  22.276  -9.161  1.00  0.00     0.032 C
HETATM   42  C26 UNL     1     -12.815  21.604  -8.558  1.00  0.00     0.272 C
ENDBRANCH  37  38
ENDBRANCH  36  37
ENDBRANCH   1  36
TORSDOF 12
ENDMDL