MODEL 1
REMARK VINA RESULT: -8.506869495      0.000      0.000
REMARK  13 active torsions:
REMARK  status: ('A' for Active; 'I' for Inactive)
REMARK    1  A    between atoms: C2_2  and  N1_3
REMARK    2  A    between atoms: N1_3  and  C3_4
REMARK    3  A    between atoms: N1_3  and  C5_6
REMARK    4  A    between atoms: C5_6  and  O1_7
REMARK    5  A    between atoms: C5_6  and  N2_9
REMARK       I    between atoms: N3_12  and  C8_13
REMARK    6  A    between atoms: C8_13  and  C9_15
REMARK    7  A    between atoms: C9_15  and  C10_16
REMARK    8  A    between atoms: C10_16  and  C11_17
REMARK    9  A    between atoms: C11_17  and  C12_18
REMARK   10  A    between atoms: C12_18  and  C13_19
REMARK   11  A    between atoms: C13_19  and  C14_20
REMARK   12  A    between atoms: C14_20  and  N4_21
REMARK       I    between atoms: N4_21  and  C15_23
REMARK       I    between atoms: C15_23  and  N5_25
REMARK   13  A    between atoms: C18_28  and  C19_29
ROOT
HETATM    1  N2  UNL     1     -14.254  22.243  -5.007  1.00  0.00    -0.339 N
HETATM    2  C6  UNL     1     -15.294  22.733  -5.842  1.00  0.00     0.147 C
HETATM    3  C7  UNL     1     -16.307  21.712  -6.299  1.00  0.00     0.147 C
HETATM    4  N3  UNL     1     -15.918  20.351  -6.137  1.00  0.00    -0.331 N
HETATM    5  C8  UNL     1     -16.892  19.328  -6.282  1.00  0.00     0.221 C
HETATM    6  O2  UNL     1     -16.525  18.151  -6.137  1.00  0.00    -0.273 OA
HETATM    7  C22 UNL     1     -14.539  20.008  -5.821  1.00  0.00     0.217 C
HETATM    8  C23 UNL     1     -13.689  20.450  -6.942  1.00  0.00     0.087 C
HETATM    9  N6  UNL     1     -13.022  20.782  -7.832  1.00  0.00    -0.195 NA
HETATM   10  C24 UNL     1     -14.190  20.829  -4.605  1.00  0.00     0.120 C
HETATM   11  C25 UNL     1     -15.151  20.505  -3.500  1.00  0.00     0.035 C
ENDROOT
BRANCH   5  12
HETATM   12  C9  UNL     1     -18.293  19.695  -6.596  1.00  0.00     0.103 C
BRANCH  12  13
HETATM   13  C10 UNL     1     -19.273  19.419  -5.497  1.00  0.00     0.009 C
BRANCH  13  14
HETATM   14  C11 UNL     1     -18.848  19.877  -4.134  1.00  0.00     0.001 C
BRANCH  14  15
HETATM   15  C12 UNL     1     -18.707  18.702  -3.213  1.00  0.00     0.002 C
BRANCH  15  16
HETATM   16  C13 UNL     1     -19.623  18.771  -2.002  1.00  0.00     0.020 C
BRANCH  16  17
HETATM   17  C14 UNL     1     -20.622  17.677  -1.972  1.00  0.00     0.124 C
BRANCH  17  18
HETATM   18  N4  UNL     1     -20.559  16.883  -3.165  1.00  0.00    -0.343 N
HETATM   19  C15 UNL     1     -21.561  16.894  -4.133  1.00  0.00     0.318 C
HETATM   20  O3  UNL     1     -22.572  17.646  -3.958  1.00  0.00    -0.247 OA
HETATM   21  N5  UNL     1     -21.558  16.129  -5.319  1.00  0.00    -0.334 N
HETATM   22  C16 UNL     1     -22.664  16.226  -6.248  1.00  0.00     0.128 C
HETATM   23  C21 UNL     1     -20.495  15.227  -5.689  1.00  0.00     0.128 C
HETATM   24  C17 UNL     1     -22.213  16.617  -7.620  1.00  0.00     0.026 C
HETATM   25  C18 UNL     1     -20.974  15.915  -8.070  1.00  0.00     0.013 C
HETATM   26  C20 UNL     1     -19.942  15.710  -7.013  1.00  0.00     0.026 C
ATOM     27  H4  UNL     1     -19.747  16.284  -3.310  1.00  0.00     0.164 HD
BRANCH  25  28
HETATM   28  C19 UNL     1     -20.329  16.791  -9.154  1.00  0.00     0.133 C
HETATM   29 BR1  UNL     1     -20.856  18.629  -8.760  1.00  0.00    -0.079 Br
HETATM   30 BR2  UNL     1     -18.412  16.686  -8.888  1.00  0.00    -0.079 Br
ENDBRANCH  25  28
ENDBRANCH  17  18
ENDBRANCH  16  17
ENDBRANCH  15  16
ENDBRANCH  14  15
ENDBRANCH  13  14
ENDBRANCH  12  13
ENDBRANCH   5  12
BRANCH   1  31
HETATM   31  C5  UNL     1     -13.232  23.071  -4.510  1.00  0.00     0.217 C
BRANCH  31  32
HETATM   32  N1  UNL     1     -13.179  24.084  -3.589  1.00  0.00    -0.348 N
BRANCH  32  33
HETATM   33  C2  UNL     1     -11.816  24.554  -3.183  1.00  0.00     0.122 C
HETATM   34  C1  UNL     1     -11.947  25.604  -2.093  1.00  0.00     0.026 C
ENDBRANCH  32  33
BRANCH  32  35
HETATM   35  C3  UNL     1     -14.256  24.797  -2.974  1.00  0.00     0.122 C
HETATM   36  C4  UNL     1     -15.126  23.926  -2.076  1.00  0.00     0.026 C
ENDBRANCH  32  35
ENDBRANCH  31  32
BRANCH  31  37
HETATM   37  O1  UNL     1     -12.065  22.798  -5.067  1.00  0.00    -0.332 OA
ATOM     38  H1  UNL     1     -12.036  21.953  -5.499  1.00  0.00     0.220 HD
ENDBRANCH  31  37
ENDBRANCH   1  31
TORSDOF 13
ENDMDL