MODEL 2
REMARK VINA RESULT: -9.618532419      0.873      1.294
REMARK  13 active torsions:
REMARK  status: ('A' for Active; 'I' for Inactive)
REMARK    1  A    between atoms: C2_2  and  C3_3
REMARK       I    between atoms: N1_5  and  C5_6
REMARK       I    between atoms: C5_6  and  N2_8
REMARK    2  A    between atoms: N2_8  and  C6_10
REMARK    3  A    between atoms: N3_17  and  C12_18
REMARK    4  A    between atoms: C12_18  and  C13_19
REMARK    5  A    between atoms: N4_25  and  C17_26
REMARK    6  A    between atoms: C17_26  and  C18_27
REMARK       I    between atoms: C18_27  and  N5_29
REMARK    7  A    between atoms: N5_29  and  C19_30
REMARK    8  A    between atoms: N5_29  and  C21_32
REMARK    9  A    between atoms: C25_36  and  C26_37
REMARK   10  A    between atoms: C26_37  and  O4_38
REMARK   11  A    between atoms: C26_37  and  N6_40
REMARK   12  A    between atoms: N6_40  and  C27_41
REMARK   13  A    between atoms: N6_40  and  C30_44
ROOT
HETATM    1  C13 UNL     1     -13.441  21.975  -8.187  1.00  0.00     0.128 C
HETATM    2  C14 UNL     1     -14.726  22.213  -9.012  1.00  0.00     0.111 C
HETATM    3  C15 UNL     1     -15.064  20.899  -9.582  1.00  0.00     0.261 C
HETATM    4  F1  UNL     1     -16.399  20.545  -9.409  1.00  0.00    -0.204 F
HETATM    5  F2  UNL     1     -14.830  20.890 -10.963  1.00  0.00    -0.204 F
HETATM    6  C16 UNL     1     -14.254  19.883  -8.858  1.00  0.00     0.202 C
HETATM    7  N4  UNL     1     -13.601  20.632  -7.811  1.00  0.00    -0.370 N
ENDROOT
BRANCH   7   8
HETATM    8  C17 UNL     1     -13.761  20.168  -6.525  1.00  0.00     0.161 C
BRANCH   8   9
HETATM    9  C18 UNL     1     -14.044  21.104  -5.407  1.00  0.00     0.259 C
HETATM   10  O3  UNL     1     -13.198  21.747  -4.857  1.00  0.00    -0.267 OA
HETATM   11  N5  UNL     1     -15.436  21.244  -4.975  1.00  0.00    -0.343 N
BRANCH  11  12
HETATM   12  C19 UNL     1     -15.679  22.173  -3.899  1.00  0.00     0.122 C
HETATM   13  C20 UNL     1     -15.286  21.692  -2.543  1.00  0.00     0.026 C
ENDBRANCH  11  12
BRANCH  11  14
HETATM   14  C21 UNL     1     -16.521  20.505  -5.556  1.00  0.00     0.088 C
HETATM   15  C22 UNL     1     -17.431  21.501  -6.223  1.00  0.00     0.025 C
HETATM   16  C23 UNL     1     -18.712  20.876  -6.703  1.00  0.00     0.003 C
HETATM   17  C24 UNL     1     -19.344  20.265  -5.463  1.00  0.00     0.013 C
HETATM   18  C25 UNL     1     -18.556  19.071  -5.064  1.00  0.00     0.062 C
HETATM   19  C33 UNL     1     -17.108  19.421  -4.772  1.00  0.00     0.038 C
BRANCH  18  20
HETATM   20  C26 UNL     1     -18.700  17.989  -6.000  1.00  0.00     0.118 C
BRANCH  20  21
HETATM   21  O4  UNL     1     -18.365  16.809  -5.364  1.00  0.00    -0.349 OA
ATOM     22  H4  UNL     1     -17.515  16.525  -5.680  1.00  0.00     0.219 HD
ENDBRANCH  20  21
BRANCH  20  23
HETATM   23  N6  UNL     1     -19.051  17.750  -7.301  1.00  0.00    -0.357 N
BRANCH  23  24
HETATM   24  C27 UNL     1     -20.384  17.591  -7.853  1.00  0.00     0.078 C
HETATM   25  C28 UNL     1     -21.374  17.213  -6.769  1.00  0.00     0.032 C
HETATM   26  C29 UNL     1     -20.852  18.711  -8.730  1.00  0.00     0.032 C
ENDBRANCH  23  24
BRANCH  23  27
HETATM   27  C30 UNL     1     -17.954  17.618  -8.317  1.00  0.00     0.078 C
HETATM   28  C31 UNL     1     -16.621  17.542  -7.677  1.00  0.00     0.032 C
HETATM   29  C32 UNL     1     -18.209  16.345  -9.114  1.00  0.00     0.032 C
ENDBRANCH  23  27
ENDBRANCH  20  23
ENDBRANCH  18  20
ENDBRANCH  11  14
ENDBRANCH   8   9
ENDBRANCH   7   8
BRANCH   1  30
HETATM   30  C12 UNL     1     -12.352  22.097  -9.236  1.00  0.00     0.093 C
BRANCH  30  31
HETATM   31  N3  UNL     1     -11.355  23.056  -9.166  1.00  0.00    -0.322 N
HETATM   32  C3  UNL     1      -9.920  22.735  -9.015  1.00  0.00     0.110 C
HETATM   33  C4  UNL     1      -9.472  23.332  -7.654  1.00  0.00     0.154 C
HETATM   34  N1  UNL     1     -10.286  24.433  -7.245  1.00  0.00    -0.319 N
HETATM   35  C5  UNL     1     -10.706  24.558  -5.905  1.00  0.00     0.319 C
HETATM   36  C9  UNL     1     -10.696  25.345  -8.310  1.00  0.00     0.177 C
HETATM   37  O1  UNL     1     -10.360  23.715  -5.066  1.00  0.00    -0.247 OA
HETATM   38  N2  UNL     1     -11.541  25.622  -5.415  1.00  0.00    -0.338 N
ATOM     39  H2  UNL     1     -11.835  26.368  -6.046  1.00  0.00     0.164 HD
HETATM   40  C10 UNL     1      -9.536  25.775  -9.123  1.00  0.00     0.043 C
HETATM   41  C11 UNL     1     -11.659  24.467  -9.109  1.00  0.00     0.246 C
HETATM   42  O2  UNL     1     -12.601  25.023  -9.633  1.00  0.00    -0.271 OA
BRANCH  32  43
HETATM   43  C2  UNL     1      -9.599  21.288  -8.907  1.00  0.00     0.023 C
HETATM   44  C1  UNL     1      -8.463  20.784  -9.739  1.00  0.00     0.007 C
ENDBRANCH  32  43
BRANCH  38  45
HETATM   45  C6  UNL     1     -11.964  25.641  -4.035  1.00  0.00     0.086 A
HETATM   46  C7  UNL     1     -13.424  25.839  -3.778  1.00  0.00     0.027 A
HETATM   47  C8  UNL     1     -12.832  24.482  -3.563  1.00  0.00     0.027 A
ENDBRANCH  38  45
ENDBRANCH  30  31
ENDBRANCH   1  30
TORSDOF 13
ENDMDL