MODEL 2
REMARK VINA RESULT: -8.645231902      3.850      6.653
REMARK  11 active torsions:
REMARK  status: ('A' for Active; 'I' for Inactive)
REMARK    1  A    between atoms: C2_2  and  C4_4
REMARK    2  A    between atoms: C4_4  and  C5_5
REMARK    3  A    between atoms: C7_10  and  C8_12
REMARK    4  A    between atoms: C8_12  and  C9_13
REMARK    5  A    between atoms: C9_13  and  C10_14
REMARK    6  A    between atoms: C10_14  and  C11_15
REMARK    7  A    between atoms: C11_15  and  C14_18
REMARK    8  A    between atoms: N2_22  and  C17_23
REMARK    9  A    between atoms: C17_23  and  C18_24
REMARK   10  A    between atoms: C17_23  and  C22_28
REMARK   11  A    between atoms: C18_24  and  C19_25
REMARK       I    between atoms: C22_28  and  N3_30
ROOT
HETATM    1  C5  UNL     1     -14.346  22.388  -5.213  1.00  0.00     0.177 C
HETATM    2  N1  UNL     1     -14.645  20.979  -5.048  1.00  0.00    -0.346 N
ATOM      3  H1  UNL     1     -14.548  20.644  -4.090  1.00  0.00     0.163 HD
HETATM    4  C6  UNL     1     -15.044  19.987  -5.967  1.00  0.00     0.237 C
HETATM    5  O1  UNL     1     -15.402  18.916  -5.415  1.00  0.00    -0.272 OA
HETATM    6  C7  UNL     1     -15.141  19.911  -7.417  1.00  0.00     0.100 C
HETATM    7 BR1  UNL     1     -15.289  18.002  -7.862  1.00  0.00    -0.075 Br
HETATM    8  C15 UNL     1     -13.991  20.393  -8.213  1.00  0.00     0.051 C
HETATM    9  C16 UNL     1     -13.896  21.850  -8.489  1.00  0.00     0.129 C
HETATM   10  N2  UNL     1     -12.935  22.399  -7.500  1.00  0.00    -0.337 N
HETATM   11  C27 UNL     1     -13.179  22.549  -6.123  1.00  0.00     0.243 C
HETATM   12  O4  UNL     1     -12.186  22.904  -5.494  1.00  0.00    -0.271 OA
ENDROOT
BRANCH  10  13
HETATM   13  C17 UNL     1     -11.664  22.770  -8.051  1.00  0.00     0.179 C
BRANCH  13  14
HETATM   14  C18 UNL     1     -10.924  21.694  -8.738  1.00  0.00     0.039 C
BRANCH  14  15
HETATM   15  C19 UNL     1      -9.426  21.905  -8.776  1.00  0.00    -0.020 C
HETATM   16  C20 UNL     1      -8.929  21.576  -7.360  1.00  0.00     0.009 C
HETATM   17  C21 UNL     1      -8.775  20.920  -9.686  1.00  0.00     0.009 C
ENDBRANCH  14  15
ENDBRANCH  13  14
BRANCH  13  18
HETATM   18  C22 UNL     1     -11.690  24.025  -8.837  1.00  0.00     0.242 C
HETATM   19  O2  UNL     1     -12.342  24.181  -9.921  1.00  0.00    -0.271 OA
HETATM   20  N3  UNL     1     -10.978  25.191  -8.443  1.00  0.00    -0.346 N
HETATM   21  C23 UNL     1     -10.191  25.311  -7.230  1.00  0.00     0.152 C
HETATM   22  C26 UNL     1     -10.979  26.407  -9.258  1.00  0.00     0.152 C
HETATM   23  C24 UNL     1     -10.464  26.734  -6.717  1.00  0.00     0.187 C
HETATM   24  O3  UNL     1      -9.899  27.676  -7.552  1.00  0.00    -0.388 OA
HETATM   25  C25 UNL     1      -9.782  27.216  -8.864  1.00  0.00     0.187 C
ENDBRANCH  13  18
ENDBRANCH  10  13
BRANCH   1  26
HETATM   26  C4  UNL     1     -14.090  23.082  -3.917  1.00  0.00     0.038 C
BRANCH  26  27
HETATM   27  C2  UNL     1     -15.154  23.991  -3.423  1.00  0.00    -0.020 C
HETATM   28  C1  UNL     1     -14.661  25.421  -3.681  1.00  0.00     0.009 C
HETATM   29  C3  UNL     1     -15.280  23.889  -1.901  1.00  0.00     0.009 C
ENDBRANCH  26  27
ENDBRANCH   1  26
BRANCH   6  30
HETATM   30  C8  UNL     1     -16.414  20.520  -7.966  1.00  0.00     0.031 C
BRANCH  30  31
HETATM   31  C9  UNL     1     -17.211  19.514  -8.781  1.00  0.00     0.003 C
BRANCH  31  32
HETATM   32  C10 UNL     1     -18.460  19.209  -7.954  1.00  0.00     0.010 C
BRANCH  32  33
HETATM   33  C11 UNL     1     -19.218  18.037  -8.521  1.00  0.00    -0.039 C
HETATM   34  C12 UNL     1     -18.707  17.567  -9.842  1.00  0.00     0.015 C
HETATM   35  C13 UNL     1     -20.660  18.515  -8.734  1.00  0.00     0.015 C
BRANCH  33  36
HETATM   36  C14 UNL     1     -19.287  16.878  -7.567  1.00  0.00     0.093 C
HETATM   37 BR2  UNL     1     -19.622  15.211  -8.505  1.00  0.00    -0.096 Br
ENDBRANCH  33  36
ENDBRANCH  32  33
ENDBRANCH  31  32
ENDBRANCH  30  31
ENDBRANCH   6  30
TORSDOF 11
ENDMDL