MODEL 1
REMARK VINA RESULT: -10.324148413      0.000      0.000
REMARK  13 active torsions:
REMARK  status: ('A' for Active; 'I' for Inactive)
REMARK    1  A    between atoms: C2_2  and  C4_4
REMARK    2  A    between atoms: C4_4  and  C5_5
REMARK    3  A    between atoms: C5_5  and  C35_45
REMARK       I    between atoms: N1_6  and  C6_8
REMARK    4  A    between atoms: C6_8  and  C7_10
REMARK    5  A    between atoms: C7_10  and  C8_11
REMARK    6  A    between atoms: C7_10  and  N2_17
REMARK    7  A    between atoms: C8_11  and  C9_12
REMARK    8  A    between atoms: C9_12  and  C10_13
REMARK    9  A    between atoms: N3_20  and  C16_21
REMARK   10  A    between atoms: C16_21  and  O2_22
REMARK   11  A    between atoms: C16_21  and  C17_24
REMARK   12  A    between atoms: C17_24  and  C18_25
REMARK   13  A    between atoms: C26_35  and  N4_36
ROOT
HETATM    1  N2  UNL     1     -13.978  21.429  -6.532  1.00  0.00    -0.377 N
HETATM    2  C14 UNL     1     -13.622  20.083  -6.722  1.00  0.00     0.143 C
HETATM    3  C15 UNL     1     -14.205  19.648  -8.083  1.00  0.00     0.145 C
HETATM    4  N3  UNL     1     -15.668  19.739  -7.852  1.00  0.00    -0.358 N
HETATM    5  C33 UNL     1     -16.145  21.066  -7.691  1.00  0.00     0.168 C
HETATM    6  C34 UNL     1     -14.966  22.001  -7.342  1.00  0.00     0.079 C
ENDROOT
BRANCH   4   7
HETATM    7  C16 UNL     1     -16.396  18.579  -7.822  1.00  0.00     0.127 C
BRANCH   7   8
HETATM    8  O2  UNL     1     -15.694  17.493  -8.056  1.00  0.00    -0.349 OA
ATOM      9  H2  UNL     1     -15.793  16.813  -7.400  1.00  0.00     0.219 HD
ENDBRANCH   7   8
BRANCH   7  10
HETATM   10  C17 UNL     1     -17.813  18.295  -7.578  1.00  0.00     0.057 C
HETATM   11  C24 UNL     1     -18.595  19.067  -8.615  1.00  0.00     0.025 C
HETATM   12  C25 UNL     1     -19.850  18.266  -8.880  1.00  0.00     0.035 C
HETATM   13  C26 UNL     1     -19.387  16.831  -8.730  1.00  0.00     0.191 C
HETATM   14  C32 UNL     1     -18.244  16.861  -7.757  1.00  0.00     0.056 C
BRANCH  10  15
HETATM   15  C18 UNL     1     -18.224  18.788  -6.230  1.00  0.00    -0.003 A
HETATM   16  C19 UNL     1     -19.110  19.813  -6.020  1.00  0.00     0.014 A
HETATM   17  C20 UNL     1     -19.434  20.231  -4.726  1.00  0.00     0.043 A
HETATM   18  C21 UNL     1     -18.851  19.600  -3.674  1.00  0.00     0.119 A
HETATM   19  F1  UNL     1     -19.112  19.946  -2.372  1.00  0.00    -0.206 F
HETATM   20  C22 UNL     1     -17.959  18.568  -3.860  1.00  0.00     0.085 A
HETATM   21  C23 UNL     1     -17.649  18.164  -5.134  1.00  0.00     0.126 A
HETATM   22  F2  UNL     1     -16.805  17.141  -5.319  1.00  0.00    -0.205 F
ENDBRANCH  10  15
BRANCH  13  23
HETATM   23  N4  UNL     1     -20.422  15.898  -8.431  1.00  0.00    -0.067 N
HETATM   24  C27 UNL     1     -20.607  15.075  -9.638  1.00  0.00     0.273 C
HETATM   25  C28 UNL     1     -20.207  15.057  -7.305  1.00  0.00     0.237 C
HETATM   26  C29 UNL     1     -21.300  15.262  -6.311  1.00  0.00     0.029 C
HETATM   27  C30 UNL     1     -22.161  16.347  -6.873  1.00  0.00     0.029 C
HETATM   28  C31 UNL     1     -21.657  16.612  -8.247  1.00  0.00     0.237 C
ENDBRANCH  13  23
ENDBRANCH   7  10
ENDBRANCH   4   7
BRANCH   1  29
HETATM   29  C7  UNL     1     -13.423  22.152  -5.462  1.00  0.00     0.176 C
BRANCH  29  30
HETATM   30  C6  UNL     1     -12.259  22.971  -5.765  1.00  0.00     0.244 C
HETATM   31  N1  UNL     1     -11.133  22.475  -6.435  1.00  0.00    -0.324 N
HETATM   32  C5  UNL     1     -10.901  22.691  -7.690  1.00  0.00     0.077 C
ATOM     33  H1  UNL     1     -10.463  21.916  -5.907  1.00  0.00     0.169 HD
HETATM   34  O1  UNL     1     -12.211  24.203  -5.423  1.00  0.00    -0.271 OA
BRANCH  32  35
HETATM   35  C4  UNL     1     -11.821  23.486  -8.525  1.00  0.00     0.066 C
BRANCH  35  36
HETATM   36  C2  UNL     1     -11.151  24.610  -9.264  1.00  0.00    -0.017 C
HETATM   37  C1  UNL     1     -12.053  25.298 -10.259  1.00  0.00     0.010 C
HETATM   38  C3  UNL     1     -10.740  25.697  -8.251  1.00  0.00     0.010 C
ENDBRANCH  35  36
ENDBRANCH  32  35
BRANCH  32  39
HETATM   39  C35 UNL     1      -9.673  22.126  -8.235  1.00  0.00     0.277 C
HETATM   40  N5  UNL     1      -9.640  21.693  -9.586  1.00  0.00    -0.056 NA
HETATM   41  O3  UNL     1      -8.666  22.029  -7.502  1.00  0.00    -0.270 OA
ENDBRANCH  32  39
ENDBRANCH  29  30
BRANCH  29  42
HETATM   42  C8  UNL     1     -14.539  23.041  -4.892  1.00  0.00     0.035 C
BRANCH  42  43
HETATM   43  C9  UNL     1     -14.765  22.696  -3.438  1.00  0.00     0.011 C
BRANCH  43  44
HETATM   44  C10 UNL     1     -14.689  23.909  -2.577  1.00  0.00    -0.051 C
HETATM   45  C11 UNL     1     -13.332  24.101  -1.942  1.00  0.00     0.014 C
HETATM   46  C12 UNL     1     -14.936  25.133  -3.453  1.00  0.00     0.014 C
HETATM   47  C13 UNL     1     -15.724  23.888  -1.476  1.00  0.00     0.014 C
ENDBRANCH  43  44
ENDBRANCH  42  43
ENDBRANCH  29  42
ENDBRANCH   1  29
TORSDOF 13
ENDMDL