MODEL 3
REMARK VINA RESULT: -8.976356167      1.475      3.316
REMARK  12 active torsions:
REMARK  status: ('A' for Active; 'I' for Inactive)
REMARK    1  A    between atoms: C2_2  and  C4_4
REMARK    2  A    between atoms: C4_4  and  N1_5
REMARK    3  A    between atoms: N1_5  and  C6_7
REMARK    4  A    between atoms: C6_7  and  C7_8
REMARK    5  A    between atoms: C7_8  and  C8_9
REMARK    6  A    between atoms: C7_8  and  N4_27
REMARK    7  A    between atoms: C8_9  and  C9_10
REMARK    8  A    between atoms: C9_10  and  C10_11
REMARK       I    between atoms: C10_11  and  N2_13
REMARK    9  A    between atoms: C14_17  and  C15_18
REMARK   10  A    between atoms: C15_18  and  O2_19
REMARK   11  A    between atoms: C15_18  and  N3_21
REMARK       I    between atoms: N4_27  and  C21_29
REMARK   12  A    between atoms: C21_29  and  C22_31
ROOT
HETATM    1  C7  UNL     1     -15.989  21.057  -6.420  1.00  0.00     0.123 C
ENDROOT
BRANCH   1   2
HETATM    2  C6  UNL     1     -16.402  21.766  -5.183  1.00  0.00     0.087 C
BRANCH   2   3
HETATM    3  N1  UNL     1     -15.431  21.960  -4.197  1.00  0.00    -0.376 N
HETATM    4  C5  UNL     1     -14.880  20.841  -3.594  1.00  0.00     0.154 C
BRANCH   3   5
HETATM    5  C4  UNL     1     -15.472  23.198  -3.557  1.00  0.00     0.066 C
BRANCH   5   6
HETATM    6  C2  UNL     1     -14.832  23.291  -2.212  1.00  0.00     0.016 C
HETATM    7  C1  UNL     1     -13.681  24.212  -2.071  1.00  0.00     0.015 C
HETATM    8  C3  UNL     1     -15.925  23.773  -1.249  1.00  0.00     0.015 C
ENDBRANCH   5   6
ENDBRANCH   3   5
ENDBRANCH   2   3
ENDBRANCH   1   2
BRANCH   1   9
HETATM    9  C8  UNL     1     -17.256  20.811  -7.262  1.00  0.00     0.040 C
BRANCH   9  10
HETATM   10  C9  UNL     1     -16.902  19.788  -8.299  1.00  0.00     0.105 C
BRANCH  10  11
HETATM   11  C10 UNL     1     -17.166  18.417  -7.806  1.00  0.00     0.220 C
HETATM   12  O1  UNL     1     -16.256  17.675  -7.391  1.00  0.00    -0.273 OA
HETATM   13  N2  UNL     1     -18.503  17.912  -7.796  1.00  0.00    -0.340 N
HETATM   14  C11 UNL     1     -19.682  18.611  -8.251  1.00  0.00     0.127 C
HETATM   15  C14 UNL     1     -18.988  16.622  -7.313  1.00  0.00     0.161 C
HETATM   16  C12 UNL     1     -20.389  17.546  -9.056  1.00  0.00     0.022 C
HETATM   17  C13 UNL     1     -20.095  16.298  -8.237  1.00  0.00     0.035 C
BRANCH  15  18
HETATM   18  C15 UNL     1     -19.244  16.803  -5.893  1.00  0.00     0.137 C
BRANCH  18  19
HETATM   19  O2  UNL     1     -19.742  15.684  -5.366  1.00  0.00    -0.348 OA
ATOM     20  H2  UNL     1     -19.238  15.425  -4.603  1.00  0.00     0.219 HD
ENDBRANCH  18  19
BRANCH  18  21
HETATM   21  N3  UNL     1     -19.101  17.821  -4.984  1.00  0.00    -0.364 N
HETATM   22  C16 UNL     1     -17.900  18.164  -4.299  1.00  0.00     0.124 C
HETATM   23  C17 UNL     1     -18.266  18.895  -3.007  1.00  0.00     0.020 C
HETATM   24  C18 UNL     1     -18.895  20.240  -3.309  1.00  0.00     0.003 C
HETATM   25  C19 UNL     1     -19.852  20.123  -4.479  1.00  0.00     0.020 C
HETATM   26  C20 UNL     1     -20.264  18.676  -4.682  1.00  0.00     0.124 C
ENDBRANCH  18  21
ENDBRANCH  15  18
ENDBRANCH  10  11
ENDBRANCH   9  10
ENDBRANCH   1   9
BRANCH   1  27
HETATM   27  N4  UNL     1     -14.976  21.695  -7.197  1.00  0.00    -0.348 N
HETATM   28  C21 UNL     1     -13.735  21.117  -7.502  1.00  0.00     0.252 C
HETATM   29  O3  UNL     1     -13.430  19.951  -7.096  1.00  0.00    -0.268 OA
ATOM     30  H4  UNL     1     -15.166  22.632  -7.555  1.00  0.00     0.163 HD
BRANCH  28  31
HETATM   31  C22 UNL     1     -12.724  21.816  -8.297  1.00  0.00     0.034 A
HETATM   32  C23 UNL     1     -13.006  23.023  -8.896  1.00  0.00     0.036 A
HETATM   33  C24 UNL     1     -12.100  23.737  -9.662  1.00  0.00     0.013 A
HETATM   34 BR1  UNL     1     -12.503  25.395 -10.481  1.00  0.00    -0.051 Br
HETATM   35  C25 UNL     1     -10.829  23.205  -9.837  1.00  0.00     0.038 A
HETATM   36  C26 UNL     1     -10.530  22.027  -9.262  1.00  0.00     0.013 A
HETATM   37 BR2  UNL     1      -8.788  21.274  -9.487  1.00  0.00    -0.051 Br
HETATM   38  C27 UNL     1     -11.452  21.317  -8.492  1.00  0.00     0.036 A
ENDBRANCH  28  31
ENDBRANCH   1  27
TORSDOF 12
ENDMDL