MODEL 4
REMARK VINA RESULT: -8.821244561      2.597      9.158
REMARK  10 active torsions:
REMARK  status: ('A' for Active; 'I' for Inactive)
REMARK    1  A    between atoms: C2_2  and  C3_3
REMARK    2  A    between atoms: N1_5  and  C5_6
REMARK       I    between atoms: N2_11  and  C10_12
REMARK    3  A    between atoms: C10_12  and  C11_14
REMARK    4  A    between atoms: C11_14  and  C12_15
REMARK    5  A    between atoms: C11_14  and  N3_19
REMARK    6  A    between atoms: C12_15  and  C13_16
REMARK       I    between atoms: N3_19  and  C16_21
REMARK    7  A    between atoms: C16_21  and  C17_23
REMARK    8  A    between atoms: C17_23  and  C18_24
REMARK    9  A    between atoms: N4_31  and  C24_32
REMARK   10  A    between atoms: C24_32  and  C25_33
ROOT
HETATM    1  N3  UNL     1     -16.947  18.992  -6.745  1.00  0.00    -0.348 N
ATOM      2  H3  UNL     1     -16.180  18.335  -6.891  1.00  0.00     0.163 HD
HETATM    3  C16 UNL     1     -16.871  20.284  -7.300  1.00  0.00     0.219 C
HETATM    4  O2  UNL     1     -17.812  21.074  -7.111  1.00  0.00    -0.274 OA
ENDROOT
BRANCH   1   5
HETATM    5  C11 UNL     1     -18.143  18.570  -5.939  1.00  0.00     0.177 C
BRANCH   5   6
HETATM    6  C10 UNL     1     -18.817  17.469  -6.631  1.00  0.00     0.243 C
HETATM    7  N2  UNL     1     -20.118  17.067  -6.408  1.00  0.00    -0.339 N
HETATM    8  C3  UNL     1     -20.773  15.932  -7.036  1.00  0.00     0.137 C
HETATM    9  C9  UNL     1     -20.988  17.819  -5.537  1.00  0.00     0.157 C
HETATM   10  C4  UNL     1     -22.072  16.384  -7.636  1.00  0.00     0.302 C
HETATM   11  N1  UNL     1     -22.928  16.936  -6.625  1.00  0.00     0.096 N
HETATM   12  C8  UNL     1     -22.300  17.073  -5.346  1.00  0.00     0.292 C
HETATM   13  O1  UNL     1     -18.138  16.855  -7.498  1.00  0.00    -0.271 OA
BRANCH   8  14
HETATM   14  C2  UNL     1     -19.945  15.152  -7.957  1.00  0.00    -0.010 C
HETATM   15  C1  UNL     1     -20.250  14.922  -9.228  1.00  0.00     0.009 C
ENDBRANCH   8  14
BRANCH  11  16
HETATM   16  C5  UNL     1     -24.215  16.282  -6.554  1.00  0.00     0.215 C
HETATM   17  C6  UNL     1     -24.316  15.175  -7.581  1.00  0.00     0.042 C
HETATM   18  C7  UNL     1     -25.365  17.228  -6.807  1.00  0.00     0.042 C
ENDBRANCH  11  16
ENDBRANCH   5   6
BRANCH   5  19
HETATM   19  C12 UNL     1     -17.565  18.187  -4.609  1.00  0.00     0.038 C
BRANCH  19  20
HETATM   20  C13 UNL     1     -17.861  18.979  -3.417  1.00  0.00    -0.020 C
HETATM   21  C14 UNL     1     -18.682  20.213  -3.893  1.00  0.00     0.009 C
HETATM   22  C15 UNL     1     -18.876  18.282  -2.481  1.00  0.00     0.009 C
ENDBRANCH  19  20
ENDBRANCH   5  19
ENDBRANCH   1   5
BRANCH   3  23
HETATM   23  C17 UNL     1     -15.699  20.682  -8.084  1.00  0.00     0.117 C
BRANCH  23  24
HETATM   24  C18 UNL     1     -14.550  20.995  -7.167  1.00  0.00     0.001 C
HETATM   25  C19 UNL     1     -13.444  20.043  -7.481  1.00  0.00    -0.020 C
HETATM   26  C20 UNL     1     -12.603  20.557  -8.378  1.00  0.00    -0.029 C
HETATM   27  C21 UNL     1     -13.095  21.917  -8.736  1.00  0.00     0.042 C
HETATM   28  C22 UNL     1     -13.923  22.328  -7.504  1.00  0.00     0.094 C
HETATM   29  C23 UNL     1     -12.986  22.680  -6.405  1.00  0.00     0.227 C
HETATM   30  O3  UNL     1     -11.802  23.025  -6.654  1.00  0.00    -0.273 OA
HETATM   31  N4  UNL     1     -13.501  22.605  -5.084  1.00  0.00    -0.323 N
HETATM   32  C27 UNL     1     -14.848  22.125  -4.924  1.00  0.00     0.152 C
HETATM   33 BR1  UNL     1     -16.158  23.477  -5.395  1.00  0.00    -0.049 Br
HETATM   34 BR2  UNL     1     -15.174  21.661  -3.065  1.00  0.00    -0.049 Br
HETATM   35  C28 UNL     1     -15.014  20.887  -5.737  1.00  0.00     0.070 C
BRANCH  31  36
HETATM   36  C24 UNL     1     -12.658  23.008  -3.985  1.00  0.00     0.128 C
BRANCH  36  37
HETATM   37  C25 UNL     1     -12.856  24.482  -3.658  1.00  0.00     0.015 C
HETATM   38  C26 UNL     1     -12.599  24.650  -2.164  1.00  0.00     0.006 C
ENDBRANCH  36  37
ENDBRANCH  31  36
ENDBRANCH  23  24
ENDBRANCH   3  23
TORSDOF 10
ENDMDL