MODEL 4
REMARK VINA RESULT: -9.180531035      0.678      2.397
REMARK  12 active torsions:
REMARK  status: ('A' for Active; 'I' for Inactive)
REMARK    1  A    between atoms: N1_2  and  C2_3
REMARK    2  A    between atoms: N1_2  and  C4_6
REMARK    3  A    between atoms: N1_2  and  C6_9
REMARK    4  A    between atoms: C2_3  and  C3_4
REMARK    5  A    between atoms: C4_6  and  C5_7
REMARK    6  A    between atoms: C6_9  and  C7_10
REMARK    7  A    between atoms: C7_10  and  N2_11
REMARK       I    between atoms: N3_14  and  C10_15
REMARK       I    between atoms: C10_15  and  N4_17
REMARK    8  A    between atoms: N4_17  and  C11_19
REMARK    9  A    between atoms: N5_22  and  C14_23
REMARK   10  A    between atoms: C14_23  and  O2_24
REMARK   11  A    between atoms: C14_23  and  C15_26
REMARK   12  A    between atoms: C25_36  and  C26_37
ROOT
HETATM    1  C11 UNL     1     -13.577  20.366  -7.729  1.00  0.00     0.089 C
HETATM    2  C12 UNL     1     -14.688  20.346  -8.714  1.00  0.00     0.045 C
HETATM    3  C13 UNL     1     -15.534  19.122  -8.456  1.00  0.00     0.127 C
HETATM    4  N5  UNL     1     -15.855  18.998  -7.069  1.00  0.00    -0.356 N
HETATM    5  C25 UNL     1     -15.278  19.790  -6.006  1.00  0.00     0.122 C
HETATM    6  C31 UNL     1     -14.092  20.590  -6.319  1.00  0.00     0.055 C
ENDROOT
BRANCH   1   7
HETATM    7  N4  UNL     1     -12.575  21.397  -8.002  1.00  0.00    -0.338 N
HETATM    8  C10 UNL     1     -12.849  22.510  -8.808  1.00  0.00     0.319 C
HETATM    9  N3  UNL     1     -11.973  23.557  -9.134  1.00  0.00    -0.328 N
HETATM   10  O1  UNL     1     -14.026  22.585  -9.305  1.00  0.00    -0.247 OA
HETATM   11  C9  UNL     1     -12.388  24.644 -10.011  1.00  0.00     0.172 C
HETATM   12  C32 UNL     1     -10.614  23.608  -8.586  1.00  0.00     0.148 C
HETATM   13  C8  UNL     1     -11.536  25.860  -9.856  1.00  0.00     0.083 C
HETATM   14  N2  UNL     1     -10.764  25.989  -8.707  1.00  0.00    -0.369 N
HETATM   15  C33 UNL     1     -10.601  24.930  -7.807  1.00  0.00     0.147 C
ATOM     16  H4  UNL     1     -11.646  21.303  -7.593  1.00  0.00     0.164 HD
BRANCH  14  17
HETATM   17  C7  UNL     1     -10.140  27.217  -8.420  1.00  0.00     0.091 C
BRANCH  17  18
HETATM   18  C6  UNL     1      -8.813  27.164  -7.763  1.00  0.00     0.281 C
BRANCH  18  19
HETATM   19  N1  UNL     1      -8.497  28.338  -6.969  1.00  0.00    -0.065 N
HETATM   20  C1  UNL     1      -9.581  29.278  -7.173  1.00  0.00     0.273 C
BRANCH  19  21
HETATM   21  C2  UNL     1      -8.402  27.877  -5.606  1.00  0.00     0.252 C
BRANCH  21  22
HETATM   22  C3  UNL     1      -9.592  28.080  -4.749  1.00  0.00     0.142 C
HETATM   23 CL1  UNL     1     -10.724  26.746  -4.661  1.00  0.00    -0.129 Cl
ENDBRANCH  21  22
ENDBRANCH  19  21
BRANCH  19  24
HETATM   24  C4  UNL     1      -7.247  28.956  -7.303  1.00  0.00     0.252 C
BRANCH  24  25
HETATM   25  C5  UNL     1      -6.693  28.608  -8.644  1.00  0.00     0.142 C
HETATM   26 CL2  UNL     1      -7.271  29.837  -9.829  1.00  0.00    -0.129 Cl
ENDBRANCH  24  25
ENDBRANCH  19  24
ENDBRANCH  18  19
ENDBRANCH  17  18
ENDBRANCH  14  17
ENDBRANCH   1   7
BRANCH   5  27
HETATM   27  C26 UNL     1     -16.337  20.647  -5.397  1.00  0.00    -0.020 A
HETATM   28  C27 UNL     1     -16.813  20.411  -4.131  1.00  0.00     0.012 A
HETATM   29  C28 UNL     1     -17.785  21.207  -3.603  1.00  0.00     0.018 A
HETATM   30  C29 UNL     1     -18.304  22.264  -4.343  1.00  0.00     0.087 A
HETATM   31  N6  UNL     1     -17.818  22.466  -5.573  1.00  0.00    -0.375 N
HETATM   32  C30 UNL     1     -16.860  21.693  -6.110  1.00  0.00     0.096 A
ATOM     33  H6  UNL     1     -18.190  23.238  -6.125  1.00  0.00     0.164 HD
ENDBRANCH   5  27
BRANCH   4  34
HETATM   34  C14 UNL     1     -16.797  18.026  -6.661  1.00  0.00     0.123 C
BRANCH  34  35
HETATM   35  O2  UNL     1     -16.368  17.281  -5.678  1.00  0.00    -0.349 OA
ATOM     36  H2  UNL     1     -16.888  17.374  -4.888  1.00  0.00     0.219 HD
ENDBRANCH  34  35
BRANCH  34  37
HETATM   37  C15 UNL     1     -18.132  17.699  -7.116  1.00  0.00     0.026 C
HETATM   38  C16 UNL     1     -18.121  16.755  -8.283  1.00  0.00     0.022 C
HETATM   39  C17 UNL     1     -19.502  16.140  -8.559  1.00  0.00    -0.013 C
HETATM   40  C18 UNL     1     -20.388  17.322  -8.906  1.00  0.00     0.009 C
HETATM   41  C22 UNL     1     -20.083  15.435  -7.386  1.00  0.00     0.009 C
HETATM   42  C19 UNL     1     -20.408  18.299  -7.778  1.00  0.00    -0.013 C
HETATM   43  C20 UNL     1     -20.988  17.618  -6.552  1.00  0.00     0.009 C
HETATM   44  C24 UNL     1     -19.043  18.852  -7.414  1.00  0.00     0.022 C
HETATM   45  C21 UNL     1     -20.132  16.423  -6.235  1.00  0.00    -0.013 C
HETATM   46  C23 UNL     1     -18.747  16.859  -5.953  1.00  0.00     0.022 C
ENDBRANCH  34  37
ENDBRANCH   4  34
TORSDOF 12
ENDMDL