MODEL 3
REMARK VINA RESULT: -8.456149617      1.497      3.230
REMARK  10 active torsions:
REMARK  status: ('A' for Active; 'I' for Inactive)
REMARK    1  A    between atoms: C2_2  and  C3_3
REMARK    2  A    between atoms: C3_3  and  C4_4
REMARK    3  A    between atoms: C4_4  and  C5_5
REMARK    4  A    between atoms: C5_5  and  N1_6
REMARK    5  A    between atoms: C12_13  and  C13_14
REMARK    6  A    between atoms: C13_14  and  C14_15
REMARK    7  A    between atoms: N2_20  and  C16_21
REMARK    8  A    between atoms: C16_21  and  N3_25
REMARK    9  A    between atoms: C21_29  and  C22_30
REMARK   10  A    between atoms: C22_30  and  N4_31
ROOT
HETATM    1  C1  UNL     1     -17.630  18.973  -9.670  1.00  0.00     0.025 C
HETATM    2  C2  UNL     1     -17.622  18.270  -8.342  1.00  0.00     0.039 C
HETATM    3  C11 UNL     1     -18.947  18.740  -7.672  1.00  0.00     0.033 C
HETATM    4  C12 UNL     1     -18.696  19.502  -6.413  1.00  0.00     0.090 C
HETATM    5  C15 UNL     1     -17.737  20.629  -6.757  1.00  0.00     0.237 C
HETATM    6  O3  UNL     1     -18.037  21.797  -6.708  1.00  0.00    -0.272 OA
HETATM    7  N2  UNL     1     -16.435  20.144  -7.150  1.00  0.00    -0.234 N
HETATM    8  C27 UNL     1     -16.509  18.734  -7.474  1.00  0.00     0.240 C
HETATM    9  O4  UNL     1     -15.667  17.967  -7.023  1.00  0.00    -0.272 OA
ENDROOT
BRANCH   7  10
HETATM   10  C16 UNL     1     -15.303  20.924  -7.079  1.00  0.00     0.140 C
HETATM   11  C17 UNL     1     -14.562  21.329  -8.078  1.00  0.00     0.102 C
HETATM   12 BR1  UNL     1     -12.971  22.421  -7.785  1.00  0.00    -0.039 Br
HETATM   13 BR2  UNL     1     -14.970  21.035  -9.904  1.00  0.00    -0.039 Br
BRANCH  10  14
HETATM   14  N3  UNL     1     -14.796  21.370  -5.767  1.00  0.00    -0.365 N
HETATM   15  C18 UNL     1     -14.301  20.387  -4.856  1.00  0.00     0.124 C
HETATM   16  C19 UNL     1     -14.487  20.720  -3.412  1.00  0.00     0.020 C
HETATM   17  C20 UNL     1     -14.800  22.138  -3.087  1.00  0.00     0.009 C
HETATM   18  C21 UNL     1     -14.371  23.134  -4.098  1.00  0.00     0.030 C
HETATM   19  C26 UNL     1     -14.864  22.771  -5.502  1.00  0.00     0.130 C
BRANCH  18  20
HETATM   20  C22 UNL     1     -12.918  23.414  -4.186  1.00  0.00     0.242 C
BRANCH  20  21
HETATM   21  N4  UNL     1     -12.398  24.589  -3.593  1.00  0.00    -0.078 N
HETATM   22  C23 UNL     1     -11.911  24.506  -2.260  1.00  0.00     0.271 C
HETATM   23  C24 UNL     1     -13.402  25.691  -3.665  1.00  0.00     0.271 C
HETATM   24  C25 UNL     1     -11.305  25.094  -4.440  1.00  0.00     0.271 C
ENDBRANCH  20  21
ENDBRANCH  18  20
ENDBRANCH  10  14
ENDBRANCH   7  10
BRANCH   4  25
HETATM   25  C13 UNL     1     -19.980  20.071  -5.878  1.00  0.00     0.127 C
BRANCH  25  26
HETATM   26  C14 UNL     1     -20.121  19.760  -4.446  1.00  0.00     0.173 C
HETATM   27  O1  UNL     1     -21.140  19.148  -4.048  1.00  0.00    -0.648 OA
HETATM   28  O2  UNL     1     -19.155  20.129  -3.535  1.00  0.00    -0.648 OA
ENDBRANCH  25  26
ENDBRANCH   4  25
BRANCH   2  29
HETATM   29  C3  UNL     1     -17.667  16.801  -8.354  1.00  0.00     0.020 C
BRANCH  29  30
HETATM   30  C4  UNL     1     -18.700  16.027  -9.049  1.00  0.00     0.021 C
BRANCH  30  31
HETATM   31  C5  UNL     1     -19.328  14.961  -8.246  1.00  0.00     0.122 C
BRANCH  31  32
HETATM   32  N1  UNL     1     -20.510  15.385  -7.524  1.00  0.00    -0.393 N
HETATM   33  C6  UNL     1     -20.314  15.897  -6.226  1.00  0.00     0.058 C
HETATM   34  C7  UNL     1     -21.639  15.865  -5.476  1.00  0.00     0.044 C
HETATM   35  C8  UNL     1     -22.787  16.374  -6.285  1.00  0.00     0.007 C
HETATM   36  C9  UNL     1     -22.192  17.169  -7.453  1.00  0.00     0.020 C
HETATM   37  C10 UNL     1     -21.447  16.117  -8.289  1.00  0.00     0.122 C
ENDBRANCH  31  32
ENDBRANCH  30  31
ENDBRANCH  29  30
ENDBRANCH   2  29
TORSDOF 10
ENDMDL