MODEL 2
REMARK VINA RESULT: -5.496169722      1.812      4.640
REMARK  7 active torsions:
REMARK  status: ('A' for Active; 'I' for Inactive)
REMARK    1  A    between atoms: N1_1  and  C1_5
REMARK    2  A    between atoms: C1_5  and  C2_6
REMARK    3  A    between atoms: C2_6  and  N2_7
REMARK    4  A    between atoms: N2_7  and  C3_10
REMARK    5  A    between atoms: C3_10  and  C4_11
REMARK    6  A    between atoms: C4_11  and  N3_12
REMARK    7  A    between atoms: N3_12  and  C5_14
ROOT
HETATM    1  C4  UNL     1      18.778  -2.035  59.876  1.00  0.00     0.147 C
ENDROOT
BRANCH   1   2
HETATM    2  C3  UNL     1      19.511  -1.758  61.199  1.00  0.00     0.251 C
BRANCH   2   3
HETATM    3  N2  UNL     1      18.818  -0.897  62.087  1.00  0.00    -0.072 N
ATOM      4  H22 UNL     1      17.902  -0.650  61.712  1.00  0.00     0.277 HD
ATOM      5  H21 UNL     1      19.246   0.028  62.104  1.00  0.00     0.277 HD
BRANCH   3   6
HETATM    6  C2  UNL     1      18.701  -1.431  63.410  1.00  0.00     0.259 C
BRANCH   6   7
HETATM    7  C1  UNL     1      17.266  -1.375  63.866  1.00  0.00     0.257 C
BRANCH   7   8
HETATM    8  N1  UNL     1      16.434  -0.577  62.998  1.00  0.00    -0.078 N
ATOM      9  H13 UNL     1      16.278   0.351  63.393  1.00  0.00     0.274 HD
ATOM     10  H12 UNL     1      16.937  -0.313  62.151  1.00  0.00     0.274 HD
ATOM     11  H11 UNL     1      15.549  -1.030  62.772  1.00  0.00     0.274 HD
ENDBRANCH   7   8
ENDBRANCH   6   7
ENDBRANCH   3   6
ENDBRANCH   2   3
ENDBRANCH   1   2
BRANCH   1  12
HETATM   12  N3  UNL     1      17.468  -2.343  60.174  1.00  0.00    -0.388 N
ATOM     13  H3  UNL     1      17.151  -1.738  60.931  1.00  0.00     0.159 HD
BRANCH  12  14
HETATM   14  C5  UNL     1      16.537  -3.094  59.847  1.00  0.00     0.032 A
HETATM   15  C6  UNL     1      16.682  -3.907  58.697  1.00  0.00     0.046 A
HETATM   16  C7  UNL     1      15.701  -4.757  58.272  1.00  0.00     0.091 A
HETATM   17  N4  UNL     1      14.539  -4.856  58.939  1.00  0.00    -0.354 N
HETATM   18  C8  UNL     1      14.347  -4.108  60.037  1.00  0.00     0.118 A
ATOM     19  H4  UNL     1      13.812  -5.493  58.615  1.00  0.00     0.166 HD
HETATM   20  N5  UNL     1      13.095  -4.248  60.701  1.00  0.00    -0.083 NA
HETATM   21  C9  UNL     1      15.330  -3.229  60.499  1.00  0.00     0.074 A
ENDBRANCH  12  14
ENDBRANCH   1  12
TORSDOF 7
ENDMDL