MODEL 4
REMARK VINA RESULT: -5.401646773      1.175      1.928
REMARK  7 active torsions:
REMARK  status: ('A' for Active; 'I' for Inactive)
REMARK    1  A    between atoms: C2_2  and  N1_3
REMARK    2  A    between atoms: N1_3  and  N2_4
REMARK    3  A    between atoms: N1_3  and  C3_7
REMARK    4  A    between atoms: C3_7  and  C4_8
REMARK    5  A    between atoms: C4_8  and  N3_9
REMARK    6  A    between atoms: N3_9  and  C5_11
REMARK    7  A    between atoms: C8_16  and  N5_17
ROOT
HETATM    1  C5  UNL     1      16.814  -3.497  59.258  1.00  0.00     0.118 A
HETATM    2  C6  UNL     1      16.883  -4.162  58.047  1.00  0.00     0.066 A
HETATM    3  C7  UNL     1      15.833  -4.916  57.615  1.00  0.00     0.110 A
HETATM    4  N4  UNL     1      14.694  -5.059  58.313  1.00  0.00    -0.202 N
ATOM      5  H4  UNL     1      13.922  -5.628  57.967  1.00  0.00     0.183 HD
HETATM    6  C8  UNL     1      14.622  -4.402  59.513  1.00  0.00     0.677 A
HETATM    7  N6  UNL     1      15.653  -3.662  59.937  1.00  0.00    -0.177 N
ATOM      8  H6  UNL     1      15.559  -3.188  60.835  1.00  0.00     0.185 HD
ENDROOT
BRANCH   1   9
HETATM    9  N3  UNL     1      17.769  -2.764  59.726  1.00  0.00    -0.371 N
ATOM     10  H3  UNL     1      18.484  -2.403  59.094  1.00  0.00     0.161 HD
BRANCH   9  11
HETATM   11  C4  UNL     1      17.835  -2.451  61.140  1.00  0.00     0.167 C
BRANCH  11  12
HETATM   12  C3  UNL     1      17.741  -0.974  61.379  1.00  0.00     0.102 C
BRANCH  12  13
HETATM   13  N1  UNL     1      16.567  -0.329  61.012  1.00  0.00    -0.312 N
BRANCH  13  14
HETATM   14  C2  UNL     1      16.626   0.564  59.910  1.00  0.00     0.143 C
HETATM   15  C1  UNL     1      18.010   0.841  59.412  1.00  0.00     0.028 C
ENDBRANCH  13  14
BRANCH  13  16
HETATM   16  N2  UNL     1      15.557  -0.174  61.897  1.00  0.00    -0.344 N
ATOM     17  H22 UNL     1      14.810  -0.866  61.963  1.00  0.00     0.177 HD
ATOM     18  H21 UNL     1      15.723   0.420  62.709  1.00  0.00     0.177 HD
ENDBRANCH  13  16
ENDBRANCH  12  13
ENDBRANCH  11  12
ENDBRANCH   9  11
ENDBRANCH   1   9
BRANCH   6  19
HETATM   19  N5  UNL     1      13.529  -4.537  60.187  1.00  0.00    -0.234 N
ATOM     20  H52 UNL     1      13.330  -4.006  61.035  1.00  0.00     0.174 HD
ATOM     21  H51 UNL     1      12.851  -5.213  59.834  1.00  0.00     0.174 HD
ENDBRANCH   6  19
TORSDOF 7
ENDMDL