MODEL 3
REMARK VINA RESULT: -5.429648365      0.448      1.497
REMARK  7 active torsions:
REMARK  status: ('A' for Active; 'I' for Inactive)
REMARK    1  A    between atoms: C2_4  and  C3_5
REMARK    2  A    between atoms: C3_5  and  N2_6
REMARK    3  A    between atoms: N2_6  and  C4_9
REMARK    4  A    between atoms: C4_9  and  C5_10
REMARK    5  A    between atoms: C5_10  and  N3_11
REMARK    6  A    between atoms: C5_10  and  C6_15
REMARK    7  A    between atoms: C6_15  and  N4_16
ROOT
HETATM    1  N2  UNL     1      18.333  -2.425  61.385  1.00  0.00    -0.067 N
ATOM      2  H21 UNL     1      19.078  -3.048  61.697  1.00  0.00     0.277 HD
ATOM      3  H22 UNL     1      17.555  -3.077  61.484  1.00  0.00     0.277 HD
ENDROOT
BRANCH   1   4
HETATM    4  C3  UNL     1      18.511  -1.994  60.050  1.00  0.00     0.299 C
BRANCH   4   5
HETATM    5  C2  UNL     1      17.688  -2.987  59.197  1.00  0.00     0.105 A
HETATM    6  O1  UNL     1      17.935  -3.265  58.078  1.00  0.00    -0.237 OA
HETATM    7  N1  UNL     1      16.990  -4.184  57.601  1.00  0.00    -0.243 N
HETATM    8  C1  UNL     1      16.881  -4.732  56.325  1.00  0.00     0.187 C
HETATM    9  C8  UNL     1      16.143  -4.282  58.672  1.00  0.00     0.141 A
HETATM   10  C7  UNL     1      16.728  -3.545  59.606  1.00  0.00     0.083 A
HETATM   11  N5  UNL     1      14.772  -4.746  58.721  1.00  0.00    -0.081 NA
ENDBRANCH   4   5
ENDBRANCH   1   4
BRANCH   1  12
HETATM   12  C4  UNL     1      18.196  -1.277  62.220  1.00  0.00     0.270 C
BRANCH  12  13
HETATM   13  C5  UNL     1      17.033  -1.433  63.184  1.00  0.00     0.246 C
BRANCH  13  14
HETATM   14  N3  UNL     1      17.141  -2.832  63.661  1.00  0.00    -0.069 N
ATOM     15  H33 UNL     1      16.720  -3.520  63.038  1.00  0.00     0.275 HD
ATOM     16  H32 UNL     1      18.086  -3.214  63.625  1.00  0.00     0.275 HD
ATOM     17  H31 UNL     1      16.735  -2.809  64.596  1.00  0.00     0.275 HD
ENDBRANCH  13  14
BRANCH  13  18
HETATM   18  C6  UNL     1      15.861  -1.243  62.365  1.00  0.00     0.087 C
BRANCH  18  19
HETATM   19  N4  UNL     1      15.675  -0.096  61.792  1.00  0.00    -0.409 N
ATOM     20  H42 UNL     1      16.480   0.439  61.463  1.00  0.00     0.155 HD
ATOM     21  H41 UNL     1      14.723   0.252  61.679  1.00  0.00     0.155 HD
ENDBRANCH  18  19
ENDBRANCH  13  18
ENDBRANCH  12  13
ENDBRANCH   1  12
TORSDOF 7
ENDMDL