MODEL 1
REMARK VINA RESULT: -5.905527816      0.000      0.000
REMARK  5 active torsions:
REMARK  status: ('A' for Active; 'I' for Inactive)
REMARK    1  A    between atoms: C2_2  and  C3_3
REMARK    2  A    between atoms: C3_3  and  C4_4
REMARK    3  A    between atoms: C4_4  and  N1_5
REMARK    4  A    between atoms: N1_5  and  C5_7
REMARK    5  A    between atoms: N2_8  and  N3_10
ROOT
HETATM    1  N3  UNL     1      14.616  -3.589  60.381  1.00  0.00    -0.269 N
ATOM      2  H3  UNL     1      13.700  -3.922  60.682  1.00  0.00     0.190 HD
HETATM    3  C6  UNL     1      15.197  -4.090  59.340  1.00  0.00     0.209 C
HETATM    4  N4  UNL     1      16.483  -3.631  58.908  1.00  0.00    -0.358 N
ATOM      5  H4  UNL     1      16.924  -2.791  59.283  1.00  0.00     0.162 HD
HETATM    6  C7  UNL     1      17.109  -4.464  57.888  1.00  0.00     0.144 C
HETATM    7  C8  UNL     1      16.121  -4.732  56.782  1.00  0.00     0.159 C
HETATM    8  N5  UNL     1      14.838  -5.174  57.210  1.00  0.00    -0.332 N
ATOM      9  H5  UNL     1      14.137  -5.510  56.551  1.00  0.00     0.180 HD
HETATM   10  N6  UNL     1      14.598  -5.122  58.567  1.00  0.00    -0.274 N
ATOM     11  H6  UNL     1      13.998  -5.816  59.012  1.00  0.00     0.189 HD
ENDROOT
BRANCH   1  12
HETATM   12  N2  UNL     1      15.270  -2.589  61.075  1.00  0.00    -0.294 N
HETATM   13  C5  UNL     1      14.830  -1.387  61.202  1.00  0.00     0.192 C
ATOM     14  H2  UNL     1      16.160  -2.820  61.516  1.00  0.00     0.187 HD
BRANCH  13  15
HETATM   15  N1  UNL     1      15.592  -0.447  61.940  1.00  0.00    -0.385 N
ATOM     16  H1  UNL     1      15.156   0.360  62.386  1.00  0.00     0.160 HD
BRANCH  15  17
HETATM   17  C4  UNL     1      17.029  -0.685  62.034  1.00  0.00     0.124 C
BRANCH  17  18
HETATM   18  C3  UNL     1      17.306  -0.954  63.519  1.00  0.00     0.046 C
BRANCH  18  19
HETATM   19  C2  UNL     1      18.680  -1.495  63.605  1.00  0.00    -0.035 C
HETATM   20  C1  UNL     1      19.669  -1.083  62.830  1.00  0.00     0.007 C
ENDBRANCH  18  19
ENDBRANCH  17  18
ENDBRANCH  15  17
ENDBRANCH  13  15
ENDBRANCH   1  12
TORSDOF 5
ENDMDL