MODEL 4
REMARK VINA RESULT: -4.967328759      1.642      2.357
REMARK  6 active torsions:
REMARK  status: ('A' for Active; 'I' for Inactive)
REMARK    1  A    between atoms: N1_2  and  C2_4
REMARK    2  A    between atoms: C2_4  and  C3_5
REMARK    3  A    between atoms: C3_5  and  C4_6
REMARK    4  A    between atoms: C4_6  and  C5_7
REMARK    5  A    between atoms: C8_13  and  C9_14
REMARK    6  A    between atoms: C9_14  and  N3_15
ROOT
HETATM    1  C5  UNL     1      18.552  -2.442  60.772  1.00  0.00     0.212 C
HETATM    2  C6  UNL     1      19.573  -1.351  60.747  1.00  0.00     0.265 C
HETATM    3  N2  UNL     1      20.332  -1.243  61.947  1.00  0.00    -0.071 N
ATOM      4  H21 UNL     1      20.788  -0.332  62.020  1.00  0.00     0.277 HD
ATOM      5  H22 UNL     1      21.164  -1.833  61.918  1.00  0.00     0.277 HD
HETATM    6  C7  UNL     1      19.520  -1.526  63.111  1.00  0.00     0.267 C
HETATM    7  C8  UNL     1      18.082  -1.280  62.728  1.00  0.00     0.237 C
HETATM    8  N4  UNL     1      17.680  -2.425  61.927  1.00  0.00    -0.062 N
ATOM      9  H41 UNL     1      17.680  -3.302  62.447  1.00  0.00     0.278 HD
ATOM     10  H42 UNL     1      16.689  -2.422  61.685  1.00  0.00     0.278 HD
ENDROOT
BRANCH   1  11
HETATM   11  C4  UNL     1      17.638  -2.343  59.561  1.00  0.00     0.040 C
BRANCH  11  12
HETATM   12  C3  UNL     1      16.723  -3.506  59.545  1.00  0.00     0.046 C
BRANCH  12  13
HETATM   13  C2  UNL     1      16.699  -4.361  58.339  1.00  0.00     0.055 C
BRANCH  13  14
HETATM   14  N1  UNL     1      15.529  -5.083  58.032  1.00  0.00    -0.406 N
HETATM   15  C1  UNL     1      15.059  -5.005  56.698  1.00  0.00     0.145 C
ATOM     16  H1  UNL     1      15.043  -5.638  58.737  1.00  0.00     0.158 HD
ENDBRANCH  13  14
ENDBRANCH  12  13
ENDBRANCH  11  12
ENDBRANCH   1  11
BRANCH   7  17
HETATM   17  C9  UNL     1      17.228  -1.095  63.939  1.00  0.00     0.264 C
BRANCH  17  18
HETATM   18  N3  UNL     1      17.125  -2.359  64.625  1.00  0.00    -0.077 N
ATOM     19  H33 UNL     1      16.165  -2.697  64.681  1.00  0.00     0.274 HD
ATOM     20  H32 UNL     1      17.514  -3.131  64.084  1.00  0.00     0.274 HD
ATOM     21  H31 UNL     1      17.561  -2.267  65.543  1.00  0.00     0.274 HD
ENDBRANCH  17  18
ENDBRANCH   7  17
TORSDOF 6
ENDMDL