MODEL 5
REMARK VINA RESULT: -5.129614712      0.698      1.206
REMARK  6 active torsions:
REMARK  status: ('A' for Active; 'I' for Inactive)
REMARK    1  A    between atoms: N1_2  and  C2_5
REMARK    2  A    between atoms: C2_5  and  C3_6
REMARK    3  A    between atoms: C3_6  and  N2_7
REMARK    4  A    between atoms: N2_7  and  C5_9
REMARK    5  A    between atoms: C5_9  and  C6_10
REMARK    6  A    between atoms: C7_13  and  N4_14
ROOT
HETATM    1  C6  UNL     1      16.846  -2.214  61.731  1.00  0.00     0.140 A
HETATM    2  N3  UNL     1      17.016  -1.164  62.539  1.00  0.00    -0.176 N
ATOM      3  H3  UNL     1      16.990  -0.187  62.246  1.00  0.00     0.185 HD
HETATM    4  C7  UNL     1      17.228  -1.590  63.799  1.00  0.00     0.691 A
HETATM    5  N5  UNL     1      17.188  -2.937  63.768  1.00  0.00    -0.131 N
ATOM      6  H5  UNL     1      17.313  -3.564  64.562  1.00  0.00     0.205 HD
HETATM    7  N6  UNL     1      16.957  -3.294  62.514  1.00  0.00    -0.273 N
ATOM      8  H6  UNL     1      16.875  -4.258  62.191  1.00  0.00     0.189 HD
ENDROOT
BRANCH   1   9
HETATM    9  C5  UNL     1      16.588  -2.179  60.261  1.00  0.00     0.350 C
BRANCH   9  10
HETATM   10  N2  UNL     1      17.470  -3.022  59.528  1.00  0.00     0.092 N
HETATM   11  C4  UNL     1      18.561  -2.322  58.899  1.00  0.00     0.310 C
BRANCH  10  12
HETATM   12  C3  UNL     1      16.748  -3.882  58.658  1.00  0.00     0.299 C
BRANCH  12  13
HETATM   13  C2  UNL     1      15.360  -4.256  59.124  1.00  0.00     0.262 C
BRANCH  13  14
HETATM   14  N1  UNL     1      14.810  -5.131  58.072  1.00  0.00    -0.077 N
HETATM   15  C1  UNL     1      15.710  -5.193  56.943  1.00  0.00     0.267 C
ATOM     16  H12 UNL     1      13.871  -4.846  57.794  1.00  0.00     0.276 HD
ATOM     17  H11 UNL     1      14.587  -6.060  58.430  1.00  0.00     0.276 HD
ENDBRANCH  13  14
ENDBRANCH  12  13
ENDBRANCH  10  12
ENDBRANCH   9  10
ENDBRANCH   1   9
BRANCH   4  18
HETATM   18  N4  UNL     1      17.434  -0.883  64.859  1.00  0.00    -0.233 N
ATOM     19  H42 UNL     1      18.332  -0.478  65.123  1.00  0.00     0.174 HD
ATOM     20  H41 UNL     1      16.766  -0.619  65.583  1.00  0.00     0.174 HD
ENDBRANCH   4  18
TORSDOF 6
ENDMDL