MODEL 4
REMARK VINA RESULT: -5.461963898      1.580      6.554
REMARK  7 active torsions:
REMARK  status: ('A' for Active; 'I' for Inactive)
REMARK    1  A    between atoms: N1_2  and  C2_5
REMARK    2  A    between atoms: C2_5  and  C3_6
REMARK    3  A    between atoms: C3_6  and  C4_7
REMARK    4  A    between atoms: C4_7  and  C5_8
REMARK    5  A    between atoms: C5_8  and  N2_9
REMARK    6  A    between atoms: N2_9  and  C6_10
REMARK    7  A    between atoms: C8_18  and  N6_19
ROOT
HETATM    1  C6  UNL     1      16.592  -4.151  57.823  1.00  0.00     0.236 A
HETATM    2  N3  UNL     1      17.416  -4.024  56.744  1.00  0.00    -0.270 N
ATOM      3  H3  UNL     1      18.263  -3.464  56.840  1.00  0.00     0.189 HD
HETATM    4  N4  UNL     1      17.168  -4.590  55.591  1.00  0.00    -0.294 N
ATOM      5  H4  UNL     1      17.811  -4.469  54.808  1.00  0.00     0.187 HD
HETATM    6  C7  UNL     1      16.062  -5.330  55.451  1.00  0.00     0.199 A
HETATM    7  N5  UNL     1      15.213  -5.490  56.476  1.00  0.00    -0.334 N
ATOM      8  H5  UNL     1      14.378  -6.059  56.339  1.00  0.00     0.168 HD
HETATM    9  C8  UNL     1      15.426  -4.932  57.666  1.00  0.00     0.160 A
ENDROOT
BRANCH   1  10
HETATM   10  N2  UNL     1      16.858  -3.619  58.860  1.00  0.00    -0.399 NA
BRANCH  10  11
HETATM   11  C5  UNL     1      17.170  -2.888  59.931  1.00  0.00     0.158 C
BRANCH  11  12
HETATM   12  C4  UNL     1      16.046  -2.055  60.556  1.00  0.00     0.061 C
BRANCH  12  13
HETATM   13  C3  UNL     1      16.561  -1.724  61.960  1.00  0.00     0.033 C
BRANCH  13  14
HETATM   14  C2  UNL     1      17.179  -2.983  62.535  1.00  0.00     0.232 C
BRANCH  14  15
HETATM   15  N1  UNL     1      17.197  -2.825  63.974  1.00  0.00    -0.079 N
HETATM   16  C1  UNL     1      17.117  -1.437  64.368  1.00  0.00     0.266 C
ATOM     17  H12 UNL     1      18.012  -3.280  64.386  1.00  0.00     0.276 HD
ATOM     18  H11 UNL     1      16.464  -3.378  64.417  1.00  0.00     0.276 HD
ENDBRANCH  14  15
ENDBRANCH  13  14
ENDBRANCH  12  13
ENDBRANCH  11  12
ENDBRANCH  10  11
ENDBRANCH   1  10
BRANCH   9  19
HETATM   19  N6  UNL     1      14.604  -5.094  58.659  1.00  0.00    -0.381 N
ATOM     20  H62 UNL     1      13.750  -4.542  58.749  1.00  0.00     0.157 HD
ATOM     21  H61 UNL     1      14.793  -5.791  59.380  1.00  0.00     0.157 HD
ENDBRANCH   9  19
TORSDOF 7
ENDMDL