MODEL 4
REMARK VINA RESULT: -6.593774368      2.256      3.669
REMARK  9 active torsions:
REMARK  status: ('A' for Active; 'I' for Inactive)
REMARK    1  A    between atoms: N1_2  and  C2_5
REMARK    2  A    between atoms: C2_5  and  C3_6
REMARK    3  A    between atoms: C3_6  and  O1_7
REMARK    4  A    between atoms: C3_6  and  C4_9
REMARK    5  A    between atoms: C8_18  and  N4_19
REMARK    6  A    between atoms: C9_23  and  O3_24
REMARK    7  A    between atoms: C11_27  and  O4_29
REMARK    8  A    between atoms: C14_32  and  C16_35
REMARK       I    between atoms: N6_37  and  C17_38
REMARK       I    between atoms: C17_38  and  N7_40
REMARK       I    between atoms: N7_40  and  C18_42
REMARK    9  A    between atoms: N9_44  and  N10_46
ROOT
HETATM    1  C4  UNL     1     167.047  51.863   9.339  1.00  0.00     0.149 C
HETATM    2  C5  UNL     1     166.024  50.818   9.883  1.00  0.00     0.165 C
HETATM    3  N2  UNL     1     165.219  51.250  10.963  1.00  0.00    -0.396 N
ATOM      4  H2  UNL     1     164.735  52.147  10.919  1.00  0.00     0.155 HD
HETATM    5  C6  UNL     1     165.092  50.411  12.126  1.00  0.00     0.204 C
HETATM    6  C7  UNL     1     165.367  48.951  11.846  1.00  0.00     0.246 C
HETATM    7  O2  UNL     1     164.587  48.035  12.175  1.00  0.00    -0.271 OA
HETATM    8  N3  UNL     1     166.597  48.795  11.181  1.00  0.00    -0.321 N
ATOM      9  H3  UNL     1     167.123  47.922  11.207  1.00  0.00     0.165 HD
HETATM   10  C8  UNL     1     167.055  49.932  10.473  1.00  0.00     0.270 C
HETATM   11  C9  UNL     1     167.807  50.973  11.166  1.00  0.00     0.195 C
HETATM   12  C10 UNL     1     168.437  50.428  12.265  1.00  0.00     0.108 C
HETATM   13  C11 UNL     1     167.511  50.670  13.496  1.00  0.00     0.086 C
HETATM   14  C12 UNL     1     167.936  49.680  14.546  1.00  0.00     0.051 C
HETATM   15  C13 UNL     1     166.073  50.735  13.235  1.00  0.00     0.009 C
HETATM   16  C14 UNL     1     165.459  51.232  14.263  1.00  0.00     0.090 C
HETATM   17  C15 UNL     1     163.988  51.395  14.178  1.00  0.00     0.103 C
HETATM   18  N5  UNL     1     162.818  51.544  14.146  1.00  0.00    -0.191 NA
HETATM   19  N6  UNL     1     168.332  51.524   9.898  1.00  0.00    -0.288 N
HETATM   20  C17 UNL     1     169.676  51.604   9.562  1.00  0.00     0.327 C
HETATM   21  O6  UNL     1     170.562  51.160  10.394  1.00  0.00    -0.247 OA
HETATM   22  N7  UNL     1     170.195  52.134   8.378  1.00  0.00    -0.281 N
ATOM     23  H7  UNL     1     169.553  52.501   7.675  1.00  0.00     0.173 HD
HETATM   24  C18 UNL     1     171.621  52.176   8.121  1.00  0.00     0.210 C
HETATM   25  N8  UNL     1     172.529  51.684   9.072  1.00  0.00    -0.062 NA
HETATM   26  N9  UNL     1     172.062  52.667   7.024  1.00  0.00    -0.280 N
ATOM     27  H9  UNL     1     171.393  53.025   6.342  1.00  0.00     0.189 HD
ENDROOT
BRANCH  16  28
HETATM   28  C16 UNL     1     166.017  51.645  15.556  1.00  0.00     0.281 C
HETATM   29  O5  UNL     1     165.926  52.889  15.860  1.00  0.00    -0.301 OA
ENDBRANCH  16  28
BRANCH  13  30
HETATM   30  O4  UNL     1     167.941  51.930  13.924  1.00  0.00    -0.385 OA
ATOM     31  H4  UNL     1     168.797  51.986  13.517  1.00  0.00     0.211 HD
ENDBRANCH  13  30
BRANCH  11  32
HETATM   32  O3  UNL     1     167.330  52.208  11.593  1.00  0.00    -0.366 OA
ATOM     33  H3  UNL     1     167.452  52.603  12.449  1.00  0.00     0.212 HD
ENDBRANCH  11  32
BRANCH   1  34
HETATM   34  C3  UNL     1     166.899  52.078   7.900  1.00  0.00     0.169 C
BRANCH  34  35
HETATM   35  C2  UNL     1     165.500  52.679   7.575  1.00  0.00     0.265 C
BRANCH  35  36
HETATM   36  N1  UNL     1     165.720  53.472   6.373  1.00  0.00    -0.077 N
HETATM   37  C1  UNL     1     166.777  54.424   6.497  1.00  0.00     0.267 C
ATOM     38  H12 UNL     1     164.856  53.930   6.081  1.00  0.00     0.276 HD
ATOM     39  H11 UNL     1     165.874  52.867   5.567  1.00  0.00     0.276 HD
ENDBRANCH  35  36
ENDBRANCH  34  35
BRANCH  34  40
HETATM   40  O1  UNL     1     167.005  51.003   7.058  1.00  0.00    -0.392 OA
ATOM     41  H1  UNL     1     167.934  50.949   6.865  1.00  0.00     0.210 HD
ENDBRANCH  34  40
ENDBRANCH   1  34
BRANCH  10  42
HETATM   42  N4  UNL     1     167.821  49.351   9.375  1.00  0.00    -0.045 N
ATOM     43  H43 UNL     1     167.894  48.336   9.435  1.00  0.00     0.277 HD
ATOM     44  H42 UNL     1     167.331  49.397   8.481  1.00  0.00     0.277 HD
ATOM     45  H41 UNL     1     168.730  49.814   9.353  1.00  0.00     0.277 HD
ENDBRANCH  10  42
BRANCH  26  46
HETATM   46  N10 UNL     1     173.425  52.731   6.726  1.00  0.00    -0.343 N
ATOM     47 2H10 UNL     1     173.692  52.927   5.762  1.00  0.00     0.176 HD
ATOM     48 1H10 UNL     1     174.147  52.590   7.434  1.00  0.00     0.176 HD
ENDBRANCH  26  46
TORSDOF 9
ENDMDL