MODEL 1
REMARK VINA RESULT: -7.571565487      0.000      0.000
REMARK  9 active torsions:
REMARK  status: ('A' for Active; 'I' for Inactive)
REMARK    1  A    between atoms: N1_1  and  C1_5
REMARK    2  A    between atoms: C3_7  and  C4_8
REMARK    3  A    between atoms: N2_11  and  C5_12
REMARK    4  A    between atoms: C5_12  and  C6_17
REMARK    5  A    between atoms: N3_13  and  O3_15
REMARK    6  A    between atoms: C8_22  and  C9_23
REMARK    7  A    between atoms: C9_23  and  O5_24
REMARK    8  A    between atoms: C11_29  and  C12_30
REMARK    9  A    between atoms: C16_43  and  N9_44
ROOT
HETATM    1  C6  UNL     1     165.889  51.235  10.364  1.00  0.00     0.205 C
HETATM    2  C7  UNL     1     166.018  49.938  11.101  1.00  0.00     0.234 C
HETATM    3  O4  UNL     1     166.889  49.072  10.865  1.00  0.00    -0.273 OA
HETATM    4  N4  UNL     1     165.060  49.708  12.144  1.00  0.00    -0.328 N
ATOM      5  H4  UNL     1     165.267  49.011  12.859  1.00  0.00     0.164 HD
HETATM    6  C8  UNL     1     163.811  50.434  12.211  1.00  0.00     0.354 C
HETATM    7  N8  UNL     1     163.909  51.706  11.568  1.00  0.00    -0.019 N
ATOM      8  H81 UNL     1     164.479  52.377  12.083  1.00  0.00     0.282 HD
ATOM      9  H82 UNL     1     163.039  52.237  11.588  1.00  0.00     0.282 HD
HETATM   10  C16 UNL     1     164.405  51.444  10.197  1.00  0.00     0.403 C
ENDROOT
BRANCH   1  11
HETATM   11  C5  UNL     1     166.686  51.293   9.143  1.00  0.00     0.117 C
HETATM   12  N3  UNL     1     166.313  50.642   8.096  1.00  0.00    -0.256 N
ATOM     13  H3  UNL     1     165.439  50.117   8.140  1.00  0.00     0.195 HD
BRANCH  11  14
HETATM   14  N2  UNL     1     167.886  52.026   9.106  1.00  0.00    -0.352 N
HETATM   15  C3  UNL     1     168.292  53.220   8.439  1.00  0.00     0.188 C
HETATM   16  C2  UNL     1     169.826  53.128   8.303  1.00  0.00     0.070 C
HETATM   17  C1  UNL     1     170.162  51.764   8.865  1.00  0.00     0.204 C
HETATM   18  C17 UNL     1     169.064  51.596   9.882  1.00  0.00     0.158 C
BRANCH  15  19
HETATM   19  C4  UNL     1     167.775  53.445   7.095  1.00  0.00     0.196 C
HETATM   20  O1  UNL     1     168.656  53.534   6.166  1.00  0.00    -0.646 OA
HETATM   21  O2  UNL     1     166.464  53.569   6.743  1.00  0.00    -0.646 OA
ENDBRANCH  15  19
BRANCH  17  22
HETATM   22  N1  UNL     1     171.478  51.746   9.480  1.00  0.00    -0.073 N
ATOM     23  H13 UNL     1     172.211  51.927   8.794  1.00  0.00     0.274 HD
ATOM     24  H12 UNL     1     171.618  52.558  10.081  1.00  0.00     0.274 HD
ATOM     25  H11 UNL     1     171.646  50.876   9.985  1.00  0.00     0.274 HD
ENDBRANCH  17  22
ENDBRANCH  11  14
BRANCH  12  26
HETATM   26  O3  UNL     1     167.025  50.618   6.929  1.00  0.00    -0.288 OA
ATOM     27  H3  UNL     1     166.766  50.113   6.167  1.00  0.00     0.244 HD
ENDBRANCH  12  26
ENDBRANCH   1  11
BRANCH  10  28
HETATM   28  N9  UNL     1     163.838  50.140   9.810  1.00  0.00    -0.049 N
ATOM     29  H93 UNL     1     163.446  50.134   8.868  1.00  0.00     0.276 HD
ATOM     30  H92 UNL     1     164.546  49.422   9.657  1.00  0.00     0.276 HD
ATOM     31  H91 UNL     1     163.161  49.892  10.530  1.00  0.00     0.276 HD
ENDBRANCH  10  28
BRANCH   6  32
HETATM   32  C9  UNL     1     163.349  50.569  13.669  1.00  0.00     0.258 C
HETATM   33  N5  UNL     1     162.649  49.375  13.987  1.00  0.00    -0.379 N
HETATM   34  C10 UNL     1     161.299  49.536  14.420  1.00  0.00     0.149 C
ATOM     35  H5  UNL     1     163.085  48.456  13.910  1.00  0.00     0.156 HD
HETATM   36  C11 UNL     1     161.283  49.324  15.941  1.00  0.00     0.159 C
HETATM   37  N6  UNL     1     162.062  48.258  16.390  1.00  0.00    -0.388 N
HETATM   38  C13 UNL     1     163.458  48.347  16.512  1.00  0.00     0.076 C
ATOM     39  H6  UNL     1     161.601  47.383  16.639  1.00  0.00     0.159 HD
HETATM   40  C14 UNL     1     164.065  49.684  16.767  1.00  0.00     0.166 C
HETATM   41  N7  UNL     1     164.919  50.139  15.677  1.00  0.00    -0.352 N
HETATM   42  C15 UNL     1     164.510  50.866  14.550  1.00  0.00     0.277 C
ATOM     43  H7  UNL     1     165.910  49.905  15.740  1.00  0.00     0.162 HD
HETATM   44  O7  UNL     1     165.163  51.894  14.199  1.00  0.00    -0.268 OA
BRANCH  32  45
HETATM   45  O5  UNL     1     162.482  51.664  13.709  1.00  0.00    -0.360 OA
ATOM     46  H5  UNL     1     161.812  51.453  14.348  1.00  0.00     0.213 HD
ENDBRANCH  32  45
BRANCH  36  47
HETATM   47  C12 UNL     1     159.840  49.031  16.255  1.00  0.00     0.257 C
HETATM   48  O6  UNL     1     159.333  47.994  15.889  1.00  0.00    -0.305 OA
ENDBRANCH  36  47
ENDBRANCH   6  32
TORSDOF 9
ENDMDL