MODEL 2
REMARK VINA RESULT: -7.100127587      2.943      9.373
REMARK  9 active torsions:
REMARK  status: ('A' for Active; 'I' for Inactive)
REMARK    1  A    between atoms: C2_2  and  O1_3
REMARK    2  A    between atoms: C2_2  and  C3_5
REMARK    3  A    between atoms: C3_5  and  C4_7
REMARK    4  A    between atoms: C4_7  and  N1_8
REMARK    5  A    between atoms: N1_8  and  C5_11
REMARK    6  A    between atoms: C5_11  and  N2_12
REMARK    7  A    between atoms: C5_11  and  C6_16
REMARK    8  A    between atoms: C13_29  and  N5_30
REMARK    9  A    between atoms: C14_34  and  N6_35
ROOT
HETATM    1  C6  UNL     1     165.826  49.832  13.387  1.00  0.00     0.136 C
HETATM    2  C7  UNL     1     166.177  50.344  14.768  1.00  0.00     0.018 C
HETATM    3  C8  UNL     1     166.764  49.159  15.529  1.00  0.00     0.002 C
HETATM    4  C9  UNL     1     166.857  49.417  16.996  1.00  0.00     0.027 C
HETATM    5  C10 UNL     1     165.756  48.643  17.697  1.00  0.00     0.232 C
HETATM    6  N3  UNL     1     165.903  47.243  17.417  1.00  0.00    -0.074 N
ATOM      7  H31 UNL     1     166.645  46.839  17.989  1.00  0.00     0.277 HD
ATOM      8  H32 UNL     1     166.305  47.103  16.490  1.00  0.00     0.277 HD
HETATM    9  C11 UNL     1     164.693  46.490  17.559  1.00  0.00     0.259 C
HETATM   10  C12 UNL     1     163.904  46.866  18.785  1.00  0.00     0.262 C
HETATM   11  N4  UNL     1     162.661  46.130  18.758  1.00  0.00    -0.041 N
ATOM     12  H41 UNL     1     162.799  45.166  19.062  1.00  0.00     0.279 HD
ATOM     13  H42 UNL     1     162.358  45.958  17.799  1.00  0.00     0.279 HD
HETATM   14  C13 UNL     1     161.619  46.769  19.521  1.00  0.00     0.429 C
HETATM   15  C14 UNL     1     160.484  47.264  18.659  1.00  0.00     0.342 C
HETATM   16  N7  UNL     1     160.842  48.515  18.050  1.00  0.00    -0.329 N
ATOM     17  H7  UNL     1     161.439  49.144  18.587  1.00  0.00     0.164 HD
HETATM   18  C15 UNL     1     160.431  48.947  16.764  1.00  0.00     0.237 C
HETATM   19  O3  UNL     1     160.049  50.134  16.568  1.00  0.00    -0.272 OA
HETATM   20  C16 UNL     1     160.411  48.072  15.557  1.00  0.00     0.225 C
HETATM   21  N8  UNL     1     160.555  48.828  14.331  1.00  0.00    -0.351 N
ATOM     22  H8  UNL     1     160.019  48.503  13.527  1.00  0.00     0.163 HD
HETATM   23  C17 UNL     1     161.355  49.960  14.136  1.00  0.00     0.235 C
HETATM   24  O4  UNL     1     160.860  50.965  13.530  1.00  0.00    -0.272 OA
HETATM   25  C18 UNL     1     162.770  50.103  14.585  1.00  0.00     0.225 C
HETATM   26  N9  UNL     1     163.564  48.949  14.245  1.00  0.00    -0.352 N
ATOM     27  H9  UNL     1     163.294  48.067  14.680  1.00  0.00     0.162 HD
HETATM   28  C19 UNL     1     164.670  48.910  13.378  1.00  0.00     0.226 C
HETATM   29  O5  UNL     1     164.686  47.988  12.490  1.00  0.00    -0.273 OA
ENDROOT
BRANCH   1  30
HETATM   30  C5  UNL     1     165.682  50.962  12.383  1.00  0.00     0.393 C
BRANCH  30  31
HETATM   31  N1  UNL     1     166.880  50.968  11.549  1.00  0.00    -0.039 N
ATOM     32  H12 UNL     1     167.733  50.757  12.066  1.00  0.00     0.280 HD
ATOM     33  H11 UNL     1     167.149  51.900  11.234  1.00  0.00     0.280 HD
BRANCH  31  34
HETATM   34  C4  UNL     1     166.627  50.045  10.458  1.00  0.00     0.315 C
BRANCH  34  35
HETATM   35  C3  UNL     1     167.195  50.503   9.184  1.00  0.00     0.180 C
HETATM   36  O2  UNL     1     168.370  50.702   9.077  1.00  0.00    -0.293 OA
BRANCH  35  37
HETATM   37  C2  UNL     1     166.296  50.720   8.024  1.00  0.00     0.185 C
HETATM   38  C1  UNL     1     165.491  51.999   8.285  1.00  0.00     0.047 C
BRANCH  37  39
HETATM   39  O1  UNL     1     167.017  50.965   6.852  1.00  0.00    -0.388 OA
ATOM     40  H1  UNL     1     166.412  50.787   6.141  1.00  0.00     0.210 HD
ENDBRANCH  37  39
ENDBRANCH  35  37
ENDBRANCH  34  35
ENDBRANCH  31  34
ENDBRANCH  30  31
BRANCH  30  41
HETATM   41  N2  UNL     1     164.564  50.710  11.520  1.00  0.00    -0.049 N
ATOM     42  H23 UNL     1     164.476  49.728  11.257  1.00  0.00     0.276 HD
ATOM     43  H22 UNL     1     163.665  50.800  11.994  1.00  0.00     0.276 HD
ATOM     44  H21 UNL     1     164.654  51.331  10.716  1.00  0.00     0.276 HD
ENDBRANCH  30  41
ENDBRANCH   1  30
BRANCH  14  45
HETATM   45  N5  UNL     1     161.167  45.833  20.537  1.00  0.00    -0.046 N
ATOM     46  H53 UNL     1     160.963  44.908  20.158  1.00  0.00     0.276 HD
ATOM     47  H52 UNL     1     161.911  45.557  21.179  1.00  0.00     0.276 HD
ATOM     48  H51 UNL     1     160.367  46.248  21.015  1.00  0.00     0.276 HD
ENDBRANCH  14  45
BRANCH  15  49
HETATM   49  N6  UNL     1     160.098  46.251  17.707  1.00  0.00    -0.054 N
ATOM     50  H63 UNL     1     159.157  46.408  17.345  1.00  0.00     0.276 HD
ATOM     51  H62 UNL     1     160.612  46.336  16.830  1.00  0.00     0.276 HD
ATOM     52  H61 UNL     1     160.197  45.322  18.116  1.00  0.00     0.276 HD
ENDBRANCH  15  49
TORSDOF 9
ENDMDL