MODEL 1
REMARK VINA RESULT: -7.246491000      0.000      0.000
REMARK  9 active torsions:
REMARK  status: ('A' for Active; 'I' for Inactive)
REMARK    1  A    between atoms: N1_1  and  N2_4
REMARK    2  A    between atoms: N2_4  and  N3_5
REMARK       I    between atoms: N3_5  and  C1_7
REMARK    3  A    between atoms: C1_7  and  C2_9
REMARK    4  A    between atoms: C3_11  and  O3_12
REMARK    5  A    between atoms: C4_14  and  N4_15
REMARK       I    between atoms: N4_15  and  C5_17
REMARK    6  A    between atoms: C5_17  and  C6_19
REMARK    7  A    between atoms: C6_19  and  N5_20
REMARK    8  A    between atoms: C6_19  and  C7_24
REMARK    9  A    between atoms: C10_29  and  C11_30
ROOT
HETATM    1  N4  UNL     1     164.067  50.356  11.466  1.00  0.00    -0.334 N
ATOM      2  H4  UNL     1     164.140  49.342  11.557  1.00  0.00     0.164 HD
HETATM    3  C5  UNL     1     163.232  51.083  12.341  1.00  0.00     0.251 C
HETATM    4  O4  UNL     1     163.158  52.327  12.215  1.00  0.00    -0.271 OA
ENDROOT
BRANCH   1   5
HETATM    5  C4  UNL     1     164.813  51.038  10.454  1.00  0.00     0.242 C
HETATM    6  C3  UNL     1     166.278  50.593  10.616  1.00  0.00     0.301 C
HETATM    7  O2  UNL     1     167.086  51.218   9.706  1.00  0.00    -0.333 OA
HETATM    8  C2  UNL     1     166.755  51.108   8.392  1.00  0.00     0.309 C
HETATM    9  C13 UNL     1     165.384  50.660   8.105  1.00  0.00     0.258 C
HETATM   10  N7  UNL     1     164.439  50.573   9.140  1.00  0.00    -0.333 N
HETATM   11  O8  UNL     1     165.014  50.342   6.950  1.00  0.00    -0.270 OA
ATOM     12  H7  UNL     1     163.509  50.191   8.966  1.00  0.00     0.164 HD
BRANCH   6  13
HETATM   13  O3  UNL     1     166.665  50.972  11.902  1.00  0.00    -0.367 OA
ATOM     14  H3  UNL     1     167.525  51.374  11.862  1.00  0.00     0.212 HD
ENDBRANCH   6  13
BRANCH   8  15
HETATM   15  C1  UNL     1     166.885  52.464   7.738  1.00  0.00     0.273 C
HETATM   16  N3  UNL     1     165.752  53.034   7.104  1.00  0.00    -0.252 N
ATOM     17  H3  UNL     1     164.872  52.519   7.100  1.00  0.00     0.187 HD
HETATM   18  O1  UNL     1     167.981  53.084   7.753  1.00  0.00    -0.269 OA
BRANCH  16  19
HETATM   19  N2  UNL     1     165.812  54.279   6.485  1.00  0.00    -0.027 NA
BRANCH  19  20
HETATM   20  N1  UNL     1     164.966  54.397   5.393  1.00  0.00    -0.329 N
ATOM     21  H12 UNL     1     164.011  54.040   5.402  1.00  0.00     0.174 HD
ATOM     22  H11 UNL     1     165.392  54.870   4.596  1.00  0.00     0.174 HD
ENDBRANCH  19  20
ENDBRANCH  16  19
ENDBRANCH   8  15
ENDBRANCH   1   5
BRANCH   3  23
HETATM   23  C6  UNL     1     162.461  50.374  13.392  1.00  0.00     0.288 C
BRANCH  23  24
HETATM   24  N5  UNL     1     161.214  51.042  13.680  1.00  0.00    -0.066 N
ATOM     25  H53 UNL     1     160.827  51.485  12.847  1.00  0.00     0.275 HD
ATOM     26  H52 UNL     1     160.467  50.373  13.866  1.00  0.00     0.275 HD
ATOM     27  H51 UNL     1     161.313  51.711  14.445  1.00  0.00     0.275 HD
ENDBRANCH  23  24
BRANCH  23  28
HETATM   28  C7  UNL     1     163.321  50.176  14.592  1.00  0.00     0.127 C
HETATM   29  C8  UNL     1     163.140  51.239  15.648  1.00  0.00     0.103 C
HETATM   30  S1  UNL     1     164.661  51.342  16.666  1.00  0.00    -0.097 SA
HETATM   31  S2  UNL     1     166.186  50.114  15.847  1.00  0.00    -0.095 SA
HETATM   32  C9  UNL     1     166.198  48.486  16.644  1.00  0.00     0.122 C
HETATM   33  C10 UNL     1     164.815  48.210  17.179  1.00  0.00     0.195 C
HETATM   34  N6  UNL     1     163.873  48.045  16.096  1.00  0.00    -0.345 N
HETATM   35  C12 UNL     1     163.137  48.850  15.209  1.00  0.00     0.225 C
ATOM     36  H6  UNL     1     163.688  47.057  15.925  1.00  0.00     0.163 HD
HETATM   37  O7  UNL     1     162.036  48.321  14.837  1.00  0.00    -0.273 OA
BRANCH  33  38
HETATM   38  C11 UNL     1     164.806  47.039  18.095  1.00  0.00     0.197 C
HETATM   39  O5  UNL     1     164.732  45.895  17.568  1.00  0.00    -0.646 OA
HETATM   40  O6  UNL     1     164.873  47.124  19.460  1.00  0.00    -0.646 OA
ENDBRANCH  33  38
ENDBRANCH  23  28
ENDBRANCH   3  23
TORSDOF 9
ENDMDL