MODEL 4
REMARK VINA RESULT: -7.121551491      1.211      1.865
REMARK  14 active torsions:
REMARK  status: ('A' for Active; 'I' for Inactive)
REMARK    1  A    between atoms: C2_2  and  O2_4
REMARK    2  A    between atoms: O2_4  and  C3_5
REMARK    3  A    between atoms: C3_5  and  C4_6
REMARK    4  A    between atoms: C5_9  and  N2_10
REMARK    5  A    between atoms: N2_10  and  N3_12
REMARK    6  A    between atoms: C6_15  and  C7_16
REMARK    7  A    between atoms: C7_16  and  N5_18
REMARK    8  A    between atoms: N5_18  and  N6_20
REMARK    9  A    between atoms: N6_20  and  C8_22
REMARK   10  A    between atoms: N7_23  and  N8_25
REMARK   11  A    between atoms: C11_32  and  O4_33
REMARK   12  A    between atoms: C12_35  and  N11_36
REMARK   13  A    between atoms: C14_38  and  N12_39
REMARK   14  A    between atoms: C16_44  and  N13_45
ROOT
HETATM    1  C4  UNL     1     165.027  51.132  10.137  1.00  0.00     0.086 C
HETATM    2  N1  UNL     1     163.818  51.540  10.693  1.00  0.00    -0.337 N
ATOM      3  H1  UNL     1     163.357  52.334  10.246  1.00  0.00     0.167 HD
HETATM    4  C5  UNL     1     163.179  50.994  11.771  1.00  0.00     0.138 C
HETATM    5  C6  UNL     1     163.657  50.209  12.790  1.00  0.00     0.105 C
HETATM    6  C10 UNL     1     164.786  49.389  12.672  1.00  0.00     0.224 C
HETATM    7  O3  UNL     1     164.768  48.349  13.365  1.00  0.00    -0.284 OA
HETATM    8  C11 UNL     1     165.880  49.638  11.872  1.00  0.00     0.146 C
HETATM    9  C12 UNL     1     166.049  50.613  10.867  1.00  0.00     0.097 C
ENDROOT
BRANCH   5  10
HETATM   10  C7  UNL     1     163.043  50.215  13.957  1.00  0.00     0.149 C
HETATM   11  N4  UNL     1     161.857  49.458  14.115  1.00  0.00    -0.080 NA
BRANCH  10  12
HETATM   12  N5  UNL     1     163.553  50.973  15.059  1.00  0.00    -0.286 N
ATOM     13  H5  UNL     1     163.078  51.824  15.360  1.00  0.00     0.188 HD
BRANCH  12  14
HETATM   14  N6  UNL     1     164.693  50.546  15.711  1.00  0.00    -0.294 N
ATOM     15  H6  UNL     1     165.537  51.116  15.656  1.00  0.00     0.187 HD
BRANCH  14  16
HETATM   16  C8  UNL     1     164.728  49.334  16.459  1.00  0.00     0.214 C
HETATM   17  N7  UNL     1     165.680  48.478  16.287  1.00  0.00    -0.293 N
ATOM     18  H7  UNL     1     165.691  47.615  16.830  1.00  0.00     0.187 HD
BRANCH  17  19
HETATM   19  N8  UNL     1     166.684  48.728  15.367  1.00  0.00    -0.275 N
HETATM   20  C9  UNL     1     167.911  48.337  15.556  1.00  0.00     0.215 C
HETATM   21  N9  UNL     1     168.908  48.614  14.591  1.00  0.00    -0.065 NA
HETATM   22  N10 UNL     1     168.270  47.626  16.731  1.00  0.00    -0.065 NA
ATOM     23  H8  UNL     1     166.455  49.237  14.513  1.00  0.00     0.189 HD
ENDBRANCH  17  19
ENDBRANCH  14  16
ENDBRANCH  12  14
ENDBRANCH  10  12
ENDBRANCH   5  10
BRANCH   4  24
HETATM   24  N2  UNL     1     161.909  51.253  11.848  1.00  0.00    -0.291 N
ATOM     25  H2  UNL     1     161.248  50.626  11.389  1.00  0.00     0.188 HD
BRANCH  24  26
HETATM   26  N3  UNL     1     161.419  52.363  12.539  1.00  0.00    -0.344 N
ATOM     27  H32 UNL     1     161.817  53.276  12.321  1.00  0.00     0.176 HD
ATOM     28  H31 UNL     1     160.687  52.282  13.244  1.00  0.00     0.176 HD
ENDBRANCH  24  26
ENDBRANCH   4  24
BRANCH   8  29
HETATM   29  O4  UNL     1     166.971  48.819  12.079  1.00  0.00    -0.355 OA
ATOM     30  H4  UNL     1     167.804  49.156  11.771  1.00  0.00     0.218 HD
ENDBRANCH   8  29
BRANCH   1  31
HETATM   31  C3  UNL     1     165.120  51.365   8.893  1.00  0.00     0.177 C
BRANCH  31  32
HETATM   32  O2  UNL     1     165.050  52.460   8.082  1.00  0.00    -0.289 OA
BRANCH  32  33
HETATM   33  C2  UNL     1     165.999  52.717   7.084  1.00  0.00     0.259 C
HETATM   34  C1  UNL     1     166.256  54.059   6.514  1.00  0.00     0.126 C
HETATM   35  O1  UNL     1     166.654  51.737   6.669  1.00  0.00    -0.265 OA
ENDBRANCH  32  33
ENDBRANCH  31  32
ENDBRANCH   1  31
BRANCH   9  36
HETATM   36  N11 UNL     1     167.384  51.010  10.699  1.00  0.00    -0.373 N
HETATM   37  C13 UNL     1     168.068  50.862   9.453  1.00  0.00     0.155 C
HETATM   38  C14 UNL     1     169.090  51.988   9.344  1.00  0.00     0.203 C
HETATM   39  C15 UNL     1     170.100  51.703  10.437  1.00  0.00     0.068 C
HETATM   40  C16 UNL     1     169.450  51.908  11.757  1.00  0.00     0.203 C
HETATM   41  C17 UNL     1     168.021  51.582  11.873  1.00  0.00     0.155 C
BRANCH  38  42
HETATM   42  N12 UNL     1     169.694  52.030   8.035  1.00  0.00    -0.073 N
ATOM     43 3H12 UNL     1     170.340  51.253   7.896  1.00  0.00     0.274 HD
ATOM     44 2H12 UNL     1     169.018  51.805   7.305  1.00  0.00     0.274 HD
ATOM     45 1H12 UNL     1     170.146  52.927   7.860  1.00  0.00     0.274 HD
ENDBRANCH  38  42
BRANCH  40  46
HETATM   46  N13 UNL     1     169.730  53.298  12.159  1.00  0.00    -0.073 N
ATOM     47 3H13 UNL     1     170.163  53.851  11.419  1.00  0.00     0.274 HD
ATOM     48 2H13 UNL     1     168.888  53.863  12.265  1.00  0.00     0.274 HD
ATOM     49 1H13 UNL     1     170.294  53.252  13.008  1.00  0.00     0.274 HD
ENDBRANCH  40  46
ENDBRANCH   9  36
TORSDOF 14
ENDMDL