MODEL 2
REMARK VINA RESULT: -5.904767054      5.317      7.484
REMARK  7 active torsions:
REMARK  status: ('A' for Active; 'I' for Inactive)
REMARK       I    between atoms: C1_2  and  N3_7
REMARK    1  A    between atoms: N2_3  and  O1_5
REMARK    2  A    between atoms: N3_7  and  C2_9
REMARK    3  A    between atoms: N5_15  and  S1_16
REMARK    4  A    between atoms: C5_20  and  C6_21
REMARK    5  A    between atoms: C5_20  and  C7_24
REMARK    6  A    between atoms: C8_30  and  C9_31
REMARK    7  A    between atoms: C10_40  and  O10_41
ROOT
HETATM    1  C2  UNL     1     163.271  49.263  14.621  1.00  0.00     0.218 C
HETATM    2  N4  UNL     1     163.504  50.480  15.377  1.00  0.00    -0.336 N
ATOM      3  H4  UNL     1     163.262  50.533  16.366  1.00  0.00     0.164 HD
HETATM    4  C3  UNL     1     164.076  51.596  14.710  1.00  0.00     0.246 C
HETATM    5  O2  UNL     1     163.551  52.751  14.819  1.00  0.00    -0.271 OA
HETATM    6  C4  UNL     1     165.287  51.306  13.905  1.00  0.00     0.240 C
HETATM    7  N5  UNL     1     166.419  50.879  14.631  1.00  0.00    -0.222 N
HETATM    8  C5  UNL     1     167.259  50.122  13.865  1.00  0.00     0.388 C
HETATM    9  N6  UNL     1     166.330  49.356  13.004  1.00  0.00    -0.005 N
ATOM     10  H61 UNL     1     166.218  48.384  13.291  1.00  0.00     0.283 HD
ATOM     11  H62 UNL     1     166.700  49.168  12.072  1.00  0.00     0.283 HD
HETATM   12  C8  UNL     1     165.081  50.102  12.990  1.00  0.00     0.248 C
HETATM   13  C10 UNL     1     163.867  49.298  13.260  1.00  0.00     0.207 C
ENDROOT
BRANCH  12  14
HETATM   14  C9  UNL     1     164.915  50.584  11.574  1.00  0.00     0.155 A
HETATM   15  N7  UNL     1     165.276  49.928  10.481  1.00  0.00    -0.270 N
HETATM   16  N8  UNL     1     164.987  50.621   9.402  1.00  0.00    -0.227 N
ATOM     17  H7  UNL     1     165.718  49.008  10.478  1.00  0.00     0.190 HD
HETATM   18  N9  UNL     1     164.420  51.771   9.834  1.00  0.00    -0.227 N
ATOM     19  H8  UNL     1     165.158  50.347   8.434  1.00  0.00     0.210 HD
HETATM   20  N10 UNL     1     164.389  51.725  11.151  1.00  0.00    -0.270 N
ATOM     21  H9  UNL     1     164.079  52.533   9.248  1.00  0.00     0.210 HD
ATOM     22  H10 UNL     1     164.016  52.458  11.754  1.00  0.00     0.190 HD
ENDBRANCH  12  14
BRANCH  13  23
HETATM   23  O10 UNL     1     162.867  49.736  12.335  1.00  0.00    -0.389 OA
ATOM     24  H10 UNL     1     162.707  49.040  11.709  1.00  0.00     0.210 HD
ENDBRANCH  13  23
BRANCH   7  25
HETATM   25  S1  UNL     1     166.816  51.523  16.079  1.00  0.00     0.210 S
HETATM   26  O3  UNL     1     165.992  50.979  17.234  1.00  0.00    -0.578 OA
HETATM   27  O4  UNL     1     166.592  53.030  16.112  1.00  0.00    -0.578 OA
HETATM   28  O5  UNL     1     168.433  51.333  16.485  1.00  0.00    -0.578 OA
ENDBRANCH   7  25
BRANCH   8  29
HETATM   29  C6  UNL     1     168.181  49.187  14.551  1.00  0.00     0.245 C
HETATM   30  O6  UNL     1     167.658  48.258  15.240  1.00  0.00    -0.644 OA
HETATM   31  O7  UNL     1     169.554  49.232  14.507  1.00  0.00    -0.644 OA
ENDBRANCH   8  29
BRANCH   8  32
HETATM   32  C7  UNL     1     168.136  50.976  13.015  1.00  0.00     0.245 C
HETATM   33  O8  UNL     1     168.479  52.113  13.381  1.00  0.00    -0.644 OA
HETATM   34  O9  UNL     1     168.594  50.520  11.803  1.00  0.00    -0.644 OA
ENDBRANCH   8  32
BRANCH   1  35
HETATM   35  N3  UNL     1     161.835  49.108  14.470  1.00  0.00    -0.339 N
HETATM   36  C1  UNL     1     160.852  49.045  15.450  1.00  0.00     0.209 C
HETATM   37  N1  UNL     1     160.883  49.784  16.646  1.00  0.00    -0.062 NA
HETATM   38  N2  UNL     1     159.842  48.276  15.245  1.00  0.00    -0.241 N
ATOM     39  H2  UNL     1     159.781  47.720  14.391  1.00  0.00     0.197 HD
ATOM     40  H3  UNL     1     161.501  49.035  13.509  1.00  0.00     0.164 HD
BRANCH  38  41
HETATM   41  O1  UNL     1     158.853  48.213  16.182  1.00  0.00    -0.287 OA
ATOM     42  H1  UNL     1     158.980  47.671  16.952  1.00  0.00     0.244 HD
ENDBRANCH  38  41
ENDBRANCH   1  35
TORSDOF 7
ENDMDL