MODEL 3
REMARK VINA RESULT: -6.208728666      1.759      2.351
REMARK  8 active torsions:
REMARK  status: ('A' for Active; 'I' for Inactive)
REMARK    1  A    between atoms: N1_1  and  C1_5
REMARK    2  A    between atoms: C1_5  and  C2_6
REMARK    3  A    between atoms: C2_6  and  C3_7
REMARK    4  A    between atoms: C3_7  and  C4_8
REMARK    5  A    between atoms: C7_14  and  C8_15
REMARK    6  A    between atoms: C8_15  and  N3_16
REMARK    7  A    between atoms: C15_38  and  C16_39
REMARK    8  A    between atoms: C16_39  and  N10_40
ROOT
HETATM    1  C4  UNL     1     165.119  50.925  11.935  1.00  0.00     0.169 C
HETATM    2  N2  UNL     1     164.019  50.989  12.843  1.00  0.00    -0.407 N
ATOM      3  H2  UNL     1     164.064  51.510  13.720  1.00  0.00     0.154 HD
HETATM    4  C5  UNL     1     162.849  50.270  12.435  1.00  0.00     0.141 C
HETATM    5  C6  UNL     1     161.884  50.241  13.601  1.00  0.00     0.188 C
HETATM    6  O1  UNL     1     162.600  49.985  14.741  1.00  0.00    -0.373 OA
HETATM    7  C7  UNL     1     161.963  50.458  15.898  1.00  0.00     0.238 C
HETATM    8  C9  UNL     1     162.859  50.558  17.062  1.00  0.00     0.249 C
HETATM    9  O2  UNL     1     163.615  51.610  17.012  1.00  0.00    -0.271 OA
HETATM   10  N4  UNL     1     163.018  49.736  18.168  1.00  0.00    -0.336 N
ATOM     11  H4  UNL     1     162.819  50.192  19.059  1.00  0.00     0.164 HD
HETATM   12  C10 UNL     1     163.410  48.363  18.291  1.00  0.00     0.236 C
HETATM   13  N5  UNL     1     162.318  47.420  18.318  1.00  0.00    -0.101 NA
HETATM   14  N6  UNL     1     162.862  46.226  17.892  1.00  0.00    -0.036 NA
HETATM   15  N7  UNL     1     163.877  46.495  17.005  1.00  0.00    -0.101 NA
HETATM   16  C11 UNL     1     164.349  47.841  17.258  1.00  0.00     0.236 C
HETATM   17  N8  UNL     1     165.711  47.763  17.766  1.00  0.00    -0.337 N
ATOM     18  H8  UNL     1     165.837  47.665  18.773  1.00  0.00     0.164 HD
HETATM   19  C12 UNL     1     166.869  47.813  16.959  1.00  0.00     0.236 C
HETATM   20  O3  UNL     1     167.862  47.135  17.330  1.00  0.00    -0.272 OA
HETATM   21  C13 UNL     1     166.994  48.605  15.714  1.00  0.00     0.225 C
HETATM   22  N9  UNL     1     167.107  50.034  16.046  1.00  0.00    -0.350 N
ATOM     23  H9  UNL     1     167.201  50.318  17.020  1.00  0.00     0.163 HD
HETATM   24  C14 UNL     1     167.087  51.020  15.029  1.00  0.00     0.242 C
HETATM   25  O4  UNL     1     166.510  52.105  15.293  1.00  0.00    -0.271 OA
HETATM   26  C15 UNL     1     167.693  50.863  13.694  1.00  0.00     0.202 C
HETATM   27  N11 UNL     1     167.182  49.764  12.936  1.00  0.00    -0.344 N
ATOM     28  H11 UNL     1     167.768  48.932  12.866  1.00  0.00     0.163 HD
HETATM   29  C17 UNL     1     165.935  49.733  12.275  1.00  0.00     0.240 C
HETATM   30  O5  UNL     1     165.471  48.612  11.944  1.00  0.00    -0.271 OA
ENDROOT
BRANCH   1  31
HETATM   31  C3  UNL     1     164.579  50.846  10.516  1.00  0.00     0.036 C
BRANCH  31  32
HETATM   32  C2  UNL     1     165.640  51.415   9.590  1.00  0.00     0.030 C
BRANCH  32  33
HETATM   33  C1  UNL     1     165.638  50.706   8.255  1.00  0.00     0.230 C
BRANCH  33  34
HETATM   34  N1  UNL     1     166.920  50.754   7.598  1.00  0.00    -0.079 N
ATOM     35  H13 UNL     1     167.200  51.717   7.414  1.00  0.00     0.274 HD
ATOM     36  H12 UNL     1     167.668  50.483   8.236  1.00  0.00     0.274 HD
ATOM     37  H11 UNL     1     166.946  50.196   6.745  1.00  0.00     0.274 HD
ENDBRANCH  33  34
ENDBRANCH  32  33
ENDBRANCH  31  32
ENDBRANCH   1  31
BRANCH  26  38
HETATM   38  C16 UNL     1     169.220  50.732  13.795  1.00  0.00     0.264 C
BRANCH  38  39
HETATM   39  N10 UNL     1     169.770  51.810  14.588  1.00  0.00    -0.077 N
ATOM     40 3H10 UNL     1     170.511  52.305  14.093  1.00  0.00     0.274 HD
ATOM     41 2H10 UNL     1     169.111  52.582  14.687  1.00  0.00     0.274 HD
ATOM     42 1H10 UNL     1     170.085  51.462  15.494  1.00  0.00     0.274 HD
ENDBRANCH  38  39
ENDBRANCH  26  38
BRANCH   7  43
HETATM   43  C8  UNL     1     160.718  49.661  16.082  1.00  0.00     0.271 C
BRANCH  43  44
HETATM   44  N3  UNL     1     160.928  48.233  15.906  1.00  0.00    -0.076 N
ATOM     45  H33 UNL     1     161.845  48.048  15.498  1.00  0.00     0.274 HD
ATOM     46  H32 UNL     1     161.049  47.769  16.806  1.00  0.00     0.274 HD
ATOM     47  H31 UNL     1     160.190  47.787  15.361  1.00  0.00     0.274 HD
ENDBRANCH  43  44
ENDBRANCH   7  43
TORSDOF 8
ENDMDL