MODEL 3
REMARK VINA RESULT: -6.256043258      1.511      1.913
REMARK  11 active torsions:
REMARK  status: ('A' for Active; 'I' for Inactive)
REMARK    1  A    between atoms: N1_1  and  C1_4
REMARK    2  A    between atoms: C2_10  and  N4_11
REMARK       I    between atoms: N4_11  and  C3_13
REMARK    3  A    between atoms: C3_13  and  C4_15
REMARK    4  A    between atoms: C4_15  and  C5_16
REMARK    5  A    between atoms: C5_16  and  N5_17
REMARK    6  A    between atoms: C5_16  and  O3_21
REMARK    7  A    between atoms: C7_27  and  C8_28
REMARK    8  A    between atoms: C10_32  and  C11_33
REMARK    9  A    between atoms: C11_33  and  S2_34
REMARK   10  A    between atoms: S2_34  and  N7_35
REMARK   11  A    between atoms: C13_42  and  O9_43
ROOT
HETATM    1  C4  UNL     1     162.339  50.341  13.906  1.00  0.00     0.172 C
HETATM    2  S1  UNL     1     162.134  51.733  15.052  1.00  0.00    -0.100 SA
HETATM    3  C6  UNL     1     161.504  50.351  16.036  1.00  0.00     0.171 C
HETATM    4  N6  UNL     1     160.232  50.608  16.625  1.00  0.00    -0.379 N
ATOM      5  H6  UNL     1     159.661  51.405  16.346  1.00  0.00     0.156 HD
HETATM    6  C7  UNL     1     159.805  49.696  17.618  1.00  0.00     0.204 C
HETATM    7  C9  UNL     1     160.819  48.831  18.197  1.00  0.00     0.020 C
HETATM    8  C10 UNL     1     162.143  48.906  17.970  1.00  0.00     0.006 C
HETATM    9  C12 UNL     1     162.533  49.937  17.023  1.00  0.00     0.197 C
HETATM   10  O8  UNL     1     163.662  50.421  17.065  1.00  0.00    -0.289 OA
HETATM   11  C13 UNL     1     161.429  49.534  14.774  1.00  0.00     0.197 C
ENDROOT
BRANCH   1  12
HETATM   12  C3  UNL     1     163.725  49.821  13.820  1.00  0.00     0.249 C
HETATM   13  N4  UNL     1     164.823  50.399  14.447  1.00  0.00    -0.307 N
ATOM     14  H4  UNL     1     164.706  50.507  15.455  1.00  0.00     0.170 HD
HETATM   15  O2  UNL     1     163.913  48.782  13.131  1.00  0.00    -0.271 OA
BRANCH  13  16
HETATM   16  C2  UNL     1     165.920  50.812  14.027  1.00  0.00     0.176 A
HETATM   17  C1  UNL     1     167.075  51.077  14.707  1.00  0.00     0.167 A
HETATM   18  N2  UNL     1     167.984  51.506  13.783  1.00  0.00    -0.222 N
HETATM   19  O1  UNL     1     167.409  51.497  12.640  1.00  0.00    -0.153 OA
ATOM     20  H2  UNL     1     168.948  51.784  13.970  1.00  0.00     0.198 HD
HETATM   21  N3  UNL     1     166.177  51.091  12.729  1.00  0.00    -0.222 N
ATOM     22  H3  UNL     1     165.519  50.998  11.955  1.00  0.00     0.198 HD
BRANCH  17  23
HETATM   23  N1  UNL     1     167.338  50.974  15.940  1.00  0.00    -0.381 N
ATOM     24  H12 UNL     1     166.712  50.866  16.739  1.00  0.00     0.157 HD
ATOM     25  H11 UNL     1     168.288  50.986  16.312  1.00  0.00     0.157 HD
ENDBRANCH  17  23
ENDBRANCH  13  16
ENDBRANCH   1  12
BRANCH   1  26
HETATM   26  C5  UNL     1     161.815  50.711  12.551  1.00  0.00     0.347 C
BRANCH  26  27
HETATM   27  N5  UNL     1     162.865  51.262  11.712  1.00  0.00    -0.051 N
ATOM     28  H53 UNL     1     163.039  52.244  11.927  1.00  0.00     0.277 HD
ATOM     29  H52 UNL     1     163.779  50.883  11.960  1.00  0.00     0.277 HD
ATOM     30  H51 UNL     1     162.659  51.125  10.723  1.00  0.00     0.277 HD
ENDBRANCH  26  27
BRANCH  26  31
HETATM   31  O3  UNL     1     160.792  51.665  12.671  1.00  0.00    -0.368 OA
ATOM     32  H3  UNL     1     160.886  52.145  13.486  1.00  0.00     0.212 HD
ENDBRANCH  26  31
ENDBRANCH   1  26
BRANCH  11  33
HETATM   33  O9  UNL     1     161.770  48.227  15.033  1.00  0.00    -0.389 OA
ATOM     34  H9  UNL     1     161.348  47.790  15.763  1.00  0.00     0.210 HD
ENDBRANCH  11  33
BRANCH   6  35
HETATM   35  C8  UNL     1     158.651  48.856  17.209  1.00  0.00     0.200 C
HETATM   36  O4  UNL     1     157.540  48.988  17.773  1.00  0.00    -0.646 OA
HETATM   37  O5  UNL     1     158.753  47.910  16.207  1.00  0.00    -0.646 OA
ENDBRANCH   6  35
BRANCH   8  38
HETATM   38  C11 UNL     1     163.026  47.958  18.637  1.00  0.00     0.205 C
BRANCH  38  39
HETATM   39  S2  UNL     1     164.014  46.926  17.631  1.00  0.00     0.228 S
HETATM   40  O6  UNL     1     164.752  45.846  18.338  1.00  0.00    -0.206 OA
HETATM   41  O7  UNL     1     163.122  46.335  16.552  1.00  0.00    -0.206 OA
BRANCH  39  42
HETATM   42  N7  UNL     1     165.235  47.880  16.792  1.00  0.00    -0.328 N
ATOM     43  H72 UNL     1     165.891  47.496  16.112  1.00  0.00     0.168 HD
ATOM     44  H71 UNL     1     165.185  48.855  17.085  1.00  0.00     0.168 HD
ENDBRANCH  39  42
ENDBRANCH  38  39
ENDBRANCH   8  38
TORSDOF 11
ENDMDL