MODEL 3
REMARK VINA RESULT: -7.883706159      2.985      5.401
REMARK  11 active torsions:
REMARK  status: ('A' for Active; 'I' for Inactive)
REMARK    1  A    between atoms: C2_2  and  N1_3
REMARK    2  A    between atoms: C2_2  and  C9_31
REMARK    3  A    between atoms: N1_3  and  C3_5
REMARK    4  A    between atoms: C4_8  and  N3_9
REMARK    5  A    between atoms: C5_14  and  N5_15
REMARK    6  A    between atoms: N5_15  and  C6_17
REMARK    7  A    between atoms: N7_21  and  N8_22
REMARK       I    between atoms: C9_31  and  N12_33
REMARK    8  A    between atoms: N12_33  and  C10_35
REMARK    9  A    between atoms: C12_37  and  N13_38
REMARK   10  A    between atoms: C13_42  and  O2_43
REMARK   11  A    between atoms: C14_45  and  N14_46
ROOT
HETATM    1  C3  UNL     1     166.071  49.510  11.354  1.00  0.00     0.708 A
HETATM    2  N2  UNL     1     164.764  49.861  11.356  1.00  0.00    -0.022 N
ATOM      3  H2  UNL     1     164.190  49.683  12.179  1.00  0.00     0.203 HD
HETATM    4  C4  UNL     1     164.225  50.441  10.279  1.00  0.00     0.705 A
HETATM    5  N4  UNL     1     165.025  50.662   9.196  1.00  0.00    -0.021 N
ATOM      6  H4  UNL     1     164.629  51.102   8.366  1.00  0.00     0.203 HD
HETATM    7  C5  UNL     1     166.314  50.315   9.196  1.00  0.00     0.725 A
HETATM    8  N11 UNL     1     166.847  49.734  10.284  1.00  0.00    -0.021 N
ATOM      9  H11 UNL     1     167.831  49.467  10.295  1.00  0.00     0.203 HD
ENDROOT
BRANCH   1  10
HETATM   10  N1  UNL     1     166.593  48.936  12.401  1.00  0.00    -0.212 N
ATOM     11  H1  UNL     1     166.651  47.918  12.398  1.00  0.00     0.178 HD
BRANCH  10  12
HETATM   12  C2  UNL     1     167.090  49.619  13.552  1.00  0.00     0.187 C
HETATM   13  C1  UNL     1     167.875  48.711  14.478  1.00  0.00     0.043 C
BRANCH  12  14
HETATM   14  C9  UNL     1     165.946  50.132  14.370  1.00  0.00     0.241 C
HETATM   15  O1  UNL     1     165.570  51.311  14.217  1.00  0.00    -0.271 OA
HETATM   16  N12 UNL     1     165.290  49.305  15.305  1.00  0.00    -0.353 N
ATOM     17  H12 UNL     1     165.613  48.345  15.421  1.00  0.00     0.163 HD
BRANCH  16  18
HETATM   18  C10 UNL     1     164.173  49.766  16.110  1.00  0.00     0.111 C
HETATM   19  C11 UNL     1     164.270  49.306  17.547  1.00  0.00     0.062 C
HETATM   20  C12 UNL     1     162.933  48.655  17.837  1.00  0.00     0.216 C
HETATM   21  C13 UNL     1     162.489  48.136  16.477  1.00  0.00     0.173 C
HETATM   22  C14 UNL     1     162.863  49.266  15.575  1.00  0.00     0.137 C
BRANCH  20  23
HETATM   23  N13 UNL     1     162.043  49.651  18.370  1.00  0.00    -0.072 N
ATOM     24 3H13 UNL     1     161.825  50.382  17.694  1.00  0.00     0.274 HD
ATOM     25 2H13 UNL     1     161.095  49.297  18.504  1.00  0.00     0.274 HD
ATOM     26 1H13 UNL     1     162.447  50.022  19.230  1.00  0.00     0.274 HD
ENDBRANCH  20  23
BRANCH  21  27
HETATM   27  O2  UNL     1     163.309  47.041  16.177  1.00  0.00    -0.391 OA
ATOM     28  H2  UNL     1     162.754  46.270  16.205  1.00  0.00     0.210 HD
ENDBRANCH  21  27
BRANCH  22  29
HETATM   29  N14 UNL     1     161.892  50.344  15.604  1.00  0.00    -0.358 N
HETATM   30  C15 UNL     1     161.604  50.958  14.511  1.00  0.00     0.197 C
HETATM   31  N15 UNL     1     160.669  52.001  14.521  1.00  0.00    -0.067 NA
HETATM   32  N16 UNL     1     162.238  50.575  13.284  1.00  0.00    -0.067 NA
ATOM     33  H14 UNL     1     161.444  50.611  16.480  1.00  0.00     0.162 HD
ENDBRANCH  22  29
ENDBRANCH  16  18
ENDBRANCH  12  14
ENDBRANCH  10  12
ENDBRANCH   1  10
BRANCH   4  34
HETATM   34  N3  UNL     1     162.986  50.772  10.277  1.00  0.00    -0.234 N
ATOM     35  H32 UNL     1     162.478  50.946  11.144  1.00  0.00     0.174 HD
ATOM     36  H31 UNL     1     162.482  50.873   9.395  1.00  0.00     0.174 HD
ENDBRANCH   4  34
BRANCH   7  37
HETATM   37  N5  UNL     1     167.074  50.489   8.183  1.00  0.00    -0.021 N
ATOM     38  H5  UNL     1     167.641  49.723   7.819  1.00  0.00     0.203 HD
BRANCH  37  39
HETATM   39  C6  UNL     1     167.113  51.783   7.572  1.00  0.00     0.696 A
HETATM   40  N6  UNL     1     168.201  52.457   7.527  1.00  0.00    -0.207 N
HETATM   41  C7  UNL     1     168.421  53.748   6.962  1.00  0.00     0.291 A
ATOM     42  H6  UNL     1     169.016  52.013   7.950  1.00  0.00     0.179 HD
HETATM   43  N7  UNL     1     167.196  54.276   6.431  1.00  0.00    -0.252 N
HETATM   44  C8  UNL     1     166.009  53.514   6.490  1.00  0.00     0.225 A
HETATM   45  N9  UNL     1     164.823  54.116   5.915  1.00  0.00    -0.061 NA
HETATM   46  N10 UNL     1     165.935  52.349   7.016  1.00  0.00    -0.162 N
ATOM     47  H10 UNL     1     165.052  51.840   7.035  1.00  0.00     0.187 HD
BRANCH  43  48
HETATM   48  N8  UNL     1     167.172  55.584   5.838  1.00  0.00    -0.339 N
ATOM     49  H82 UNL     1     167.574  55.726   4.911  1.00  0.00     0.177 HD
ATOM     50  H81 UNL     1     166.753  56.367   6.340  1.00  0.00     0.177 HD
ENDBRANCH  43  48
ENDBRANCH  37  39
ENDBRANCH   7  37
TORSDOF 11
ENDMDL