MODEL 1
REMARK VINA RESULT: -8.577776802      0.000      0.000
REMARK  8 active torsions:
REMARK  status: ('A' for Active; 'I' for Inactive)
REMARK    1  A    between atoms: N1_1  and  C1_4
REMARK    2  A    between atoms: N3_9  and  C3_10
REMARK    3  A    between atoms: C4_14  and  C5_15
REMARK    4  A    between atoms: C5_15  and  N5_16
REMARK       I    between atoms: N5_16  and  C6_18
REMARK    5  A    between atoms: C6_18  and  C7_20
REMARK       I    between atoms: C7_20  and  N6_22
REMARK    6  A    between atoms: C9_27  and  C10_28
REMARK    7  A    between atoms: C13_36  and  O6_37
REMARK    8  A    between atoms: C14_39  and  O7_40
ROOT
HETATM    1  C3  UNL     1     161.515  47.691  17.779  1.00  0.00     0.344 C
HETATM    2  N4  UNL     1     161.279  49.110  17.449  1.00  0.00    -0.042 N
ATOM      3  H41 UNL     1     160.714  49.629  18.121  1.00  0.00     0.280 HD
ATOM      4  H42 UNL     1     160.656  49.280  16.659  1.00  0.00     0.280 HD
HETATM    5  C4  UNL     1     162.626  49.576  17.284  1.00  0.00     0.237 C
HETATM    6  C13 UNL     1     163.355  48.468  16.588  1.00  0.00     0.183 C
HETATM    7  C14 UNL     1     162.350  47.302  16.591  1.00  0.00     0.200 C
ENDROOT
BRANCH   5   8
HETATM    8  C5  UNL     1     162.717  50.890  16.555  1.00  0.00     0.159 C
BRANCH   8   9
HETATM    9  N5  UNL     1     162.281  50.787  15.180  1.00  0.00    -0.351 N
HETATM   10  C6  UNL     1     162.338  51.948  14.370  1.00  0.00     0.310 C
HETATM   11  O2  UNL     1     162.742  53.050  14.805  1.00  0.00    -0.262 OA
ATOM     12  H5  UNL     1     161.943  49.901  14.803  1.00  0.00     0.162 HD
BRANCH  10  13
HETATM   13  C7  UNL     1     161.912  51.854  12.985  1.00  0.00     0.327 C
HETATM   14  O3  UNL     1     160.709  51.491  12.714  1.00  0.00    -0.261 OA
HETATM   15  N6  UNL     1     162.815  52.157  11.950  1.00  0.00    -0.151 N
HETATM   16  C8  UNL     1     163.757  51.356  11.617  1.00  0.00     0.688 A
ATOM     17  H6  UNL     1     162.717  53.041  11.450  1.00  0.00     0.188 HD
HETATM   18  N7  UNL     1     164.621  51.680  10.606  1.00  0.00    -0.186 N
HETATM   19  N9  UNL     1     163.872  50.191  12.273  1.00  0.00    -0.156 N
HETATM   20  C9  UNL     1     165.597  50.846  10.251  1.00  0.00     0.119 A
ATOM     21  H7  UNL     1     164.516  52.570  10.119  1.00  0.00     0.184 HD
HETATM   22  C11 UNL     1     165.732  49.642  10.915  1.00  0.00     0.110 A
HETATM   23  C12 UNL     1     164.849  49.331  11.934  1.00  0.00     0.261 A
HETATM   24  O5  UNL     1     164.947  48.244  12.557  1.00  0.00    -0.268 OA
ATOM     25  H9  UNL     1     163.223  49.959  13.025  1.00  0.00     0.187 HD
BRANCH  20  26
HETATM   26  C10 UNL     1     166.507  51.199   9.164  1.00  0.00     0.282 C
HETATM   27  N8  UNL     1     166.141  50.999   7.817  1.00  0.00    -0.056 NA
HETATM   28  O4  UNL     1     167.640  51.691   9.449  1.00  0.00    -0.269 OA
ENDBRANCH  20  26
ENDBRANCH  10  13
ENDBRANCH   8   9
ENDBRANCH   5   8
BRANCH   6  29
HETATM   29  O6  UNL     1     163.807  48.751  15.324  1.00  0.00    -0.391 OA
ATOM     30  H6  UNL     1     163.878  49.673  15.107  1.00  0.00     0.210 HD
ENDBRANCH   6  29
BRANCH   1  31
HETATM   31  N3  UNL     1     160.319  46.974  17.985  1.00  0.00    -0.095 N
HETATM   32  C2  UNL     1     160.297  45.965  18.864  1.00  0.00     0.357 A
HETATM   33  N2  UNL     1     159.166  45.281  19.079  1.00  0.00    -0.139 N
HETATM   34  O1  UNL     1     161.336  45.657  19.489  1.00  0.00    -0.245 OA
HETATM   35  C1  UNL     1     158.041  45.604  18.411  1.00  0.00     0.717 A
ATOM     36  H2  UNL     1     159.156  44.513  19.750  1.00  0.00     0.189 HD
HETATM   37  N12 UNL     1     158.055  46.632  17.514  1.00  0.00     0.107 N
HETATM   38  C15 UNL     1     159.189  47.287  17.323  1.00  0.00     0.744 A
HETATM   39  N11 UNL     1     157.445  47.402  16.629  1.00  0.00    -0.192 N
HETATM   40  N10 UNL     1     158.559  48.066  16.424  1.00  0.00    -0.113 N
ATOM     41  H10 UNL     1     158.833  48.848  15.829  1.00  0.00     0.207 HD
ATOM     42  H11 UNL     1     156.497  47.458  16.258  1.00  0.00     0.210 HD
BRANCH  35  43
HETATM   43  N1  UNL     1     156.941  44.984  18.585  1.00  0.00    -0.232 N
ATOM     44  H12 UNL     1     156.930  43.979  18.410  1.00  0.00     0.174 HD
ATOM     45  H11 UNL     1     156.089  45.457  18.886  1.00  0.00     0.174 HD
ENDBRANCH  35  43
ENDBRANCH   1  31
BRANCH   7  46
HETATM   46  O7  UNL     1     162.981  46.107  16.792  1.00  0.00    -0.389 OA
ATOM     47  H7  UNL     1     163.675  46.184  17.436  1.00  0.00     0.210 HD
ENDBRANCH   7  46
TORSDOF 8
ENDMDL