MODEL 1
REMARK VINA RESULT: -5.735616785      0.000      0.000
REMARK  9 active torsions:
REMARK  status: ('A' for Active; 'I' for Inactive)
REMARK    1  A    between atoms: N1_1  and  N2_4
REMARK    2  A    between atoms: N2_4  and  N3_5
REMARK    3  A    between atoms: N3_5  and  O1_6
REMARK    4  A    between atoms: N3_5  and  N4_8
REMARK    5  A    between atoms: C2_16  and  N8_17
REMARK    6  A    between atoms: N8_17  and  N9_19
REMARK    7  A    between atoms: C7_27  and  N11_28
REMARK    8  A    between atoms: N11_28  and  N12_30
REMARK    9  A    between atoms: N12_30  and  C8_32
ROOT
HETATM    1  N9  UNL     1      33.484   2.062   7.333  1.00  0.00    -0.287 N
ATOM      2  H9  UNL     1      32.686   2.093   7.967  1.00  0.00     0.187 HD
HETATM    3  C3  UNL     1      33.280   1.963   6.074  1.00  0.00     0.071 C
HETATM    4  C4  UNL     1      34.431   1.919   5.157  1.00  0.00     0.064 C
HETATM    5  C5  UNL     1      34.130   2.815   3.970  1.00  0.00     0.026 C
HETATM    6  C6  UNL     1      32.788   2.562   3.385  1.00  0.00     0.121 C
HETATM    7  N10 UNL     1      31.759   2.176   4.294  1.00  0.00    -0.374 N
ATOM      8  H10 UNL     1      30.807   2.120   3.932  1.00  0.00     0.161 HD
HETATM    9  C7  UNL     1      31.938   1.893   5.533  1.00  0.00     0.140 C
ENDROOT
BRANCH   1  10
HETATM   10  N8  UNL     1      34.781   2.130   7.858  1.00  0.00    -0.128 N
ATOM     11  H8  UNL     1      35.370   1.298   7.891  1.00  0.00     0.205 HD
BRANCH  10  12
HETATM   12  C2  UNL     1      35.265   3.377   8.346  1.00  0.00     0.748 A
HETATM   13  N4  UNL     1      34.543   4.014   9.415  1.00  0.00     0.019 N
HETATM   14  N5  UNL     1      35.007   5.233   9.898  1.00  0.00    -0.259 N
HETATM   15  C1  UNL     1      36.168   5.802   9.322  1.00  0.00     0.216 A
ATOM     16  H5  UNL     1      34.518   5.709  10.655  1.00  0.00     0.190 HD
HETATM   17  N6  UNL     1      36.754   5.168   8.369  1.00  0.00    -0.281 N
HETATM   18  N7  UNL     1      36.318   3.944   7.859  1.00  0.00    -0.127 N
ATOM     19  H6  UNL     1      37.591   5.586   7.960  1.00  0.00     0.188 HD
ATOM     20  H7  UNL     1      36.832   3.497   7.099  1.00  0.00     0.206 HD
BRANCH  13  21
HETATM   21  N3  UNL     1      33.427   3.387   9.914  1.00  0.00     0.124 NA
BRANCH  21  22
HETATM   22  N2  UNL     1      33.802   2.320  10.658  1.00  0.00    -0.221 NA
BRANCH  22  23
HETATM   23  N1  UNL     1      34.104   1.431  11.299  1.00  0.00    -0.262 N
ATOM     24  H12 UNL     1      34.323   2.427  11.304  1.00  0.00     0.193 HD
ATOM     25  H11 UNL     1      34.364   0.622  11.863  1.00  0.00     0.193 HD
ENDBRANCH  22  23
ENDBRANCH  21  22
BRANCH  21  26
HETATM   26  O1  UNL     1      32.655   4.191  10.692  1.00  0.00    -0.262 OA
ATOM     27  H1  UNL     1      32.968   5.082  10.595  1.00  0.00     0.242 HD
ENDBRANCH  21  26
ENDBRANCH  13  21
ENDBRANCH  10  12
ENDBRANCH   1  10
BRANCH   9  28
HETATM   28  N11 UNL     1      30.830   1.513   6.372  1.00  0.00    -0.282 N
ATOM     29  H11 UNL     1      30.632   0.524   6.524  1.00  0.00     0.188 HD
BRANCH  28  30
HETATM   30  N12 UNL     1      30.038   2.460   6.968  1.00  0.00    -0.282 N
ATOM     31  H12 UNL     1      29.429   3.023   6.373  1.00  0.00     0.188 HD
BRANCH  30  32
HETATM   32  C8  UNL     1      30.019   2.702   8.378  1.00  0.00     0.153 A
HETATM   33  C9  UNL     1      29.320   3.689   9.037  1.00  0.00     0.159 A
HETATM   34  N13 UNL     1      29.563   3.586  10.367  1.00  0.00    -0.294 N
HETATM   35  N14 UNL     1      30.380   2.572  10.500  1.00  0.00    -0.241 N
ATOM     36  H13 UNL     1      29.188   4.176  11.109  1.00  0.00     0.187 HD
HETATM   37  N15 UNL     1      30.670   2.024   9.332  1.00  0.00    -0.269 N
ATOM     38  H14 UNL     1      30.746   2.244  11.393  1.00  0.00     0.208 HD
ATOM     39  H15 UNL     1      31.284   1.223   9.183  1.00  0.00     0.190 HD
ENDBRANCH  30  32
ENDBRANCH  28  30
ENDBRANCH   9  28
TORSDOF 9
ENDMDL