MODEL 2
REMARK VINA RESULT: -6.139832020      4.079      8.229
REMARK  7 active torsions:
REMARK  status: ('A' for Active; 'I' for Inactive)
REMARK    1  A    between atoms: N1_1  and  C1_4
REMARK    2  A    between atoms: C2_7  and  N3_8
REMARK    3  A    between atoms: C4_10  and  N4_11
REMARK    4  A    between atoms: N5_16  and  N6_17
REMARK    5  A    between atoms: N7_19  and  C6_21
REMARK    6  A    between atoms: N9_27  and  N10_28
REMARK    7  A    between atoms: C10_35  and  N13_36
ROOT
HETATM    1  N3  UNL     1      34.274   4.378   8.829  1.00  0.00    -0.104 N
HETATM    2  C3  UNL     1      34.722   5.739   8.896  1.00  0.00     0.204 C
HETATM    3  C4  UNL     1      36.070   5.641   9.547  1.00  0.00     0.225 C
HETATM    4  C5  UNL     1      36.598   4.348   8.935  1.00  0.00     0.206 C
HETATM    5  N5  UNL     1      35.374   3.550   8.991  1.00  0.00    -0.201 N
ENDROOT
BRANCH   1   6
HETATM    6  C2  UNL     1      32.912   3.973   8.629  1.00  0.00     0.703 A
HETATM    7  N2  UNL     1      32.121   3.547   9.628  1.00  0.00    -0.173 N
HETATM    8  C1  UNL     1      30.836   3.174   9.420  1.00  0.00     0.151 A
ATOM      9  H2  UNL     1      32.501   3.504  10.574  1.00  0.00     0.186 HD
HETATM   10  C10 UNL     1      30.327   3.233   8.151  1.00  0.00     0.188 A
HETATM   11  C9  UNL     1      31.149   3.676   7.113  1.00  0.00     0.168 A
HETATM   12  N11 UNL     1      32.416   4.033   7.380  1.00  0.00    -0.174 N
HETATM   13  N12 UNL     1      30.659   3.759   5.782  1.00  0.00    -0.079 NA
ATOM     14  H11 UNL     1      33.014   4.356   6.620  1.00  0.00     0.185 HD
BRANCH   8  15
HETATM   15  N1  UNL     1      30.099   2.767  10.400  1.00  0.00    -0.383 N
ATOM     16  H12 UNL     1      30.057   3.300  11.268  1.00  0.00     0.157 HD
ATOM     17  H11 UNL     1      29.551   1.911  10.320  1.00  0.00     0.157 HD
ENDBRANCH   8  15
BRANCH  10  18
HETATM   18  N13 UNL     1      28.997   2.855   7.837  1.00  0.00    -0.108 N
HETATM   19  O2  UNL     1      28.755   1.644   7.690  1.00  0.00    -0.532 OA
HETATM   20  O3  UNL     1      27.977   3.756   7.695  1.00  0.00    -0.532 OA
ENDBRANCH  10  18
ENDBRANCH   1   6
BRANCH   5  21
HETATM   21  N6  UNL     1      35.347   2.150   9.187  1.00  0.00    -0.224 N
HETATM   22  N7  UNL     1      35.033   1.684  10.326  1.00  0.00    -0.267 N
ATOM     23  H7  UNL     1      34.808   2.338  11.076  1.00  0.00     0.190 HD
ATOM     24  H6  UNL     1      35.579   1.519   8.419  1.00  0.00     0.210 HD
BRANCH  22  25
HETATM   25  C6  UNL     1      34.983   0.301  10.598  1.00  0.00     0.163 A
HETATM   26  C7  UNL     1      35.124  -0.758   9.696  1.00  0.00     0.144 A
HETATM   27  N8  UNL     1      35.008  -1.923  10.366  1.00  0.00    -0.314 N
HETATM   28  C8  UNL     1      34.799  -1.628  11.656  1.00  0.00     0.346 A
ATOM     29  H8  UNL     1      35.067  -2.858   9.963  1.00  0.00     0.170 HD
HETATM   30  O1  UNL     1      34.644  -2.494  12.577  1.00  0.00    -0.245 OA
HETATM   31  N9  UNL     1      34.786  -0.288  11.795  1.00  0.00    -0.193 N
BRANCH  31  32
HETATM   32  N10 UNL     1      34.602   0.405  12.972  1.00  0.00    -0.333 N
ATOM     33 2H10 UNL     1      35.339   0.794  13.562  1.00  0.00     0.177 HD
ATOM     34 1H10 UNL     1      33.688   0.604  13.379  1.00  0.00     0.177 HD
ENDBRANCH  31  32
ENDBRANCH  22  25
ENDBRANCH   5  21
BRANCH   3  35
HETATM   35  N4  UNL     1      36.927   6.763   9.222  1.00  0.00    -0.072 N
ATOM     36  H43 UNL     1      36.458   7.413   8.592  1.00  0.00     0.274 HD
ATOM     37  H42 UNL     1      37.050   7.376  10.028  1.00  0.00     0.274 HD
ATOM     38  H41 UNL     1      37.829   6.471   8.844  1.00  0.00     0.274 HD
ENDBRANCH   3  35
TORSDOF 7
ENDMDL