MODEL 2
REMARK VINA RESULT: -5.636147089      0.600      2.113
REMARK  8 active torsions:
REMARK  status: ('A' for Active; 'I' for Inactive)
REMARK    1  A    between atoms: S1_2  and  C2_3
REMARK    2  A    between atoms: C3_4  and  O1_5
REMARK    3  A    between atoms: N1_9  and  C5_10
REMARK    4  A    between atoms: N4_17  and  C7_18
REMARK    5  A    between atoms: C7_18  and  C8_19
REMARK    6  A    between atoms: C10_22  and  N5_23
REMARK    7  A    between atoms: N5_23  and  N6_25
REMARK    8  A    between atoms: N7_30  and  O5_31
ROOT
HETATM    1  C5  UNL     1      30.994   2.822   7.353  1.00  0.00     0.181 A
HETATM    2  N2  UNL     1      32.075   3.154   6.629  1.00  0.00    -0.172 N
ATOM      3  H2  UNL     1      32.077   3.300   5.620  1.00  0.00     0.186 HD
HETATM    4  C6  UNL     1      33.153   3.267   7.419  1.00  0.00     0.681 A
HETATM    5  N3  UNL     1      34.357   3.569   7.080  1.00  0.00    -0.234 N
ATOM      6  H31 UNL     1      35.176   3.655   7.681  1.00  0.00     0.174 HD
ATOM      7  H32 UNL     1      34.690   3.775   6.138  1.00  0.00     0.174 HD
HETATM    8  N4  UNL     1      32.708   2.992   8.678  1.00  0.00    -0.156 N
HETATM    9  C10 UNL     1      31.403   2.717   8.676  1.00  0.00     0.183 A
ENDROOT
BRANCH   1  10
HETATM   10  N1  UNL     1      29.686   2.622   6.834  1.00  0.00    -0.206 N
HETATM   11  C4  UNL     1      28.673   3.483   7.087  1.00  0.00     0.293 A
HETATM   12  C3  UNL     1      27.413   3.239   6.556  1.00  0.00     0.171 A
HETATM   13  O2  UNL     1      28.897   4.477   7.793  1.00  0.00    -0.264 OA
HETATM   14  C2  UNL     1      27.167   2.135   5.774  1.00  0.00     0.142 A
HETATM   15  N7  UNL     1      28.198   1.301   5.543  1.00  0.00    -0.163 N
HETATM   16  C11 UNL     1      29.423   1.551   6.068  1.00  0.00     0.362 A
HETATM   17  O4  UNL     1      30.353   0.739   5.823  1.00  0.00    -0.243 OA
BRANCH  12  18
HETATM   18  O1  UNL     1      26.364   4.117   6.809  1.00  0.00    -0.354 OA
ATOM     19  H1  UNL     1      26.568   4.973   7.166  1.00  0.00     0.218 HD
ENDBRANCH  12  18
BRANCH  14  20
HETATM   20  S1  UNL     1      25.528   1.878   5.121  1.00  0.00    -0.111 SA
HETATM   21  C1  UNL     1      24.459   1.045   6.311  1.00  0.00     0.097 C
ENDBRANCH  14  20
BRANCH  15  22
HETATM   22  O5  UNL     1      27.961   0.194   4.761  1.00  0.00    -0.278 OA
ATOM     23  H5  UNL     1      28.050   0.290   3.821  1.00  0.00     0.245 HD
ENDBRANCH  15  22
ENDBRANCH   1  10
BRANCH   9  24
HETATM   24  N5  UNL     1      30.502   2.372   9.719  1.00  0.00    -0.288 N
ATOM     25  H5  UNL     1      30.405   1.382   9.942  1.00  0.00     0.188 HD
BRANCH  24  26
HETATM   26  N6  UNL     1      29.742   3.266  10.459  1.00  0.00    -0.344 N
ATOM     27  H62 UNL     1      30.245   4.060  10.856  1.00  0.00     0.176 HD
ATOM     28  H61 UNL     1      28.740   3.193  10.632  1.00  0.00     0.176 HD
ENDBRANCH  24  26
ENDBRANCH   9  24
BRANCH   8  29
HETATM   29  C7  UNL     1      33.566   3.002   9.839  1.00  0.00     0.227 C
BRANCH  29  30
HETATM   30  C8  UNL     1      34.261   1.710  10.034  1.00  0.00     0.141 C
HETATM   31  C9  UNL     1      34.048   0.926  11.280  1.00  0.00     0.092 C
HETATM   32  O3  UNL     1      35.014   1.261   9.189  1.00  0.00    -0.297 OA
ENDBRANCH  29  30
ENDBRANCH   8  29
TORSDOF 8
ENDMDL