MODEL 2
REMARK VINA RESULT: -5.637117698      5.330      8.153
REMARK  8 active torsions:
REMARK  status: ('A' for Active; 'I' for Inactive)
REMARK    1  A    between atoms: O1_2  and  C2_3
REMARK    2  A    between atoms: C2_3  and  C3_5
REMARK    3  A    between atoms: C4_8  and  C5_9
REMARK       I    between atoms: C5_9  and  N2_11
REMARK    4  A    between atoms: N2_11  and  N3_13
REMARK    5  A    between atoms: C6_20  and  C7_21
REMARK    6  A    between atoms: C8_23  and  N6_24
REMARK    7  A    between atoms: C9_29  and  C10_30
REMARK       I    between atoms: C10_30  and  N8_32
REMARK    8  A    between atoms: N8_32  and  N9_34
ROOT
HETATM    1  C3  UNL     1      27.186   2.351   6.904  1.00  0.00     0.140 A
HETATM    2  N1  UNL     1      25.949   1.818   7.178  1.00  0.00    -0.330 N
ATOM      3  H1  UNL     1      25.113   2.361   6.965  1.00  0.00     0.168 HD
HETATM    4  C4  UNL     1      25.821   0.596   7.721  1.00  0.00     0.191 A
HETATM    5  N4  UNL     1      26.921  -0.115   8.000  1.00  0.00    -0.280 N
ATOM      6  H4  UNL     1      26.838  -1.044   8.413  1.00  0.00     0.188 HD
HETATM    7  N5  UNL     1      28.069   0.375   7.746  1.00  0.00    -0.295 N
ATOM      8  H5  UNL     1      28.891  -0.187   7.969  1.00  0.00     0.187 HD
HETATM    9  C6  UNL     1      28.266   1.610   7.192  1.00  0.00     0.100 A
ENDROOT
BRANCH   9  10
HETATM   10  C7  UNL     1      29.659   1.874   6.797  1.00  0.00     0.071 A
HETATM   11  S1  UNL     1      30.365   1.664   5.244  1.00  0.00    -0.050 SA
HETATM   12  C8  UNL     1      31.939   2.180   5.585  1.00  0.00     0.143 A
HETATM   13  N7  UNL     1      31.863   2.494   6.874  1.00  0.00    -0.331 N
HETATM   14  C9  UNL     1      30.722   2.350   7.513  1.00  0.00     0.124 A
ATOM     15  H7  UNL     1      32.685   2.844   7.365  1.00  0.00     0.168 HD
BRANCH  12  16
HETATM   16  N6  UNL     1      32.997   2.262   4.797  1.00  0.00    -0.380 N
ATOM     17  H62 UNL     1      33.146   1.790   3.904  1.00  0.00     0.158 HD
ATOM     18  H61 UNL     1      33.858   2.796   4.908  1.00  0.00     0.158 HD
ENDBRANCH  12  16
BRANCH  14  19
HETATM   19  C10 UNL     1      30.606   2.799   8.926  1.00  0.00     0.287 C
HETATM   20  O4  UNL     1      31.547   2.596   9.700  1.00  0.00    -0.264 OA
HETATM   21  N8  UNL     1      29.431   3.461   9.404  1.00  0.00    -0.271 N
ATOM     22  H8  UNL     1      28.659   3.624   8.758  1.00  0.00     0.189 HD
BRANCH  21  23
HETATM   23  N9  UNL     1      29.311   3.886  10.724  1.00  0.00    -0.342 N
ATOM     24  H92 UNL     1      30.057   4.466  11.110  1.00  0.00     0.176 HD
ATOM     25  H91 UNL     1      28.509   3.635  11.300  1.00  0.00     0.176 HD
ENDBRANCH  21  23
ENDBRANCH  14  19
ENDBRANCH   9  10
BRANCH   1  26
HETATM   26  C2  UNL     1      27.230   3.694   6.380  1.00  0.00     0.312 C
HETATM   27  O2  UNL     1      27.792   4.652   6.910  1.00  0.00    -0.258 OA
BRANCH  26  28
HETATM   28  O1  UNL     1      26.598   4.007   5.160  1.00  0.00    -0.321 OA
HETATM   29  C1  UNL     1      27.050   3.458   3.937  1.00  0.00     0.213 C
ENDBRANCH  26  28
ENDBRANCH   1  26
BRANCH   4  30
HETATM   30  C5  UNL     1      24.518   0.015   8.017  1.00  0.00     0.304 C
HETATM   31  O3  UNL     1      24.012   0.207   9.153  1.00  0.00    -0.263 OA
HETATM   32  N2  UNL     1      23.798  -0.756   7.081  1.00  0.00    -0.270 N
ATOM     33  H2  UNL     1      24.200  -0.919   6.158  1.00  0.00     0.189 HD
BRANCH  32  34
HETATM   34  N3  UNL     1      22.550  -1.304   7.384  1.00  0.00    -0.342 N
ATOM     35  H32 UNL     1      22.504  -2.299   7.604  1.00  0.00     0.176 HD
ATOM     36  H31 UNL     1      21.702  -0.739   7.389  1.00  0.00     0.176 HD
ENDBRANCH  32  34
ENDBRANCH   4  30
TORSDOF 8
ENDMDL