MODEL 1
REMARK VINA RESULT: -5.740986719      0.000      0.000
REMARK  6 active torsions:
REMARK  status: ('A' for Active; 'I' for Inactive)
REMARK    1  A    between atoms: C4_7  and  C5_8
REMARK    2  A    between atoms: C4_7  and  C6_11
REMARK    3  A    between atoms: C5_8  and  O2_9
REMARK    4  A    between atoms: C6_11  and  O3_12
REMARK    5  A    between atoms: C7_15  and  N3_16
REMARK    6  A    between atoms: N3_16  and  N4_18
ROOT
HETATM    1  N1  UNL     1      26.762  -0.238   8.074  1.00  0.00    -0.193 NA
HETATM    2  C1  UNL     1      25.775  -0.190   7.462  1.00  0.00     0.119 C
HETATM    3  C2  UNL     1      24.542  -0.144   6.723  1.00  0.00     0.286 C
HETATM    4  C3  UNL     1      23.425  -0.354   7.626  1.00  0.00     0.119 C
HETATM    5  N2  UNL     1      22.550  -0.516   8.344  1.00  0.00    -0.193 NA
HETATM    6  O1  UNL     1      24.424   1.050   6.057  1.00  0.00    -0.308 OA
HETATM    7  C4  UNL     1      24.696   0.828   4.731  1.00  0.00     0.212 C
HETATM    8  O4  UNL     1      25.196  -0.445   4.598  1.00  0.00    -0.320 OA
HETATM    9  C7  UNL     1      24.492  -1.162   5.573  1.00  0.00     0.304 C
ENDROOT
BRANCH   9  10
HETATM   10  N3  UNL     1      25.253  -2.309   5.933  1.00  0.00    -0.293 N
ATOM     11  H3  UNL     1      25.652  -2.314   6.871  1.00  0.00     0.184 HD
BRANCH  10  12
HETATM   12  N4  UNL     1      25.518  -3.450   5.121  1.00  0.00    -0.231 N
HETATM   13  C8  UNL     1      24.805  -4.580   5.146  1.00  0.00     0.120 A
HETATM   14  C9  UNL     1      25.179  -5.569   4.296  1.00  0.00     0.056 A
HETATM   15  C12 UNL     1      23.632  -5.125   5.889  1.00  0.00     0.129 A
HETATM   16  S1  UNL     1      26.510  -4.905   3.484  1.00  0.00    -0.049 SA
HETATM   17  C11 UNL     1      24.300  -6.795   4.412  1.00  0.00     0.111 A
HETATM   18  C10 UNL     1      26.537  -3.384   4.266  1.00  0.00     0.165 A
HETATM   19  N5  UNL     1      27.393  -2.405   4.029  1.00  0.00    -0.378 N
ATOM     20  H52 UNL     1      27.409  -1.497   4.496  1.00  0.00     0.158 HD
ATOM     21  H51 UNL     1      28.173  -2.355   3.374  1.00  0.00     0.158 HD
HETATM   22  N6  UNL     1      23.365  -6.474   5.410  1.00  0.00    -0.349 N
ATOM     23  H6  UNL     1      22.620  -7.087   5.744  1.00  0.00     0.167 HD
HETATM   24  N7  UNL     1      22.898  -4.638   6.797  1.00  0.00    -0.384 N
ATOM     25  H72 UNL     1      23.086  -3.694   7.132  1.00  0.00     0.157 HD
ATOM     26  H71 UNL     1      22.096  -5.011   7.305  1.00  0.00     0.157 HD
ENDBRANCH  10  12
ENDBRANCH   9  10
BRANCH   7  27
HETATM   27  C5  UNL     1      25.749   1.845   4.300  1.00  0.00     0.235 C
BRANCH  27  28
HETATM   28  O2  UNL     1      25.183   3.096   4.387  1.00  0.00    -0.395 OA
ATOM     29  H2  UNL     1      25.317   3.414   5.272  1.00  0.00     0.209 HD
ENDBRANCH  27  28
ENDBRANCH   7  27
BRANCH   7  30
HETATM   30  C6  UNL     1      23.484   0.968   3.844  1.00  0.00     0.235 C
BRANCH  30  31
HETATM   31  O3  UNL     1      22.622   1.882   4.466  1.00  0.00    -0.395 OA
ATOM     32  H3  UNL     1      23.062   2.724   4.467  1.00  0.00     0.209 HD
ENDBRANCH  30  31
ENDBRANCH   7  30
TORSDOF 6
ENDMDL