MODEL 5
REMARK VINA RESULT: -5.864383741      4.196      8.093
REMARK  6 active torsions:
REMARK  status: ('A' for Active; 'I' for Inactive)
REMARK       I    between atoms: N1_2  and  C2_4
REMARK       I    between atoms: C2_4  and  N2_6
REMARK    1  A    between atoms: N2_6  and  N3_8
REMARK    2  A    between atoms: C3_10  and  C4_11
REMARK    3  A    between atoms: N6_18  and  C6_19
REMARK    4  A    between atoms: C7_20  and  N7_21
REMARK    5  A    between atoms: N9_29  and  O5_30
REMARK    6  A    between atoms: C10_32  and  O6_33
ROOT
HETATM    1  C4  UNL     1      28.884   2.389   8.037  1.00  0.00     0.117 A
HETATM    2  N4  UNL     1      28.873   1.044   7.976  1.00  0.00    -0.186 N
ATOM      3  H4  UNL     1      29.599   0.441   8.361  1.00  0.00     0.184 HD
HETATM    4  C5  UNL     1      27.775   0.608   7.341  1.00  0.00     0.686 A
HETATM    5  N5  UNL     1      27.438  -0.629   7.101  1.00  0.00    -0.234 N
ATOM      6  H51 UNL     1      26.603  -0.961   6.617  1.00  0.00     0.174 HD
ATOM      7  H52 UNL     1      27.980  -1.449   7.373  1.00  0.00     0.174 HD
HETATM    8  N6  UNL     1      27.054   1.697   6.980  1.00  0.00    -0.103 N
HETATM    9  C10 UNL     1      27.726   2.785   7.402  1.00  0.00     0.194 A
ENDROOT
BRANCH   8  10
HETATM   10  C6  UNL     1      25.824   1.613   6.289  1.00  0.00     0.212 A
HETATM   11  C7  UNL     1      25.620   2.005   4.986  1.00  0.00     0.221 A
HETATM   12  N8  UNL     1      24.399   1.886   4.397  1.00  0.00    -0.339 N
HETATM   13  C8  UNL     1      23.355   1.384   5.067  1.00  0.00     0.167 A
ATOM     14  H8  UNL     1      24.277   2.186   3.429  1.00  0.00     0.167 HD
HETATM   15  C9  UNL     1      23.552   0.990   6.370  1.00  0.00     0.288 A
HETATM   16  O4  UNL     1      22.556   0.511   7.008  1.00  0.00    -0.264 OA
HETATM   17  N9  UNL     1      24.755   1.110   6.941  1.00  0.00    -0.164 N
BRANCH  11  18
HETATM   18  N7  UNL     1      26.724   2.544   4.251  1.00  0.00    -0.094 N
HETATM   19  O2  UNL     1      27.529   1.772   3.694  1.00  0.00    -0.530 OA
HETATM   20  O3  UNL     1      26.931   3.892   4.136  1.00  0.00    -0.530 OA
ENDBRANCH  11  18
BRANCH  17  21
HETATM   21  O5  UNL     1      24.906   0.704   8.246  1.00  0.00    -0.278 OA
ATOM     22  H5  UNL     1      24.157   0.336   8.700  1.00  0.00     0.245 HD
ENDBRANCH  17  21
ENDBRANCH   8  10
BRANCH   9  23
HETATM   23  O6  UNL     1      27.287   4.090   7.209  1.00  0.00    -0.344 OA
ATOM     24  H6  UNL     1      26.812   4.425   6.457  1.00  0.00     0.219 HD
ENDBRANCH   9  23
BRANCH   1  25
HETATM   25  C3  UNL     1      29.905   3.232   8.646  1.00  0.00     0.141 C
HETATM   26  N3  UNL     1      30.822   2.695   9.378  1.00  0.00    -0.306 N
ATOM     27  H3  UNL     1      30.801   1.683   9.508  1.00  0.00     0.186 HD
BRANCH  26  28
HETATM   28  N2  UNL     1      31.830   3.412   9.996  1.00  0.00    -0.252 N
HETATM   29  C2  UNL     1      33.056   3.729   9.346  1.00  0.00     0.334 C
HETATM   30  N1  UNL     1      34.086   4.467   9.990  1.00  0.00    -0.346 N
HETATM   31  O1  UNL     1      33.221   3.339   8.161  1.00  0.00    -0.246 OA
HETATM   32  C1  UNL     1      35.316   4.766   9.289  1.00  0.00     0.151 C
ATOM     33  H1  UNL     1      33.958   4.787  10.950  1.00  0.00     0.163 HD
ATOM     34  H2  UNL     1      31.690   3.726  10.956  1.00  0.00     0.191 HD
ENDBRANCH  26  28
ENDBRANCH   1  25
TORSDOF 6
ENDMDL