MODEL 1
REMARK VINA RESULT: -5.927045414      0.000      0.000
REMARK  9 active torsions:
REMARK  status: ('A' for Active; 'I' for Inactive)
REMARK    1  A    between atoms: S1_2  and  C2_5
REMARK    2  A    between atoms: C3_10  and  S2_11
REMARK    3  A    between atoms: S2_11  and  C4_12
REMARK    4  A    between atoms: C4_12  and  O3_18
REMARK    5  A    between atoms: N3_13  and  N4_15
REMARK    6  A    between atoms: O3_18  and  C5_19
REMARK    7  A    between atoms: C5_19  and  N6_23
REMARK    8  A    between atoms: N6_23  and  C6_25
REMARK    9  A    between atoms: C7_31  and  N10_32
ROOT
HETATM    1  C4  UNL     1      29.723   3.569   7.125  1.00  0.00     0.212 C
HETATM    2  N3  UNL     1      30.578   4.370   6.685  1.00  0.00    -0.280 N
ATOM      3  H3  UNL     1      30.188   5.126   6.123  1.00  0.00     0.189 HD
ENDROOT
BRANCH   1   4
HETATM    4  S2  UNL     1      27.954   3.775   6.756  1.00  0.00    -0.007 SA
BRANCH   4   5
HETATM    5  C3  UNL     1      27.062   2.337   7.325  1.00  0.00     0.169 A
HETATM    6  N2  UNL     1      27.455   1.331   8.105  1.00  0.00    -0.277 N
HETATM    7  N1  UNL     1      26.458   0.468   8.273  1.00  0.00    -0.274 N
ATOM      8  H2  UNL     1      28.384   1.236   8.513  1.00  0.00     0.189 HD
HETATM    9  C2  UNL     1      25.380   0.934   7.576  1.00  0.00     0.219 A
ATOM     10  H1  UNL     1      26.492  -0.389   8.825  1.00  0.00     0.189 HD
HETATM   11  N11 UNL     1      25.787   2.090   7.002  1.00  0.00    -0.311 N
ATOM     12  H11 UNL     1      25.208   2.686   6.410  1.00  0.00     0.170 HD
BRANCH   9  13
HETATM   13  S1  UNL     1      23.805   0.169   7.466  1.00  0.00     0.204 S
HETATM   14  C1  UNL     1      23.958  -1.299   6.478  1.00  0.00     0.170 C
HETATM   15  O1  UNL     1      22.903   1.112   6.717  1.00  0.00    -0.220 OA
HETATM   16  O2  UNL     1      23.294  -0.128   8.830  1.00  0.00    -0.220 OA
ENDBRANCH   9  13
ENDBRANCH   4   5
ENDBRANCH   1   4
BRANCH   1  17
HETATM   17  O3  UNL     1      30.147   2.503   7.913  1.00  0.00    -0.254 OA
BRANCH  17  18
HETATM   18  C5  UNL     1      30.452   2.697   9.266  1.00  0.00     0.221 C
HETATM   19  N5  UNL     1      29.693   3.484   9.942  1.00  0.00    -0.365 N
ATOM     20  H52 UNL     1      28.905   3.940   9.482  1.00  0.00     0.159 HD
ATOM     21  H51 UNL     1      29.915   3.625  10.927  1.00  0.00     0.159 HD
BRANCH  18  22
HETATM   22  N6  UNL     1      31.559   2.057   9.911  1.00  0.00    -0.330 N
ATOM     23  H6  UNL     1      31.614   1.039   9.928  1.00  0.00     0.165 HD
BRANCH  22  24
HETATM   24  C6  UNL     1      32.597   2.836  10.538  1.00  0.00     0.270 A
HETATM   25  N7  UNL     1      32.954   4.004   9.787  1.00  0.00    -0.092 NA
HETATM   26  N8  UNL     1      34.303   3.938   9.510  1.00  0.00    -0.243 N
HETATM   27  N9  UNL     1      34.812   2.864   9.908  1.00  0.00    -0.275 N
ATOM     28  H8  UNL     1      34.825   4.675   9.036  1.00  0.00     0.204 HD
HETATM   29  C7  UNL     1      33.833   2.033  10.532  1.00  0.00     0.131 A
ATOM     30  H9  UNL     1      35.796   2.617   9.801  1.00  0.00     0.189 HD
BRANCH  29  31
HETATM   31  N10 UNL     1      33.982   0.841  10.993  1.00  0.00    -0.385 N
ATOM     32 2H10 UNL     1      33.311   0.073  10.981  1.00  0.00     0.157 HD
ATOM     33 1H10 UNL     1      34.810   0.460  11.453  1.00  0.00     0.157 HD
ENDBRANCH  29  31
ENDBRANCH  22  24
ENDBRANCH  18  22
ENDBRANCH  17  18
ENDBRANCH   1  17
BRANCH   2  34
HETATM   34  N4  UNL     1      31.928   4.420   6.816  1.00  0.00    -0.343 N
ATOM     35  H42 UNL     1      32.268   3.872   7.606  1.00  0.00     0.176 HD
ATOM     36  H41 UNL     1      32.650   4.899   6.277  1.00  0.00     0.176 HD
ENDBRANCH   2  34
TORSDOF 9
ENDMDL