MODEL 3
REMARK VINA RESULT: -5.807027120      5.234      7.672
REMARK  8 active torsions:
REMARK  status: ('A' for Active; 'I' for Inactive)
REMARK    1  A    between atoms: C2_2  and  N1_3
REMARK    2  A    between atoms: C2_2  and  O2_21
REMARK       I    between atoms: N1_3  and  C3_5
REMARK       I    between atoms: C3_5  and  N2_7
REMARK    3  A    between atoms: C5_11  and  N3_12
REMARK    4  A    between atoms: O2_21  and  C8_22
REMARK       I    between atoms: C8_22  and  N7_24
REMARK    5  A    between atoms: N7_24  and  N8_25
REMARK    6  A    between atoms: N7_24  and  O5_29
REMARK    7  A    between atoms: N8_25  and  O4_27
REMARK    8  A    between atoms: O5_29  and  N9_30
ROOT
HETATM    1  N1  UNL     1      28.290   4.639   2.854  1.00  0.00    -0.316 N
ATOM      2  H1  UNL     1      27.876   5.251   3.557  1.00  0.00     0.166 HD
HETATM    3  C3  UNL     1      28.006   3.271   2.993  1.00  0.00     0.323 C
HETATM    4  O1  UNL     1      28.515   2.488   2.123  1.00  0.00    -0.247 OA
HETATM    5  N2  UNL     1      27.222   2.672   3.984  1.00  0.00    -0.301 N
ATOM      6  H2  UNL     1      26.256   2.488   3.715  1.00  0.00     0.171 HD
HETATM    7  C4  UNL     1      27.524   2.322   5.166  1.00  0.00     0.109 A
HETATM    8  S1  UNL     1      26.321   1.598   6.171  1.00  0.00    -0.034 SA
HETATM    9  C5  UNL     1      26.895   1.190   7.718  1.00  0.00     0.145 A
HETATM   10  N4  UNL     1      28.184   1.482   7.938  1.00  0.00    -0.324 N
ATOM     11  H4  UNL     1      28.558   1.248   8.857  1.00  0.00     0.169 HD
HETATM   12  C6  UNL     1      29.022   2.046   7.080  1.00  0.00     0.145 A
HETATM   13  N5  UNL     1      30.372   2.264   7.561  1.00  0.00    -0.081 NA
HETATM   14  C7  UNL     1      28.744   2.446   5.786  1.00  0.00     0.121 A
HETATM   15  N6  UNL     1      29.837   3.031   5.035  1.00  0.00    -0.096 NA
ENDROOT
BRANCH   1  16
HETATM   16  C2  UNL     1      29.081   5.284   1.861  1.00  0.00     0.232 C
HETATM   17  C1  UNL     1      30.531   5.436   2.244  1.00  0.00     0.064 C
BRANCH  16  18
HETATM   18  O2  UNL     1      28.518   6.506   1.404  1.00  0.00    -0.275 OA
BRANCH  18  19
HETATM   19  C8  UNL     1      27.250   6.680   0.936  1.00  0.00     0.412 C
HETATM   20  O3  UNL     1      26.579   5.644   0.698  1.00  0.00    -0.234 OA
HETATM   21  N7  UNL     1      26.656   7.965   0.705  1.00  0.00    -0.054 N
BRANCH  21  22
HETATM   22  N8  UNL     1      25.352   8.038   0.215  1.00  0.00    -0.177 N
ATOM     23  H8  UNL     1      25.164   8.388  -0.724  1.00  0.00     0.218 HD
BRANCH  22  24
HETATM   24  O4  UNL     1      24.423   7.662   0.955  1.00  0.00    -0.272 OA
ATOM     25  H4  UNL     1      23.538   7.686   0.612  1.00  0.00     0.246 HD
ENDBRANCH  22  24
ENDBRANCH  21  22
BRANCH  21  26
HETATM   26  O5  UNL     1      27.295   9.122   0.940  1.00  0.00    -0.134 OA
BRANCH  26  27
HETATM   27  N9  UNL     1      26.536  10.001   1.633  1.00  0.00    -0.284 N
ATOM     28  H92 UNL     1      26.927  10.665   2.301  1.00  0.00     0.186 HD
ATOM     29  H91 UNL     1      25.544   9.920   1.409  1.00  0.00     0.186 HD
ENDBRANCH  26  27
ENDBRANCH  21  26
ENDBRANCH  18  19
ENDBRANCH  16  18
ENDBRANCH   1  16
BRANCH   9  30
HETATM   30  N3  UNL     1      26.118   0.637   8.601  1.00  0.00    -0.380 N
ATOM     31  H32 UNL     1      26.439  -0.031   9.302  1.00  0.00     0.158 HD
ATOM     32  H31 UNL     1      25.122   0.853   8.637  1.00  0.00     0.158 HD
ENDBRANCH   9  30
TORSDOF 8
ENDMDL