MODEL 1
REMARK VINA RESULT: -6.713712061      0.000      0.000
REMARK  8 active torsions:
REMARK  status: ('A' for Active; 'I' for Inactive)
REMARK    1  A    between atoms: N1_1  and  C1_4
REMARK    2  A    between atoms: C3_8  and  C4_9
REMARK       I    between atoms: C4_9  and  N3_11
REMARK    3  A    between atoms: N3_11  and  N4_13
REMARK    4  A    between atoms: C5_15  and  O2_16
REMARK    5  A    between atoms: C5_15  and  N5_18
REMARK    6  A    between atoms: C6_23  and  C7_24
REMARK    7  A    between atoms: C7_24  and  O5_25
REMARK    8  A    between atoms: C7_24  and  O6_27
ROOT
HETATM    1  C1  UNL     1      29.277   3.516   4.188  1.00  0.00     0.144 A
HETATM    2  N2  UNL     1      29.305   3.142   5.471  1.00  0.00    -0.333 N
ATOM      3  H2  UNL     1      30.181   3.150   5.994  1.00  0.00     0.168 HD
HETATM    4  C2  UNL     1      28.195   2.769   6.042  1.00  0.00     0.101 A
HETATM    5  C3  UNL     1      28.182   2.362   7.386  1.00  0.00     0.133 C
HETATM    6  N6  UNL     1      27.409   1.352   7.918  1.00  0.00    -0.345 N
ATOM      7  H6  UNL     1      27.814   0.828   8.695  1.00  0.00     0.166 HD
HETATM    8  C6  UNL     1      26.179   0.984   7.521  1.00  0.00     0.133 C
HETATM    9  C8  UNL     1      25.370   1.551   6.579  1.00  0.00     0.274 C
HETATM   10  O7  UNL     1      24.153   1.241   6.613  1.00  0.00    -0.266 OA
HETATM   11  N7  UNL     1      25.763   2.431   5.596  1.00  0.00    -0.314 N
ATOM     12  H7  UNL     1      25.022   2.866   5.047  1.00  0.00     0.170 HD
HETATM   13  C9  UNL     1      27.051   2.779   5.283  1.00  0.00     0.110 A
HETATM   14  S1  UNL     1      27.630   3.332   3.775  1.00  0.00    -0.034 SA
ENDROOT
BRANCH   5  15
HETATM   15  C4  UNL     1      29.015   3.070   8.332  1.00  0.00     0.289 C
HETATM   16  O1  UNL     1      28.876   4.337   8.380  1.00  0.00    -0.264 OA
HETATM   17  N3  UNL     1      29.954   2.429   9.172  1.00  0.00    -0.261 N
ATOM     18  H3  UNL     1      30.078   1.417   9.134  1.00  0.00     0.190 HD
BRANCH  17  19
HETATM   19  N4  UNL     1      30.724   3.218  10.073  1.00  0.00    -0.258 N
HETATM   20  C5  UNL     1      32.002   3.252   9.945  1.00  0.00     0.301 C
ATOM     21  H4  UNL     1      30.266   3.750  10.813  1.00  0.00     0.191 HD
BRANCH  20  22
HETATM   22  O2  UNL     1      32.731   4.024  10.828  1.00  0.00    -0.327 OA
ATOM     23  H2  UNL     1      33.377   4.626  10.477  1.00  0.00     0.221 HD
ENDBRANCH  20  22
BRANCH  20  24
HETATM   24  N5  UNL     1      32.641   2.513   8.919  1.00  0.00    -0.070 N
HETATM   25  O3  UNL     1      33.522   1.671   9.229  1.00  0.00    -0.529 OA
HETATM   26  O4  UNL     1      32.333   2.685   7.599  1.00  0.00    -0.529 OA
ENDBRANCH  20  24
ENDBRANCH  17  19
ENDBRANCH   5  15
BRANCH   8  27
HETATM   27  C7  UNL     1      25.584  -0.215   8.189  1.00  0.00     0.311 C
BRANCH  27  28
HETATM   28  O5  UNL     1      26.627  -0.870   8.846  1.00  0.00    -0.366 OA
ATOM     29  H5  UNL     1      26.460  -1.802   8.766  1.00  0.00     0.213 HD
ENDBRANCH  27  28
BRANCH  27  30
HETATM   30  O6  UNL     1      24.582   0.152   9.093  1.00  0.00    -0.366 OA
ATOM     31  H6  UNL     1      24.244  -0.603   9.560  1.00  0.00     0.213 HD
ENDBRANCH  27  30
ENDBRANCH   8  27
BRANCH   1  32
HETATM   32  N1  UNL     1      30.261   3.926   3.421  1.00  0.00    -0.380 N
ATOM     33  H12 UNL     1      31.114   4.412   3.699  1.00  0.00     0.158 HD
ATOM     34  H11 UNL     1      30.368   3.842   2.410  1.00  0.00     0.158 HD
ENDBRANCH   1  32
TORSDOF 8
ENDMDL