MODEL 3
REMARK VINA RESULT: -6.204434221      1.309      1.403
REMARK  7 active torsions:
REMARK  status: ('A' for Active; 'I' for Inactive)
REMARK    1  A    between atoms: C1_4  and  O1_5
REMARK    2  A    between atoms: C1_4  and  N2_7
REMARK    3  A    between atoms: N2_7  and  C2_9
REMARK    4  A    between atoms: C3_16  and  N6_17
REMARK    5  A    between atoms: C4_21  and  C5_22
REMARK    6  A    between atoms: C8_29  and  N11_30
REMARK    7  A    between atoms: C9_33  and  C10_34
ROOT
HETATM    1  N6  UNL     1      28.234   1.600   6.602  1.00  0.00    -0.213 N
HETATM    2  N7  UNL     1      28.383   1.463   5.296  1.00  0.00    -0.013 NA
HETATM    3  N8  UNL     1      29.553   2.025   4.940  1.00  0.00    -0.280 N
ATOM      4  H8  UNL     1      29.923   2.065   3.990  1.00  0.00     0.184 HD
HETATM    5  C4  UNL     1      30.158   2.526   6.031  1.00  0.00     0.093 A
HETATM    6  C9  UNL     1      29.310   2.249   7.077  1.00  0.00     0.132 A
ENDROOT
BRANCH   1   7
HETATM    7  C3  UNL     1      27.085   1.116   7.325  1.00  0.00     0.188 A
HETATM    8  C2  UNL     1      25.767   1.403   7.038  1.00  0.00     0.172 A
HETATM    9  N3  UNL     1      25.017   0.765   7.944  1.00  0.00    -0.268 N
HETATM   10  N4  UNL     1      25.830   0.115   8.749  1.00  0.00    -0.239 N
ATOM     11  H3  UNL     1      23.999   0.780   8.001  1.00  0.00     0.190 HD
HETATM   12  N5  UNL     1      27.080   0.310   8.397  1.00  0.00    -0.266 N
ATOM     13  H4  UNL     1      25.532  -0.460   9.536  1.00  0.00     0.208 HD
ATOM     14  H5  UNL     1      27.902  -0.081   8.857  1.00  0.00     0.190 HD
BRANCH   8  15
HETATM   15  N2  UNL     1      25.300   2.231   5.962  1.00  0.00    -0.304 N
ATOM     16  H2  UNL     1      25.364   3.246   6.043  1.00  0.00     0.171 HD
BRANCH  15  17
HETATM   17  C1  UNL     1      24.754   1.656   4.788  1.00  0.00     0.216 C
HETATM   18  N1  UNL     1      25.372   0.745   4.124  1.00  0.00    -0.365 N
ATOM     19  H12 UNL     1      24.978   0.331   3.279  1.00  0.00     0.159 HD
ATOM     20  H11 UNL     1      26.285   0.424   4.448  1.00  0.00     0.159 HD
BRANCH  17  21
HETATM   21  O1  UNL     1      23.513   2.092   4.349  1.00  0.00    -0.333 OA
ATOM     22  H1  UNL     1      23.368   3.021   4.212  1.00  0.00     0.220 HD
ENDBRANCH  17  21
ENDBRANCH  15  17
ENDBRANCH   8  15
ENDBRANCH   1   7
BRANCH   6  23
HETATM   23  C10 UNL     1      29.589   2.615   8.457  1.00  0.00     0.168 A
HETATM   24  N12 UNL     1      29.045   3.653   9.116  1.00  0.00    -0.267 N
HETATM   25  N13 UNL     1      29.522   3.669  10.324  1.00  0.00    -0.227 N
ATOM     26  H12 UNL     1      28.372   4.316   8.732  1.00  0.00     0.190 HD
HETATM   27  N14 UNL     1      30.365   2.677  10.488  1.00  0.00    -0.227 N
ATOM     28  H13 UNL     1      29.277   4.353  11.040  1.00  0.00     0.210 HD
HETATM   29  N15 UNL     1      30.403   2.036   9.347  1.00  0.00    -0.267 N
ATOM     30  H14 UNL     1      30.886   2.451  11.335  1.00  0.00     0.210 HD
ATOM     31  H15 UNL     1      30.974   1.211   9.163  1.00  0.00     0.190 HD
ENDBRANCH   6  23
BRANCH   5  32
HETATM   32  C5  UNL     1      31.436   3.209   6.045  1.00  0.00     0.053 A
HETATM   33  C6  UNL     1      32.662   2.578   6.165  1.00  0.00     0.106 A
HETATM   34  N9  UNL     1      33.814   3.289   6.171  1.00  0.00    -0.361 N
HETATM   35  C7  UNL     1      33.799   4.628   6.057  1.00  0.00     0.181 A
ATOM     36  H9  UNL     1      34.705   2.801   6.261  1.00  0.00     0.166 HD
HETATM   37  N10 UNL     1      32.623   5.274   5.938  1.00  0.00    -0.338 N
HETATM   38  C8  UNL     1      31.467   4.584   5.932  1.00  0.00     0.113 A
ATOM     39  H10 UNL     1      32.609   6.290   5.853  1.00  0.00     0.168 HD
BRANCH  38  40
HETATM   40  N11 UNL     1      30.349   5.210   5.814  1.00  0.00    -0.385 N
ATOM     41 2H11 UNL     1      30.027   5.820   6.566  1.00  0.00     0.157 HD
ATOM     42 1H11 UNL     1      29.809   5.078   4.958  1.00  0.00     0.157 HD
ENDBRANCH  38  40
ENDBRANCH   5  32
TORSDOF 7
ENDMDL