MODEL 5
REMARK VINA RESULT: -5.088495023      3.213      3.784
REMARK  3 active torsions:
REMARK  status: ('A' for Active; 'I' for Inactive)
REMARK    1  A    between atoms: C2_2  and  N1_3
REMARK    2  A    between atoms: C2_2  and  C3_10
REMARK    3  A    between atoms: N2_5  and  N3_7
ROOT
HETATM    1  C3  UNL     1      40.296  56.564  20.880  1.00  0.00     0.050 A
HETATM    2  C4  UNL     1      41.272  56.748  19.924  1.00  0.00     0.034 A
HETATM    3  C5  UNL     1      42.340  57.585  20.179  1.00  0.00     0.078 A
HETATM    4  C6  UNL     1      42.460  58.252  21.378  1.00  0.00     0.259 A
HETATM    5  O1  UNL     1      43.447  59.028  21.616  1.00  0.00    -0.267 OA
HETATM    6  N4  UNL     1      41.483  58.040  22.276  1.00  0.00    -0.266 N
ATOM      7  H4  UNL     1      41.532  58.515  23.178  1.00  0.00     0.190 HD
HETATM    8  N5  UNL     1      40.459  57.238  22.035  1.00  0.00    -0.300 N
ATOM      9  H5  UNL     1      39.754  57.123  22.763  1.00  0.00     0.186 HD
ENDROOT
BRANCH   1  10
HETATM   10  C2  UNL     1      39.116  55.671  20.666  1.00  0.00     0.148 C
HETATM   11  C1  UNL     1      37.859  56.512  20.720  1.00  0.00     0.040 C
BRANCH  10  12
HETATM   12  N1  UNL     1      39.011  54.697  21.752  1.00  0.00    -0.312 N
HETATM   13  N2  UNL     1      39.765  53.683  21.818  1.00  0.00    -0.253 N
ATOM     14  H2  UNL     1      40.478  53.507  21.109  1.00  0.00     0.207 HD
ATOM     15  H1  UNL     1      38.310  54.840  22.478  1.00  0.00     0.182 HD
BRANCH  13  16
HETATM   16  N3  UNL     1      39.588  52.817  22.887  1.00  0.00    -0.331 N
ATOM     17  H32 UNL     1      39.413  53.185  23.822  1.00  0.00     0.178 HD
ATOM     18  H31 UNL     1      39.640  51.816  22.699  1.00  0.00     0.178 HD
ENDBRANCH  13  16
ENDBRANCH  10  12
ENDBRANCH   1  10
TORSDOF 3
ENDMDL