MODEL 1
REMARK VINA RESULT: -4.612048542      0.000      0.000
REMARK  5 active torsions:
REMARK  status: ('A' for Active; 'I' for Inactive)
REMARK    1  A    between atoms: N1_1  and  C1_4
REMARK    2  A    between atoms: N3_7  and  O1_8
REMARK    3  A    between atoms: C3_13  and  C4_14
REMARK    4  A    between atoms: C4_14  and  C5_15
REMARK    5  A    between atoms: C5_15  and  N5_16
ROOT
HETATM    1  C1  UNL     1      38.486  50.822  10.853  1.00  0.00     0.124 A
HETATM    2  N2  UNL     1      38.684  51.928  10.104  1.00  0.00    -0.243 N
ATOM      3  H2  UNL     1      38.330  51.975   9.148  1.00  0.00     0.192 HD
HETATM    4  N3  UNL     1      39.339  52.946  10.621  1.00  0.00    -0.094 N
HETATM    5  N4  UNL     1      39.826  52.967  11.843  1.00  0.00    -0.270 N
ATOM      6  H4  UNL     1      40.326  53.784  12.194  1.00  0.00     0.190 HD
HETATM    7  C2  UNL     1      39.644  51.876  12.623  1.00  0.00     0.122 A
HETATM    8  C3  UNL     1      38.971  50.765  12.161  1.00  0.00     0.005 A
ENDROOT
BRANCH   8   9
HETATM    9  C4  UNL     1      38.759  49.567  13.007  1.00  0.00     0.071 C
BRANCH   9  10
HETATM   10  C5  UNL     1      39.303  49.829  14.410  1.00  0.00     0.234 C
BRANCH  10  11
HETATM   11  N5  UNL     1      38.640  49.027  15.386  1.00  0.00    -0.079 N
ATOM     12  H53 UNL     1      37.626  49.108  15.310  1.00  0.00     0.274 HD
ATOM     13  H52 UNL     1      38.735  48.033  15.178  1.00  0.00     0.274 HD
ATOM     14  H51 UNL     1      38.962  49.244  16.330  1.00  0.00     0.274 HD
ENDBRANCH  10  11
ENDBRANCH   9  10
ENDBRANCH   8   9
BRANCH   1  15
HETATM   15  N1  UNL     1      37.866  49.786  10.433  1.00  0.00    -0.384 N
ATOM     16  H12 UNL     1      36.988  49.953   9.941  1.00  0.00     0.157 HD
ATOM     17  H11 UNL     1      38.204  48.833  10.568  1.00  0.00     0.157 HD
ENDBRANCH   1  15
BRANCH   4  18
HETATM   18  O1  UNL     1      39.528  54.059   9.846  1.00  0.00    -0.253 OA
ATOM     19  H1  UNL     1      40.402  54.427   9.790  1.00  0.00     0.248 HD
ENDBRANCH   4  18
TORSDOF 5
ENDMDL