MODEL 2
REMARK VINA RESULT: -4.710243057      1.497      2.123
REMARK  2 active torsions:
REMARK  status: ('A' for Active; 'I' for Inactive)
REMARK    1  A    between atoms: N3_4  and  N4_6
REMARK    2  A    between atoms: C2_8  and  C3_9
ROOT
HETATM    1  N4  UNL     1      40.948  55.690  19.316  1.00  0.00    -0.308 N
ATOM      2  H4  UNL     1      41.902  55.839  19.646  1.00  0.00     0.186 HD
HETATM    3  C2  UNL     1      39.947  56.083  20.018  1.00  0.00     0.138 C
ENDROOT
BRANCH   3   4
HETATM    4  C3  UNL     1      40.193  56.744  21.292  1.00  0.00     0.065 A
HETATM    5  C4  UNL     1      41.274  57.556  21.573  1.00  0.00     0.119 A
HETATM    6  N5  UNL     1      41.103  57.948  22.849  1.00  0.00    -0.360 N
HETATM    7  C5  UNL     1      39.963  57.395  23.324  1.00  0.00     0.180 A
ATOM      8  H5  UNL     1      41.728  58.561  23.372  1.00  0.00     0.166 HD
HETATM    9  N6  UNL     1      39.392  56.648  22.367  1.00  0.00    -0.350 N
ATOM     10  H6  UNL     1      38.525  56.115  22.441  1.00  0.00     0.166 HD
ENDBRANCH   3   4
BRANCH   1  11
HETATM   11  N3  UNL     1      40.713  55.056  18.094  1.00  0.00    -0.276 N
HETATM   12  C1  UNL     1      41.370  55.452  17.052  1.00  0.00     0.215 C
HETATM   13  N1  UNL     1      42.319  56.512  17.119  1.00  0.00    -0.065 NA
HETATM   14  N2  UNL     1      41.117  54.798  15.832  1.00  0.00    -0.065 NA
ATOM     15  H3  UNL     1      40.038  54.294  18.024  1.00  0.00     0.189 HD
ENDBRANCH   1  11
TORSDOF 2
ENDMDL