MODEL 2
REMARK VINA RESULT: -4.565713151      2.674      3.086
REMARK  2 active torsions:
REMARK  status: ('A' for Active; 'I' for Inactive)
REMARK    1  A    between atoms: C1_4  and  C2_6
REMARK    2  A    between atoms: C5_11  and  N4_12
ROOT
HETATM    1  C2  UNL     1      42.101  56.827  19.177  1.00  0.00     0.119 C
HETATM    2  C3  UNL     1      41.400  57.703  20.196  1.00  0.00     0.039 C
HETATM    3  C4  UNL     1      40.622  56.658  20.971  1.00  0.00     0.122 C
HETATM    4  N3  UNL     1      40.376  55.645  19.953  1.00  0.00    -0.379 N
ATOM      5  H3  UNL     1      39.637  54.946  20.026  1.00  0.00     0.160 HD
HETATM    6  C5  UNL     1      41.168  55.717  18.967  1.00  0.00     0.088 C
ENDROOT
BRANCH   1   7
HETATM    7  C1  UNL     1      43.425  56.375  19.689  1.00  0.00     0.098 C
HETATM    8  N1  UNL     1      44.314  57.286  19.907  1.00  0.00    -0.390 N
ATOM      9  H12 UNL     1      45.220  56.977  20.258  1.00  0.00     0.157 HD
ATOM     10  H11 UNL     1      44.109  58.269  19.734  1.00  0.00     0.157 HD
HETATM   11  N2  UNL     1      43.710  55.007  19.930  1.00  0.00    -0.087 NA
ENDBRANCH   1   7
BRANCH   6  12
HETATM   12  N4  UNL     1      41.144  54.845  17.832  1.00  0.00    -0.344 N
HETATM   13  C6  UNL     1      41.125  55.255  16.621  1.00  0.00     0.191 C
HETATM   14  N5  UNL     1      41.102  54.264  15.598  1.00  0.00    -0.097 NA
ATOM     15  H4  UNL     1      41.141  53.839  17.999  1.00  0.00     0.167 HD
ENDBRANCH   6  12
TORSDOF 2
ENDMDL