MODEL 4
REMARK VINA RESULT: -4.257582378      0.939      1.283
REMARK  2 active torsions:
REMARK  status: ('A' for Active; 'I' for Inactive)
REMARK    1  A    between atoms: N2_4  and  N3_6
REMARK    2  A    between atoms: N3_6  and  C1_8
ROOT
HETATM    1  C1  UNL     1      39.982  53.869  23.404  1.00  0.00     0.137 C
HETATM    2  C2  UNL     1      40.898  53.819  22.180  1.00  0.00     0.148 C
HETATM    3  N4  UNL     1      40.312  54.714  21.171  1.00  0.00    -0.383 N
ATOM      4  H4  UNL     1      40.429  54.453  20.193  1.00  0.00     0.160 HD
HETATM    5  C3  UNL     1      39.661  55.802  21.418  1.00  0.00     0.192 C
HETATM    6  N5  UNL     1      39.355  56.393  22.682  1.00  0.00    -0.301 N
ATOM      7  H5  UNL     1      38.494  56.937  22.744  1.00  0.00     0.187 HD
HETATM    8  N6  UNL     1      40.118  56.293  23.827  1.00  0.00    -0.334 N
ATOM      9  H6  UNL     1      40.500  57.117  24.292  1.00  0.00     0.180 HD
HETATM   10  C4  UNL     1      40.344  54.982  24.326  1.00  0.00     0.167 C
ENDROOT
BRANCH   1  11
HETATM   11  N3  UNL     1      40.010  52.601  24.070  1.00  0.00    -0.315 N
ATOM     12  H3  UNL     1      39.399  52.449  24.873  1.00  0.00     0.182 HD
BRANCH  11  13
HETATM   13  N2  UNL     1      40.851  51.566  23.649  1.00  0.00    -0.253 N
HETATM   14  N1  UNL     1      40.350  50.664  22.912  1.00  0.00    -0.331 N
ATOM     15  H12 UNL     1      39.366  50.706  22.645  1.00  0.00     0.178 HD
ATOM     16  H11 UNL     1      40.964  49.909  22.606  1.00  0.00     0.178 HD
ATOM     17  H2  UNL     1      41.833  51.538  23.925  1.00  0.00     0.207 HD
ENDBRANCH  11  13
ENDBRANCH   1  11
TORSDOF 2
ENDMDL