MODEL 1
REMARK VINA RESULT: -3.907612713      0.000      0.000
REMARK  4 active torsions:
REMARK  status: ('A' for Active; 'I' for Inactive)
REMARK    1  A    between atoms: N1_1  and  C1_4
REMARK    2  A    between atoms: N4_11  and  C4_12
REMARK    3  A    between atoms: C4_12  and  C5_13
REMARK    4  A    between atoms: C5_13  and  N5_14
ROOT
HETATM    1  C1  UNL     1      38.435  50.480  10.964  1.00  0.00     0.679 A
HETATM    2  N2  UNL     1      38.678  51.474  10.076  1.00  0.00    -0.188 N
ATOM      3  H2  UNL     1      38.404  51.329   9.104  1.00  0.00     0.185 HD
HETATM    4  C2  UNL     1      39.259  52.638  10.405  1.00  0.00     0.199 A
HETATM    5  N3  UNL     1      39.614  52.811  11.689  1.00  0.00    -0.347 N
ATOM      6  H3  UNL     1      40.058  53.682  11.976  1.00  0.00     0.167 HD
HETATM    7  C3  UNL     1      39.389  51.848  12.598  1.00  0.00     0.201 A
HETATM    8  N4  UNL     1      38.795  50.669  12.244  1.00  0.00    -0.178 N
ENDROOT
BRANCH   8   9
HETATM    9  C4  UNL     1      38.547  49.621  13.176  1.00  0.00     0.175 C
BRANCH   9  10
HETATM   10  C5  UNL     1      39.249  49.707  14.480  1.00  0.00     0.250 C
BRANCH  10  11
HETATM   11  N5  UNL     1      38.716  48.856  15.496  1.00  0.00    -0.078 N
ATOM     12  H53 UNL     1      37.979  48.265  15.114  1.00  0.00     0.274 HD
ATOM     13  H52 UNL     1      39.397  48.141  15.754  1.00  0.00     0.274 HD
ATOM     14  H51 UNL     1      38.384  49.347  16.326  1.00  0.00     0.274 HD
ENDBRANCH  10  11
ENDBRANCH   9  10
ENDBRANCH   8   9
BRANCH   1  15
HETATM   15  N1  UNL     1      37.859  49.403  10.527  1.00  0.00    -0.234 N
ATOM     16  H12 UNL     1      37.614  49.246   9.549  1.00  0.00     0.174 HD
ATOM     17  H11 UNL     1      37.646  48.668  11.201  1.00  0.00     0.174 HD
ENDBRANCH   1  15
TORSDOF 4
ENDMDL