MODEL 2
REMARK VINA RESULT: -3.933049349      6.634      7.338
REMARK  3 active torsions:
REMARK  status: ('A' for Active; 'I' for Inactive)
REMARK    1  A    between atoms: N1_1  and  C1_5
REMARK    2  A    between atoms: C1_5  and  C2_6
REMARK    3  A    between atoms: C2_6  and  N2_7
ROOT
HETATM    1  N2  UNL     1      39.614  51.897  12.905  1.00  0.00    -0.250 N
HETATM    2  N3  UNL     1      40.479  52.891  13.100  1.00  0.00    -0.004 NA
HETATM    3  N4  UNL     1      41.266  52.609  14.122  1.00  0.00    -0.006 NA
HETATM    4  N5  UNL     1      40.913  51.426  14.594  1.00  0.00    -0.261 N
ATOM      5  H5  UNL     1      41.340  50.942  15.383  1.00  0.00     0.186 HD
HETATM    6  C3  UNL     1      39.897  50.980  13.852  1.00  0.00     0.204 A
HETATM    7  S1  UNL     1      39.080  49.566  14.003  1.00  0.00    -0.038 SA
ENDROOT
BRANCH   1   8
HETATM    8  C2  UNL     1      38.589  51.837  11.878  1.00  0.00     0.176 C
BRANCH   8   9
HETATM    9  C1  UNL     1      39.169  52.067  10.491  1.00  0.00     0.251 C
BRANCH   9  10
HETATM   10  N1  UNL     1      39.284  53.474  10.214  1.00  0.00    -0.078 N
ATOM     11  H13 UNL     1      38.585  54.017  10.720  1.00  0.00     0.274 HD
ATOM     12  H12 UNL     1      40.123  53.874  10.634  1.00  0.00     0.274 HD
ATOM     13  H11 UNL     1      39.244  53.649   9.210  1.00  0.00     0.274 HD
ENDBRANCH   9  10
ENDBRANCH   8   9
ENDBRANCH   1   8
TORSDOF 3
ENDMDL