MODEL 5
REMARK VINA RESULT: -4.148682299      8.256     10.077
REMARK  4 active torsions:
REMARK  status: ('A' for Active; 'I' for Inactive)
REMARK    1  A    between atoms: C2_5  and  N3_6
REMARK    2  A    between atoms: C4_12  and  C5_13
REMARK    3  A    between atoms: C5_13  and  C6_14
REMARK    4  A    between atoms: C6_14  and  N5_15
ROOT
HETATM    1  C1  UNL     1      41.689  55.349  19.230  1.00  0.00     0.178 C
HETATM    2  N1  UNL     1      40.957  55.517  20.458  1.00  0.00    -0.285 N
HETATM    3  N2  UNL     1      40.323  54.475  21.000  1.00  0.00    -0.130 N
ATOM      4  H2  UNL     1      40.369  53.567  20.538  1.00  0.00     0.206 HD
HETATM    5  C2  UNL     1      39.628  54.597  22.143  1.00  0.00     0.690 A
HETATM    6  N4  UNL     1      39.570  55.793  22.747  1.00  0.00    -0.199 N
ATOM      7  H4  UNL     1      39.044  55.900  23.615  1.00  0.00     0.183 HD
HETATM    8  C3  UNL     1      40.201  56.848  22.212  1.00  0.00     0.132 A
HETATM    9  C4  UNL     1      40.912  56.721  21.046  1.00  0.00     0.046 A
ENDROOT
BRANCH   9  10
HETATM   10  C5  UNL     1      41.605  57.931  20.492  1.00  0.00     0.087 C
BRANCH  10  11
HETATM   11  C6  UNL     1      42.799  58.296  21.318  1.00  0.00     0.235 C
BRANCH  11  12
HETATM   12  N5  UNL     1      44.022  57.712  20.823  1.00  0.00    -0.079 N
ATOM     13  H53 UNL     1      43.846  56.802  20.396  1.00  0.00     0.274 HD
ATOM     14  H52 UNL     1      44.362  58.215  20.004  1.00  0.00     0.274 HD
ATOM     15  H51 UNL     1      44.747  57.645  21.538  1.00  0.00     0.274 HD
ENDBRANCH  11  12
ENDBRANCH  10  11
ENDBRANCH   9  10
BRANCH   5  16
HETATM   16  N3  UNL     1      39.000  53.592  22.692  1.00  0.00    -0.233 N
ATOM     17  H32 UNL     1      39.470  53.071  23.432  1.00  0.00     0.174 HD
ATOM     18  H31 UNL     1      38.060  53.313  22.408  1.00  0.00     0.174 HD
ENDBRANCH   5  16
TORSDOF 4
ENDMDL