MODEL 3
REMARK VINA RESULT: -7.489604779      4.349      7.996
REMARK  10 active torsions:
REMARK  status: ('A' for Active; 'I' for Inactive)
REMARK    1  A    between atoms: C2_2  and  C3_3
REMARK    2  A    between atoms: C4_4  and  C5_5
REMARK    3  A    between atoms: C5_5  and  C6_6
REMARK    4  A    between atoms: C6_6  and  C7_7
REMARK    5  A    between atoms: C7_7  and  C8_8
REMARK    6  A    between atoms: C8_8  and  O2_10
REMARK    7  A    between atoms: O2_10  and  C9_11
REMARK    8  A    between atoms: C10_12  and  C11_13
REMARK    9  A    between atoms: C13_17  and  O5_18
REMARK   10  A    between atoms: C16_23  and  O7_25
ROOT
HETATM    1  C9  UNL     1      11.958  46.422 105.769  1.00  0.00     0.183 C
HETATM    2  C10 UNL     1      12.320  44.955 105.697  1.00  0.00     0.122 C
HETATM    3  C12 UNL     1      13.660  44.676 106.274  1.00  0.00     0.053 C
HETATM    4  C13 UNL     1      14.722  45.656 105.970  1.00  0.00     0.159 C
HETATM    5  C14 UNL     1      14.290  47.064 105.800  1.00  0.00     0.141 A
HETATM    6  C15 UNL     1      14.759  48.095 106.661  1.00  0.00     0.213 A
HETATM    7  O6  UNL     1      15.316  47.902 105.275  1.00  0.00    -0.369 OA
HETATM    8  C16 UNL     1      12.997  47.198 105.026  1.00  0.00     0.117 C
HETATM    9  C17 UNL     1      12.636  48.663 104.903  1.00  0.00     0.052 C
ENDROOT
BRANCH   1  10
HETATM   10  O2  UNL     1      10.636  46.635 105.343  1.00  0.00    -0.308 OA
BRANCH  10  11
HETATM   11  C8  UNL     1       9.600  46.486 106.246  1.00  0.00     0.290 C
HETATM   12  O1  UNL     1       8.989  47.481 106.686  1.00  0.00    -0.260 OA
BRANCH  11  13
HETATM   13  C7  UNL     1       9.150  45.126 106.753  1.00  0.00     0.137 C
BRANCH  13  14
HETATM   14  C6  UNL     1       9.529  44.976 108.099  1.00  0.00    -0.122 C
BRANCH  14  15
HETATM   15  C5  UNL     1       9.869  44.842 109.308  1.00  0.00     0.055 C
BRANCH  15  16
HETATM   16  C4  UNL     1       8.773  44.642 110.297  1.00  0.00     0.008 C
HETATM   17  C3  UNL     1       8.086  45.617 110.810  1.00  0.00    -0.000 C
BRANCH  17  18
HETATM   18  C2  UNL     1       8.251  47.036 110.529  1.00  0.00    -0.010 C
HETATM   19  C1  UNL     1       8.242  47.954 111.470  1.00  0.00     0.011 C
ENDBRANCH  17  18
ENDBRANCH  15  16
ENDBRANCH  14  15
ENDBRANCH  13  14
ENDBRANCH  11  13
ENDBRANCH  10  11
ENDBRANCH   1  10
BRANCH   2  20
HETATM   20  C11 UNL     1      12.174  44.379 104.351  1.00  0.00     0.179 C
HETATM   21  O3  UNL     1      13.093  43.630 103.875  1.00  0.00    -0.648 OA
HETATM   22  O4  UNL     1      11.057  44.626 103.570  1.00  0.00    -0.648 OA
ENDBRANCH   2  20
BRANCH   8  23
HETATM   23  O7  UNL     1      13.222  46.727 103.739  1.00  0.00    -0.384 OA
ATOM     24  H7  UNL     1      13.295  45.781 103.690  1.00  0.00     0.210 HD
ENDBRANCH   8  23
BRANCH   4  25
HETATM   25  O5  UNL     1      15.646  45.628 107.043  1.00  0.00    -0.392 OA
ATOM     26  H5  UNL     1      16.069  44.777 107.033  1.00  0.00     0.210 HD
ENDBRANCH   4  25
TORSDOF 10
ENDMDL