MODEL 3
REMARK VINA RESULT: -7.828250166      7.920      9.495
REMARK  7 active torsions:
REMARK  status: ('A' for Active; 'I' for Inactive)
REMARK    1  A    between atoms: C2_2  and  C4_4
REMARK    2  A    between atoms: C4_4  and  C5_5
REMARK    3  A    between atoms: C5_5  and  O1_7
REMARK    4  A    between atoms: O1_7  and  C7_8
REMARK    5  A    between atoms: C8_9  and  O2_10
REMARK    6  A    between atoms: C10_17  and  C11_18
REMARK       I    between atoms: C11_18  and  N2_20
REMARK    7  A    between atoms: N2_20  and  C12_22
ROOT
HETATM    1  C7  UNL     1      12.094  45.255 106.561  1.00  0.00     0.209 C
HETATM    2  C8  UNL     1      13.215  44.326 106.250  1.00  0.00     0.254 C
HETATM    3  N1  UNL     1      13.077  43.863 104.880  1.00  0.00    -0.308 N
ATOM      4  H1  UNL     1      13.567  43.030 104.555  1.00  0.00     0.167 HD
HETATM    5  C9  UNL     1      12.239  44.604 104.010  1.00  0.00     0.363 C
HETATM    6  O3  UNL     1      11.688  44.052 103.000  1.00  0.00    -0.238 OA
HETATM    7  O4  UNL     1      12.042  45.946 104.296  1.00  0.00    -0.286 OA
HETATM    8  C10 UNL     1      12.264  46.461 105.619  1.00  0.00     0.258 C
ENDROOT
BRANCH   8   9
HETATM    9  C11 UNL     1      13.652  46.954 105.632  1.00  0.00     0.250 C
HETATM   10  O5  UNL     1      14.233  47.136 106.738  1.00  0.00    -0.271 OA
HETATM   11  N2  UNL     1      14.394  47.243 104.464  1.00  0.00    -0.354 N
ATOM     12  H2  UNL     1      13.937  47.100 103.563  1.00  0.00     0.162 HD
BRANCH  11  13
HETATM   13  C12 UNL     1      15.740  47.720 104.459  1.00  0.00     0.084 C
HETATM   14  C13 UNL     1      16.462  47.297 103.216  1.00  0.00     0.025 C
HETATM   15  C14 UNL     1      17.153  48.476 102.539  1.00  0.00     0.002 C
HETATM   16  C15 UNL     1      16.130  49.516 102.183  1.00  0.00     0.000 C
HETATM   17  C16 UNL     1      15.225  49.877 103.333  1.00  0.00     0.002 C
HETATM   18  C17 UNL     1      15.778  49.234 104.606  1.00  0.00     0.025 C
ENDBRANCH  11  13
ENDBRANCH   8   9
BRANCH   1  19
HETATM   19  O1  UNL     1      10.875  44.798 106.686  1.00  0.00    -0.373 OA
BRANCH  19  20
HETATM   20  C5  UNL     1       9.783  45.475 107.029  1.00  0.00     0.118 C
HETATM   21  C6  UNL     1       8.858  45.913 105.931  1.00  0.00     0.039 C
BRANCH  20  22
HETATM   22  C4  UNL     1       8.934  44.870 108.146  1.00  0.00     0.035 C
BRANCH  22  23
HETATM   23  C2  UNL     1       9.639  45.111 109.488  1.00  0.00    -0.020 C
HETATM   24  C1  UNL     1       8.611  45.574 110.497  1.00  0.00     0.009 C
HETATM   25  C3  UNL     1      10.316  43.890 110.010  1.00  0.00     0.009 C
ENDBRANCH  22  23
ENDBRANCH  20  22
ENDBRANCH  19  20
ENDBRANCH   1  19
BRANCH   2  26
HETATM   26  O2  UNL     1      13.170  43.148 107.022  1.00  0.00    -0.374 OA
ATOM     27  H2  UNL     1      13.036  43.322 107.946  1.00  0.00     0.212 HD
ENDBRANCH   2  26
TORSDOF 7
ENDMDL