MODEL 1
REMARK VINA RESULT: -8.940695154      0.000      0.000
REMARK  8 active torsions:
REMARK  status: ('A' for Active; 'I' for Inactive)
REMARK    1  A    between atoms: O1_2  and  C2_3
REMARK    2  A    between atoms: C2_3  and  C3_5
REMARK    3  A    between atoms: C3_5  and  C4_6
REMARK    4  A    between atoms: C3_5  and  N1_14
REMARK    5  A    between atoms: C4_6  and  C5_7
REMARK       I    between atoms: N1_14  and  C12_16
REMARK       I    between atoms: C12_16  and  N2_18
REMARK    6  A    between atoms: N2_18  and  C13_20
REMARK    7  A    between atoms: C13_20  and  C14_21
REMARK    8  A    between atoms: C16_25  and  O6_26
ROOT
HETATM    1  N1  UNL     1       7.329  51.296 110.085  1.00  0.00    -0.329 N
ATOM      2  H1  UNL     1       6.964  51.815 109.286  1.00  0.00     0.165 HD
HETATM    3  C12 UNL     1       7.805  49.975 109.860  1.00  0.00     0.316 C
HETATM    4  O3  UNL     1       8.268  49.261 110.780  1.00  0.00    -0.247 OA
HETATM    5  N2  UNL     1       7.761  49.435 108.555  1.00  0.00    -0.341 N
ATOM      6  H2  UNL     1       7.389  49.995 107.787  1.00  0.00     0.164 HD
ENDROOT
BRANCH   1   7
HETATM    7  C3  UNL     1       7.330  51.950 111.374  1.00  0.00     0.186 C
BRANCH   7   8
HETATM    8  C2  UNL     1       6.074  51.623 112.131  1.00  0.00     0.281 C
HETATM    9  O2  UNL     1       5.664  52.421 113.008  1.00  0.00    -0.263 OA
BRANCH   8  10
HETATM   10  O1  UNL     1       5.339  50.473 111.906  1.00  0.00    -0.325 OA
HETATM   11  C1  UNL     1       5.222  49.431 112.857  1.00  0.00     0.213 C
ENDBRANCH   8  10
ENDBRANCH   7   8
BRANCH   7  12
HETATM   12  C4  UNL     1       7.381  53.438 111.279  1.00  0.00     0.040 C
BRANCH  12  13
HETATM   13  C5  UNL     1       8.606  54.084 111.828  1.00  0.00    -0.012 C
HETATM   14  C6  UNL     1       9.802  53.336 111.226  1.00  0.00     0.005 C
HETATM   15  C7  UNL     1      10.092  53.776 109.834  1.00  0.00     0.000 C
HETATM   16  C8  UNL     1      10.815  55.077 109.723  1.00  0.00     0.000 C
HETATM   17  C9  UNL     1      11.154  55.698 111.043  1.00  0.00     0.000 C
HETATM   18  C10 UNL     1       9.959  56.158 111.813  1.00  0.00     0.000 C
HETATM   19  C11 UNL     1       8.665  55.521 111.356  1.00  0.00     0.005 C
ENDBRANCH  12  13
ENDBRANCH   7  12
ENDBRANCH   1   7
BRANCH   5  20
HETATM   20  C13 UNL     1       8.235  48.102 108.301  1.00  0.00     0.161 C
BRANCH  20  21
HETATM   21  C14 UNL     1       8.574  47.878 106.861  1.00  0.00     0.197 C
HETATM   22  O4  UNL     1       9.219  46.689 106.623  1.00  0.00    -0.355 OA
HETATM   23  C15 UNL     1       8.544  46.018 105.619  1.00  0.00     0.341 C
HETATM   24  O5  UNL     1       7.733  46.962 104.983  1.00  0.00    -0.335 OA
HETATM   25  C16 UNL     1       7.268  47.689 106.102  1.00  0.00     0.290 C
BRANCH  25  26
HETATM   26  O6  UNL     1       6.701  48.897 105.726  1.00  0.00    -0.368 OA
ATOM     27  H6  UNL     1       5.756  48.897 105.826  1.00  0.00     0.212 HD
ENDBRANCH  25  26
ENDBRANCH  20  21
ENDBRANCH   5  20
TORSDOF 8
ENDMDL