MODEL 1
REMARK VINA RESULT: -5.273909203      0.000      0.000
REMARK  7 active torsions:
REMARK  status: ('A' for Active; 'I' for Inactive)
REMARK    1  A    between atoms: C2_2  and  C3_3
REMARK    2  A    between atoms: C3_3  and  C4_5
REMARK    3  A    between atoms: C4_5  and  C6_8
REMARK       I    between atoms: C6_8  and  N2_10
REMARK    4  A    between atoms: C7_11  and  C8_12
REMARK    5  A    between atoms: C15_20  and  C16_21
REMARK    6  A    between atoms: C16_21  and  N4_22
REMARK    7  A    between atoms: C16_21  and  C17_26
ROOT
HETATM    1  C4  UNL     1      11.476  44.307 106.452  1.00  0.00     0.254 C
HETATM    2  C5  UNL     1      11.123  44.443 107.875  1.00  0.00     0.081 C
HETATM    3  N1  UNL     1      10.826  44.563 108.988  1.00  0.00    -0.196 NA
ENDROOT
BRANCH   1   4
HETATM    4  C3  UNL     1      10.571  45.209 105.691  1.00  0.00     0.153 C
HETATM    5  O1  UNL     1      10.000  44.793 104.710  1.00  0.00    -0.296 OA
BRANCH   4   6
HETATM    6  C2  UNL     1      10.368  46.599 106.125  1.00  0.00     0.076 C
HETATM    7  C1  UNL     1       8.894  46.929 106.306  1.00  0.00     0.013 C
ENDBRANCH   4   6
ENDBRANCH   1   4
BRANCH   1   8
HETATM    8  C6  UNL     1      12.891  44.545 106.220  1.00  0.00     0.250 C
HETATM    9  O2  UNL     1      13.476  45.188 107.174  1.00  0.00    -0.271 OA
HETATM   10  N2  UNL     1      13.713  44.183 105.137  1.00  0.00    -0.301 N
HETATM   11  C7  UNL     1      15.156  44.425 105.130  1.00  0.00     0.068 C
HETATM   12  C15 UNL     1      13.433  43.486 103.885  1.00  0.00     0.155 C
HETATM   13  N3  UNL     1      15.742  43.552 104.154  1.00  0.00    -0.266 NA
HETATM   14  C11 UNL     1      16.876  42.811 104.685  1.00  0.00     0.119 C
HETATM   15  C12 UNL     1      14.682  42.627 103.743  1.00  0.00     0.034 C
HETATM   16  C13 UNL     1      15.021  42.095 102.424  1.00  0.00     0.034 C
HETATM   17  C14 UNL     1      14.633  41.489 104.741  1.00  0.00     0.034 C
BRANCH  11  18
HETATM   18  C8  UNL     1      15.639  45.794 105.227  1.00  0.00     0.040 C
HETATM   19  C9  UNL     1      16.038  46.068 106.701  1.00  0.00     0.017 C
HETATM   20  C10 UNL     1      16.789  46.260 104.432  1.00  0.00     0.017 C
ENDBRANCH  11  18
BRANCH  12  21
HETATM   21  C16 UNL     1      13.102  44.257 102.691  1.00  0.00     0.296 C
BRANCH  21  22
HETATM   22  N4  UNL     1      11.656  44.021 102.439  1.00  0.00    -0.065 N
ATOM     23  H43 UNL     1      11.392  44.125 101.459  1.00  0.00     0.275 HD
ATOM     24  H42 UNL     1      11.379  43.045 102.538  1.00  0.00     0.275 HD
ATOM     25  H41 UNL     1      11.155  44.652 103.065  1.00  0.00     0.275 HD
ENDBRANCH  21  22
BRANCH  21  26
HETATM   26  C17 UNL     1      13.324  45.699 102.819  1.00  0.00     0.264 C
HETATM   27  N5  UNL     1      14.438  46.290 102.108  1.00  0.00    -0.060 NA
HETATM   28  O3  UNL     1      12.660  46.516 103.483  1.00  0.00    -0.274 OA
ENDBRANCH  21  26
ENDBRANCH  12  21
ENDBRANCH   1   8
TORSDOF 7
ENDMDL