MODEL 1
REMARK VINA RESULT: -6.536305881      0.000      0.000
REMARK  9 active torsions:
REMARK  status: ('A' for Active; 'I' for Inactive)
REMARK    1  A    between atoms: C2_2  and  N1_26
REMARK    2  A    between atoms: C3_3  and  C4_4
REMARK    3  A    between atoms: C4_4  and  C5_6
REMARK    4  A    between atoms: C5_6  and  C6_7
REMARK    5  A    between atoms: C8_9  and  O2_10
REMARK    6  A    between atoms: C11_14  and  O3_16
REMARK    7  A    between atoms: C13_18  and  C14_19
REMARK    8  A    between atoms: C14_19  and  C15_21
REMARK    9  A    between atoms: C15_21  and  O5_24
ROOT
HETATM    1  C6  UNL     1      12.783  45.366 105.081  1.00  0.00     0.019 C
HETATM    2  C7  UNL     1      13.461  44.699 106.165  1.00  0.00     0.023 C
HETATM    3  C8  UNL     1      12.130  44.269 104.214  1.00  0.00     0.131 C
HETATM    4  C9  UNL     1      12.042  44.597 102.776  1.00  0.00     0.036 C
HETATM    5  C10 UNL     1      13.340  44.923 102.108  1.00  0.00     0.045 C
HETATM    6  C11 UNL     1      14.268  45.730 103.033  1.00  0.00     0.082 C
HETATM    7  C12 UNL     1      15.438  44.908 103.293  1.00  0.00     0.051 C
HETATM    8  C13 UNL     1      13.468  46.308 104.159  1.00  0.00     0.014 C
ENDROOT
BRANCH   1   9
HETATM    9  C5  UNL     1      11.593  46.180 105.629  1.00  0.00     0.099 C
BRANCH   9  10
HETATM   10  C4  UNL     1      10.419  45.355 105.976  1.00  0.00     0.152 C
HETATM   11  O1  UNL     1       9.530  45.034 105.159  1.00  0.00    -0.293 OA
BRANCH  10  12
HETATM   12  C3  UNL     1      10.303  44.906 107.336  1.00  0.00     0.074 C
HETATM   13  C2  UNL     1       9.476  45.428 108.194  1.00  0.00     0.006 C
HETATM   14  C1  UNL     1       8.556  46.535 107.887  1.00  0.00     0.068 C
BRANCH  13  15
HETATM   15  N1  UNL     1       9.418  44.946 109.562  1.00  0.00    -0.393 N
HETATM   16  C18 UNL     1      10.292  43.864 109.942  1.00  0.00     0.148 C
HETATM   17  C19 UNL     1       8.516  45.514 110.509  1.00  0.00     0.148 C
ENDBRANCH  13  15
ENDBRANCH  10  12
ENDBRANCH   9  10
ENDBRANCH   1   9
BRANCH   3  18
HETATM   18  O2  UNL     1      12.803  43.060 104.343  1.00  0.00    -0.394 OA
ATOM     19  H2  UNL     1      12.262  42.334 104.055  1.00  0.00     0.210 HD
ENDBRANCH   3  18
BRANCH   8  20
HETATM   20  C14 UNL     1      13.908  47.617 104.679  1.00  0.00     0.189 C
HETATM   21  O4  UNL     1      13.145  48.582 104.374  1.00  0.00    -0.290 OA
BRANCH  20  22
HETATM   22  C15 UNL     1      14.983  48.135 105.457  1.00  0.00     0.115 C
HETATM   23  C16 UNL     1      16.185  47.409 105.856  1.00  0.00     0.054 C
HETATM   24  C17 UNL     1      15.515  49.426 104.766  1.00  0.00     0.054 C
BRANCH  22  25
HETATM   25  O5  UNL     1      14.486  48.676 106.685  1.00  0.00    -0.383 OA
ATOM     26  H5  UNL     1      15.162  49.186 107.115  1.00  0.00     0.211 HD
ENDBRANCH  22  25
ENDBRANCH  20  22
ENDBRANCH   8  20
BRANCH   6  27
HETATM   27  O3  UNL     1      14.681  46.869 102.287  1.00  0.00    -0.386 OA
ATOM     28  H3  UNL     1      14.632  47.609 102.882  1.00  0.00     0.211 HD
ENDBRANCH   6  27
TORSDOF 9
ENDMDL