MODEL 1
REMARK VINA RESULT: -8.650439903      0.000      0.000
REMARK  8 active torsions:
REMARK  status: ('A' for Active; 'I' for Inactive)
REMARK    1  A    between atoms: C1_2  and  N1_3
REMARK    2  A    between atoms: N1_3  and  C2_5
REMARK    3  A    between atoms: C2_5  and  C3_6
REMARK    4  A    between atoms: C3_6  and  S1_7
REMARK    5  A    between atoms: S1_7  and  C4_8
REMARK    6  A    between atoms: C7_12  and  C8_13
REMARK    7  A    between atoms: C14_19  and  O3_20
REMARK    8  A    between atoms: C15_22  and  O4_23
ROOT
HETATM    1  C4  UNL     1       7.955  47.689 111.980  1.00  0.00     0.186 C
HETATM    2  C5  UNL     1       8.831  48.689 111.326  1.00  0.00     0.077 C
HETATM    3  C6  UNL     1       7.955  49.882 111.066  1.00  0.00     0.157 C
HETATM    4  O2  UNL     1       8.382  50.913 111.879  1.00  0.00    -0.375 OA
HETATM    5  C7  UNL     1       7.522  51.995 111.908  1.00  0.00     0.157 C
HETATM    6  C14 UNL     1       6.167  51.743 111.324  1.00  0.00     0.178 C
HETATM    7  C15 UNL     1       5.677  50.424 111.946  1.00  0.00     0.180 C
HETATM    8  C16 UNL     1       6.610  49.343 111.443  1.00  0.00     0.183 C
HETATM    9  O5  UNL     1       6.805  48.341 112.325  1.00  0.00    -0.365 OA
ENDROOT
BRANCH   1  10
HETATM   10  S1  UNL     1       7.655  46.207 110.969  1.00  0.00    -0.136 SA
BRANCH  10  11
HETATM   11  C3  UNL     1       8.889  45.968 109.688  1.00  0.00     0.096 C
BRANCH  11  12
HETATM   12  C2  UNL     1       8.264  46.363 108.355  1.00  0.00     0.132 C
BRANCH  12  13
HETATM   13  N1  UNL     1       7.438  47.537 108.440  1.00  0.00    -0.367 N
ATOM     14  H1  UNL     1       6.793  47.616 109.226  1.00  0.00     0.161 HD
BRANCH  13  15
HETATM   15  C1  UNL     1       7.469  48.588 107.498  1.00  0.00     0.348 C
HETATM   16  O1  UNL     1       7.081  49.720 107.803  1.00  0.00    -0.284 OA
ENDBRANCH  13  15
ENDBRANCH  12  13
ENDBRANCH  11  12
ENDBRANCH  10  11
ENDBRANCH   1  10
BRANCH   7  17
HETATM   17  O4  UNL     1       4.362  50.211 111.567  1.00  0.00    -0.390 OA
ATOM     18  H4  UNL     1       3.834  50.087 112.348  1.00  0.00     0.210 HD
ENDBRANCH   7  17
BRANCH   5  19
HETATM   19  C8  UNL     1       8.120  53.226 111.291  1.00  0.00     0.017 C
HETATM   20  C9  UNL     1       9.588  53.016 110.948  1.00  0.00     0.007 C
HETATM   21  C10 UNL     1      10.043  54.167 110.116  1.00  0.00     0.000 C
HETATM   22  C11 UNL     1       9.820  55.502 110.790  1.00  0.00     0.000 C
HETATM   23  C12 UNL     1       8.471  55.631 111.407  1.00  0.00     0.000 C
HETATM   24  C13 UNL     1       8.053  54.406 112.220  1.00  0.00     0.007 C
ENDBRANCH   5  19
BRANCH   6  25
HETATM   25  O3  UNL     1       6.157  51.674 109.952  1.00  0.00    -0.390 OA
ATOM     26  H3  UNL     1       6.257  50.793 109.611  1.00  0.00     0.210 HD
ENDBRANCH   6  25
TORSDOF 8
ENDMDL