MODEL 2
REMARK VINA RESULT: -9.353674038      1.231      1.315
REMARK  10 active torsions:
REMARK  status: ('A' for Active; 'I' for Inactive)
REMARK    1  A    between atoms: C2_3  and  N2_4
REMARK       I    between atoms: N2_4  and  C3_6
REMARK    2  A    between atoms: C3_6  and  C4_8
REMARK    3  A    between atoms: C4_8  and  S1_9
REMARK    4  A    between atoms: S1_9  and  C5_10
REMARK    5  A    between atoms: C6_11  and  O2_12
REMARK    6  A    between atoms: C6_11  and  N3_14
REMARK    7  A    between atoms: N3_14  and  N4_16
REMARK    8  A    between atoms: N4_16  and  C7_17
REMARK    9  A    between atoms: C7_17  and  O3_18
REMARK   10  A    between atoms: C7_17  and  C8_20
ROOT
HETATM    1  N1  UNL     1       7.933  45.105 104.699  1.00  0.00    -0.195 NA
HETATM    2  C1  UNL     1       8.744  45.397 105.461  1.00  0.00     0.091 C
HETATM    3  C2  UNL     1       9.776  45.802 106.430  1.00  0.00     0.122 C
HETATM    4  C12 UNL     1      10.776  44.670 106.599  1.00  0.00     0.046 C
HETATM    5  C13 UNL     1      11.574  44.837 105.299  1.00  0.00     0.004 C
HETATM    6  C14 UNL     1      11.933  46.300 105.414  1.00  0.00     0.004 C
HETATM    7  C15 UNL     1      10.594  46.909 105.850  1.00  0.00     0.046 C
ENDROOT
BRANCH   3   8
HETATM    8  N2  UNL     1       9.144  46.144 107.670  1.00  0.00    -0.338 N
HETATM    9  C3  UNL     1       8.374  47.347 107.869  1.00  0.00     0.228 C
HETATM   10  O1  UNL     1       8.205  48.151 106.948  1.00  0.00    -0.273 OA
ATOM     11  H2  UNL     1       9.243  45.501 108.456  1.00  0.00     0.164 HD
BRANCH   9  12
HETATM   12  C4  UNL     1       7.823  47.544 109.268  1.00  0.00     0.181 C
BRANCH  12  13
HETATM   13  S1  UNL     1       8.039  49.224 109.799  1.00  0.00    -0.128 SA
BRANCH  13  14
HETATM   14  C5  UNL     1       6.681  50.322 109.798  1.00  0.00     0.103 C
HETATM   15  C6  UNL     1       6.509  51.191 110.927  1.00  0.00     0.171 C
BRANCH  15  16
HETATM   16  O2  UNL     1       5.268  51.641 111.088  1.00  0.00    -0.344 OA
ATOM     17  H2  UNL     1       4.843  51.914 110.283  1.00  0.00     0.219 HD
ENDBRANCH  15  16
BRANCH  15  18
HETATM   18  N3  UNL     1       7.436  51.632 111.894  1.00  0.00    -0.210 N
ATOM     19  H3  UNL     1       7.948  50.978 112.486  1.00  0.00     0.204 HD
BRANCH  18  20
HETATM   20  N4  UNL     1       7.614  53.003 111.996  1.00  0.00    -0.295 NA
BRANCH  20  21
HETATM   21  C7  UNL     1       7.786  54.273 112.092  1.00  0.00     0.272 C
BRANCH  21  22
HETATM   22  O3  UNL     1       6.964  55.091 112.722  1.00  0.00    -0.332 OA
ATOM     23  H3  UNL     1       7.140  56.011 112.883  1.00  0.00     0.220 HD
ENDBRANCH  21  22
BRANCH  21  24
HETATM   24  C8  UNL     1       8.951  55.043 111.520  1.00  0.00     0.142 A
HETATM   25  C9  UNL     1       9.802  54.670 110.529  1.00  0.00     0.045 A
HETATM   26  C10 UNL     1      10.736  55.692 110.330  1.00  0.00     0.027 A
HETATM   27  C11 UNL     1      10.375  56.658 111.242  1.00  0.00     0.143 A
HETATM   28  O4  UNL     1       9.334  56.253 111.918  1.00  0.00    -0.317 OA
ENDBRANCH  21  24
ENDBRANCH  20  21
ENDBRANCH  18  20
ENDBRANCH  15  18
ENDBRANCH  13  14
ENDBRANCH  12  13
ENDBRANCH   9  12
ENDBRANCH   3   8
TORSDOF 10
ENDMDL