MODEL 5
REMARK VINA RESULT: -9.233298937      1.422      1.616
REMARK  8 active torsions:
REMARK  status: ('A' for Active; 'I' for Inactive)
REMARK       I    between atoms: C1_2  and  N1_3
REMARK       I    between atoms: C1_2  and  N5_18
REMARK    1  A    between atoms: N1_3  and  S1_5
REMARK    2  A    between atoms: S1_5  and  N2_8
REMARK    3  A    between atoms: N2_8  and  C2_10
REMARK    4  A    between atoms: N5_18  and  O4_19
REMARK    5  A    between atoms: N5_18  and  C6_21
REMARK    6  A    between atoms: C6_21  and  C7_22
REMARK    7  A    between atoms: C8_23  and  C9_24
REMARK    8  A    between atoms: C9_24  and  C10_25
ROOT
HETATM    1  O1  UNL     1       5.523  48.614 113.133  1.00  0.00    -0.244 OA
HETATM    2  C1  UNL     1       6.017  49.442 112.293  1.00  0.00     0.357 C
HETATM    3  N1  UNL     1       7.125  49.074 111.485  1.00  0.00    -0.216 N
ATOM      4  H1  UNL     1       7.528  49.723 110.809  1.00  0.00     0.185 HD
HETATM    5  N5  UNL     1       5.443  50.725 112.182  1.00  0.00    -0.206 N
ENDROOT
BRANCH   3   6
HETATM    6  S1  UNL     1       7.767  47.468 111.699  1.00  0.00     0.340 S
HETATM    7  O2  UNL     1       6.965  46.675 112.673  1.00  0.00    -0.182 OA
HETATM    8  O3  UNL     1       9.185  47.541 112.164  1.00  0.00    -0.182 OA
BRANCH   6   9
HETATM    9  N2  UNL     1       7.636  46.704 110.150  1.00  0.00    -0.100 N
ATOM     10  H2  UNL     1       6.826  46.917 109.567  1.00  0.00     0.199 HD
BRANCH   9  11
HETATM   11  C2  UNL     1       8.605  45.797 109.657  1.00  0.00     0.684 C
HETATM   12  N3  UNL     1       8.879  45.745 108.419  1.00  0.00    -0.226 N
HETATM   13  C3  UNL     1       9.860  44.832 107.877  1.00  0.00     0.139 C
ATOM     14  H3  UNL     1       8.389  46.372 107.782  1.00  0.00     0.177 HD
HETATM   15  C4  UNL     1      10.946  44.498 108.878  1.00  0.00     0.040 C
HETATM   16  C5  UNL     1      10.246  43.957 110.112  1.00  0.00     0.139 C
HETATM   17  N4  UNL     1       9.275  44.932 110.563  1.00  0.00    -0.226 N
ATOM     18  H4  UNL     1       9.067  45.001 111.559  1.00  0.00     0.177 HD
ENDBRANCH   9  11
ENDBRANCH   6   9
ENDBRANCH   3   6
BRANCH   5  19
HETATM   19  O4  UNL     1       4.374  51.046 112.978  1.00  0.00    -0.283 OA
ATOM     20  H4  UNL     1       3.642  50.443 113.029  1.00  0.00     0.245 HD
ENDBRANCH   5  19
BRANCH   5  21
HETATM   21  C6  UNL     1       5.966  51.696 111.252  1.00  0.00     0.188 C
BRANCH  21  22
HETATM   22  C7  UNL     1       7.136  52.446 111.784  1.00  0.00    -0.009 C
HETATM   23  C8  UNL     1       8.259  52.526 111.094  1.00  0.00    -0.029 C
BRANCH  23  24
HETATM   24  C9  UNL     1       9.466  53.258 111.567  1.00  0.00     0.031 C
BRANCH  24  25
HETATM   25  C10 UNL     1       9.633  54.487 110.750  1.00  0.00    -0.011 C
HETATM   26  C11 UNL     1      10.925  55.239 110.832  1.00  0.00     0.005 C
HETATM   27  C12 UNL     1      10.083  56.510 110.599  1.00  0.00     0.001 C
HETATM   28  C13 UNL     1       8.984  55.745 111.360  1.00  0.00     0.005 C
ENDBRANCH  24  25
ENDBRANCH  23  24
ENDBRANCH  21  22
ENDBRANCH   5  21
TORSDOF 8
ENDMDL