MODEL 5
REMARK VINA RESULT: -7.948385585      2.122      5.584
REMARK  8 active torsions:
REMARK  status: ('A' for Active; 'I' for Inactive)
REMARK    1  A    between atoms: C2_2  and  C3_3
REMARK    2  A    between atoms: C6_8  and  O3_9
REMARK    3  A    between atoms: O3_9  and  C7_10
REMARK    4  A    between atoms: C12_15  and  O4_16
REMARK    5  A    between atoms: O4_16  and  C13_17
REMARK    6  A    between atoms: C15_19  and  O5_20
REMARK    7  A    between atoms: C16_22  and  C17_23
REMARK    8  A    between atoms: C17_23  and  O6_24
ROOT
HETATM    1  C1  UNL     1       7.012  47.405 111.152  1.00  0.00     0.029 C
HETATM    2  C2  UNL     1       7.807  48.697 111.224  1.00  0.00     0.073 C
HETATM    3  C4  UNL     1       8.257  49.146 109.876  1.00  0.00     0.025 C
HETATM    4  C5  UNL     1       7.049  49.884 109.344  1.00  0.00     0.036 C
HETATM    5  C6  UNL     1       6.322  50.428 110.520  1.00  0.00     0.152 C
HETATM    6  C12 UNL     1       6.961  49.797 111.747  1.00  0.00     0.172 C
ENDROOT
BRANCH   6   7
HETATM    7  O4  UNL     1       5.975  49.258 112.581  1.00  0.00    -0.352 OA
BRANCH   7   8
HETATM    8  C13 UNL     1       4.776  49.921 112.509  1.00  0.00     0.263 C
HETATM    9  C14 UNL     1       4.542  50.920 113.607  1.00  0.00     0.095 C
HETATM   10  C15 UNL     1       3.007  50.903 113.668  1.00  0.00     0.154 C
HETATM   11  C16 UNL     1       2.787  49.418 113.454  1.00  0.00     0.177 C
HETATM   12  O7  UNL     1       3.734  49.001 112.565  1.00  0.00    -0.351 OA
BRANCH  10  13
HETATM   13  O5  UNL     1       2.528  51.361 114.868  1.00  0.00    -0.393 OA
ATOM     14  H5  UNL     1       2.789  50.808 115.595  1.00  0.00     0.210 HD
ENDBRANCH  10  13
BRANCH  11  15
HETATM   15  C17 UNL     1       1.371  49.123 113.055  1.00  0.00     0.198 C
BRANCH  15  16
HETATM   16  O6  UNL     1       1.287  48.756 111.733  1.00  0.00    -0.398 OA
ATOM     17  H6  UNL     1       1.489  49.483 111.156  1.00  0.00     0.209 HD
ENDBRANCH  15  16
ENDBRANCH  11  15
ENDBRANCH   7   8
ENDBRANCH   6   7
BRANCH   2  18
HETATM   18  C3  UNL     1       9.003  48.444 112.055  1.00  0.00     0.184 C
HETATM   19  O1  UNL     1       9.636  49.399 112.548  1.00  0.00    -0.647 OA
HETATM   20  O2  UNL     1       9.423  47.150 112.285  1.00  0.00    -0.647 OA
ENDBRANCH   2  18
BRANCH   5  21
HETATM   21  O3  UNL     1       6.425  51.798 110.667  1.00  0.00    -0.378 OA
BRANCH  21  22
HETATM   22  C7  UNL     1       7.469  52.219 111.442  1.00  0.00     0.122 C
HETATM   23  C8  UNL     1       7.014  53.494 112.161  1.00  0.00     0.032 C
HETATM   24  C9  UNL     1       8.093  54.502 111.976  1.00  0.00     0.002 C
HETATM   25  C10 UNL     1       9.265  53.844 111.326  1.00  0.00     0.002 C
HETATM   26  C11 UNL     1       8.711  52.576 110.704  1.00  0.00     0.032 C
ENDBRANCH  21  22
ENDBRANCH   5  21
TORSDOF 8
ENDMDL