MODEL 3
REMARK VINA RESULT: -7.324889357      2.179      3.179
REMARK  9 active torsions:
REMARK  status: ('A' for Active; 'I' for Inactive)
REMARK    1  A    between atoms: C2_2  and  C3_3
REMARK    2  A    between atoms: C3_3  and  N1_4
REMARK    3  A    between atoms: C8_9  and  O1_10
REMARK    4  A    between atoms: O1_10  and  C9_11
REMARK    5  A    between atoms: C12_15  and  O3_16
REMARK    6  A    between atoms: C13_18  and  O4_19
REMARK    7  A    between atoms: C15_22  and  C16_23
REMARK    8  A    between atoms: C16_23  and  C17_24
REMARK    9  A    between atoms: C17_24  and  O5_25
ROOT
HETATM    1  N1  UNL     1      10.586  46.695 106.147  1.00  0.00     0.103 N
HETATM    2  C4  UNL     1      10.746  45.408 105.565  1.00  0.00     0.224 C
HETATM    3  C5  UNL     1       9.484  45.156 104.822  1.00  0.00     0.038 C
HETATM    4  C6  UNL     1       8.536  46.252 105.206  1.00  0.00     0.040 C
HETATM    5  C7  UNL     1       9.189  46.979 106.358  1.00  0.00     0.252 C
HETATM    6  C8  UNL     1       8.623  46.472 107.639  1.00  0.00     0.158 C
HETATM    7  C14 UNL     1       9.072  45.084 108.011  1.00  0.00     0.039 C
HETATM    8  C15 UNL     1      10.562  44.869 107.965  1.00  0.00    -0.008 C
HETATM    9  C18 UNL     1      11.068  44.399 106.644  1.00  0.00     0.040 C
ENDROOT
BRANCH   6  10
HETATM   10  O1  UNL     1       8.806  47.258 108.740  1.00  0.00    -0.351 OA
BRANCH  10  11
HETATM   11  C9  UNL     1       7.684  47.674 109.399  1.00  0.00     0.292 C
HETATM   12  O2  UNL     1       7.574  49.055 109.244  1.00  0.00    -0.351 OA
HETATM   13  C10 UNL     1       8.446  49.571 110.200  1.00  0.00     0.152 C
HETATM   14  C11 UNL     1       8.268  51.037 110.444  1.00  0.00     0.042 C
HETATM   15  C12 UNL     1       7.920  48.837 111.444  1.00  0.00     0.180 C
HETATM   16  C13 UNL     1       7.878  47.422 110.882  1.00  0.00     0.204 C
BRANCH  15  17
HETATM   17  O3  UNL     1       6.617  49.271 111.677  1.00  0.00    -0.390 OA
ATOM     18  H3  UNL     1       6.231  49.497 110.840  1.00  0.00     0.210 HD
ENDBRANCH  15  17
BRANCH  16  19
HETATM   19  O4  UNL     1       6.882  46.667 111.454  1.00  0.00    -0.388 OA
ATOM     20  H4  UNL     1       6.005  46.977 111.263  1.00  0.00     0.210 HD
ENDBRANCH  16  19
ENDBRANCH  10  11
ENDBRANCH   6  10
BRANCH   1  21
HETATM   21  C3  UNL     1      11.218  47.740 105.361  1.00  0.00     0.300 C
BRANCH  21  22
HETATM   22  C2  UNL     1      12.668  47.589 105.251  1.00  0.00    -0.007 C
HETATM   23  C1  UNL     1      13.453  48.648 105.115  1.00  0.00     0.008 C
ENDBRANCH  21  22
ENDBRANCH   1  21
BRANCH   8  24
HETATM   24  C16 UNL     1      10.969  43.977 109.112  1.00  0.00     0.031 C
BRANCH  24  25
HETATM   25  C17 UNL     1      10.047  44.119 110.277  1.00  0.00     0.164 C
BRANCH  25  26
HETATM   26  O5  UNL     1      10.426  45.153 111.135  1.00  0.00    -0.401 OA
ATOM     27  H5  UNL     1       9.683  45.554 111.571  1.00  0.00     0.209 HD
ENDBRANCH  25  26
ENDBRANCH  24  25
ENDBRANCH   8  24
TORSDOF 9
ENDMDL