MODEL 4
REMARK VINA RESULT: -6.734924215      3.542      7.704
REMARK  4 active torsions:
REMARK  status: ('A' for Active; 'I' for Inactive)
REMARK    1  A    between atoms: C2_2  and  C3_3
REMARK       I    between atoms: C3_3  and  N1_5
REMARK    2  A    between atoms: N1_5  and  C4_7
REMARK    3  A    between atoms: C6_13  and  N4_14
REMARK    4  A    between atoms: C11_22  and  N6_23
ROOT
HETATM    1  C4  UNL     1      10.699   0.397  -4.191  1.00  0.00     0.701 A
HETATM    2  N2  UNL     1      10.069  -0.131  -3.133  1.00  0.00    -0.131 N
ATOM      3  H2  UNL     1       9.129  -0.506  -3.260  1.00  0.00     0.205 HD
HETATM    4  N3  UNL     1      10.616  -0.186  -1.929  1.00  0.00    -0.280 N
ATOM      5  H3  UNL     1      10.087  -0.600  -1.162  1.00  0.00     0.188 HD
HETATM    6  C5  UNL     1      11.858   0.292  -1.691  1.00  0.00     0.138 A
HETATM    7  C6  UNL     1      12.467   0.260  -0.469  1.00  0.00     0.151 A
HETATM    8  N5  UNL     1      13.731   0.757  -0.276  1.00  0.00    -0.174 N
ATOM      9  H5  UNL     1      14.174   0.726   0.643  1.00  0.00     0.186 HD
HETATM   10  C11 UNL     1      14.371   1.289  -1.335  1.00  0.00     0.679 A
HETATM   11  N7  UNL     1      13.775   1.322  -2.535  1.00  0.00    -0.174 N
ATOM     12  H7  UNL     1      14.285   1.731  -3.319  1.00  0.00     0.186 HD
HETATM   13  C12 UNL     1      12.541   0.844  -2.756  1.00  0.00     0.168 A
HETATM   14  N8  UNL     1      11.955   0.884  -3.967  1.00  0.00    -0.172 N
ATOM     15  H8  UNL     1      12.468   1.295  -4.747  1.00  0.00     0.186 HD
ENDROOT
BRANCH   1  16
HETATM   16  N1  UNL     1      10.132   0.462  -5.492  1.00  0.00    -0.155 N
HETATM   17  C3  UNL     1      10.788  -0.000  -6.644  1.00  0.00     0.258 C
HETATM   18  O1  UNL     1      11.956  -0.521  -6.590  1.00  0.00    -0.268 OA
ATOM     19  H1  UNL     1       9.201   0.865  -5.594  1.00  0.00     0.187 HD
BRANCH  17  20
HETATM   20  C2  UNL     1      10.173   0.090  -7.956  1.00  0.00     0.065 C
HETATM   21  C1  UNL     1       9.717  -0.987  -8.588  1.00  0.00     0.017 C
ENDBRANCH  17  20
ENDBRANCH   1  16
BRANCH   7  22
HETATM   22  N4  UNL     1      11.774  -0.313   0.616  1.00  0.00    -0.361 N
HETATM   23  C7  UNL     1      12.343  -1.442   1.306  1.00  0.00     0.150 C
HETATM   24  C8  UNL     1      11.564  -1.627   2.620  1.00  0.00     0.187 C
HETATM   25  O2  UNL     1      10.242  -1.892   2.325  1.00  0.00    -0.388 OA
HETATM   26  C9  UNL     1       9.626  -0.962   1.537  1.00  0.00     0.187 C
HETATM   27  C10 UNL     1      10.495   0.177   1.075  1.00  0.00     0.150 C
ENDBRANCH   7  22
BRANCH  10  28
HETATM   28  N6  UNL     1      15.585   1.770  -1.154  1.00  0.00    -0.234 N
ATOM     29  H62 UNL     1      15.854   2.224  -0.280  1.00  0.00     0.174 HD
ATOM     30  H61 UNL     1      16.260   1.679  -1.914  1.00  0.00     0.174 HD
ENDBRANCH  10  28
TORSDOF 4
ENDMDL