MODEL 2
REMARK VINA RESULT: -7.131373374      1.256      1.810
REMARK  4 active torsions:
REMARK  status: ('A' for Active; 'I' for Inactive)
REMARK    1  A    between atoms: C3_5  and  N2_6
REMARK    2  A    between atoms: C4_9  and  N3_10
REMARK    3  A    between atoms: N3_10  and  C5_12
REMARK    4  A    between atoms: C7_22  and  C8_23
ROOT
HETATM    1  C1  UNL     1      13.527  -4.565   1.553  1.00  0.00     0.068 C
HETATM    2  C2  UNL     1      13.194  -3.209   1.080  1.00  0.00     0.014 A
HETATM    3  N1  UNL     1      12.019  -2.628   1.354  1.00  0.00    -0.339 N
ATOM      4  H1  UNL     1      11.328  -3.134   1.907  1.00  0.00     0.167 HD
HETATM    5  C3  UNL     1      11.728  -1.368   0.906  1.00  0.00     0.202 A
HETATM    6  C4  UNL     1      12.644  -0.660   0.154  1.00  0.00     0.102 A
HETATM    7  C7  UNL     1      13.856  -1.235  -0.141  1.00  0.00     0.079 A
HETATM    8  C9  UNL     1      14.119  -2.517   0.331  1.00  0.00    -0.020 A
HETATM    9  C10 UNL     1      15.418  -3.114   0.005  1.00  0.00     0.051 C
ENDROOT
BRANCH   6  10
HETATM   10  N3  UNL     1      12.401   0.652  -0.341  1.00  0.00    -0.334 N
ATOM     11  H3  UNL     1      12.656   1.462   0.223  1.00  0.00     0.168 HD
BRANCH  10  12
HETATM   12  C5  UNL     1      11.854   0.823  -1.512  1.00  0.00     0.174 A
HETATM   13  N4  UNL     1      10.618   0.498  -1.925  1.00  0.00    -0.222 N
HETATM   14  O3  UNL     1      10.490   0.845  -3.164  1.00  0.00    -0.153 OA
ATOM     15  H4  UNL     1       9.899   0.051  -1.356  1.00  0.00     0.198 HD
HETATM   16  N5  UNL     1      11.575   1.390  -3.615  1.00  0.00    -0.222 N
HETATM   17  C6  UNL     1      12.478   1.399  -2.596  1.00  0.00     0.167 A
ATOM     18  H5  UNL     1      11.724   1.747  -4.559  1.00  0.00     0.198 HD
HETATM   19  N6  UNL     1      13.675   1.851  -2.625  1.00  0.00    -0.381 N
ATOM     20  H62 UNL     1      14.351   1.857  -1.862  1.00  0.00     0.157 HD
ATOM     21  H61 UNL     1      14.136   2.278  -3.429  1.00  0.00     0.157 HD
ENDBRANCH  10  12
ENDBRANCH   6  10
BRANCH   5  22
HETATM   22  N2  UNL     1      10.489  -0.738   1.189  1.00  0.00    -0.095 N
HETATM   23  O1  UNL     1      10.413  -0.077   2.240  1.00  0.00    -0.530 OA
HETATM   24  O2  UNL     1       9.416  -0.834   0.364  1.00  0.00    -0.530 OA
ENDBRANCH   5  22
BRANCH   7  25
HETATM   25  C8  UNL     1      14.836  -0.514  -0.930  1.00  0.00     0.212 C
HETATM   26  O4  UNL     1      15.417   0.462  -0.352  1.00  0.00    -0.644 OA
HETATM   27  O5  UNL     1      15.164  -0.813  -2.229  1.00  0.00    -0.644 OA
ENDBRANCH   7  25
TORSDOF 4
ENDMDL