MODEL 5
REMARK VINA RESULT: -6.406782360      1.561      1.877
REMARK  5 active torsions:
REMARK  status: ('A' for Active; 'I' for Inactive)
REMARK    1  A    between atoms: N1_1  and  C1_4
REMARK    2  A    between atoms: C2_9  and  C3_10
REMARK    3  A    between atoms: C3_10  and  C4_11
REMARK    4  A    between atoms: C4_11  and  C5_12
REMARK    5  A    between atoms: C6_17  and  N6_18
ROOT
HETATM    1  C5  UNL     1      10.042   0.329  -4.477  1.00  0.00     0.092 A
HETATM    2  N4  UNL     1       9.012   0.010  -3.702  1.00  0.00    -0.292 N
ATOM      3  H4  UNL     1       8.103  -0.188  -4.121  1.00  0.00     0.187 HD
HETATM    4  N5  UNL     1       9.153  -0.050  -2.450  1.00  0.00    -0.279 N
ATOM      5  H5  UNL     1       8.358  -0.295  -1.858  1.00  0.00     0.189 HD
HETATM    6  C6  UNL     1      10.335   0.206  -1.901  1.00  0.00     0.163 A
HETATM    7  S1  UNL     1      11.271   0.547  -3.289  1.00  0.00    -0.034 SA
ENDROOT
BRANCH   1   8
HETATM    8  C4  UNL     1      10.112   0.457  -5.937  1.00  0.00     0.041 C
BRANCH   8   9
HETATM    9  C3  UNL     1      11.155  -0.041  -6.528  1.00  0.00     0.041 C
BRANCH   9  10
HETATM   10  C2  UNL     1      11.047  -0.304  -7.983  1.00  0.00     0.092 A
HETATM   11  N3  UNL     1      11.886   0.033  -8.949  1.00  0.00    -0.292 N
HETATM   12  N2  UNL     1      11.634  -0.276 -10.154  1.00  0.00    -0.279 N
ATOM     13  H3  UNL     1      12.740   0.545  -8.724  1.00  0.00     0.187 HD
HETATM   14  C1  UNL     1      10.503  -0.946 -10.418  1.00  0.00     0.159 A
ATOM     15  H2  UNL     1      12.277  -0.021 -10.904  1.00  0.00     0.189 HD
HETATM   16  S2  UNL     1       9.824  -1.112  -8.861  1.00  0.00    -0.034 SA
BRANCH  14  17
HETATM   17  N1  UNL     1      10.071  -1.352 -11.591  1.00  0.00    -0.379 N
ATOM     18  H12 UNL     1       9.688  -0.828 -12.379  1.00  0.00     0.158 HD
ATOM     19  H11 UNL     1      10.039  -2.308 -11.942  1.00  0.00     0.158 HD
ENDBRANCH  14  17
ENDBRANCH   9  10
ENDBRANCH   8   9
ENDBRANCH   1   8
BRANCH   6  20
HETATM   20  N6  UNL     1      10.671   0.185  -0.519  1.00  0.00    -0.357 N
HETATM   21  C7  UNL     1      11.963   0.619  -0.067  1.00  0.00     0.144 C
HETATM   22  C8  UNL     1      12.320  -0.174   1.165  1.00  0.00     0.133 C
HETATM   23  N7  UNL     1      11.391  -0.027   2.239  1.00  0.00    -0.418 N
HETATM   24  C9  UNL     1      10.039   0.209   1.847  1.00  0.00     0.133 C
ATOM     25  H7  UNL     1      11.674  -0.086   3.218  1.00  0.00     0.153 HD
HETATM   26  C10 UNL     1       9.711  -0.276   0.458  1.00  0.00     0.144 C
ENDBRANCH   6  20
TORSDOF 5
ENDMDL