MODEL 2
REMARK VINA RESULT: -7.371511723      2.422      8.509
REMARK  7 active torsions:
REMARK  status: ('A' for Active; 'I' for Inactive)
REMARK    1  A    between atoms: N1_1  and  N2_4
REMARK    2  A    between atoms: N2_4  and  N3_5
REMARK    3  A    between atoms: N3_5  and  N4_7
REMARK       I    between atoms: N4_7  and  C1_9
REMARK    4  A    between atoms: C1_9  and  C2_11
REMARK    5  A    between atoms: C3_15  and  N6_16
REMARK    6  A    between atoms: N6_16  and  N7_18
REMARK    7  A    between atoms: N7_18  and  C4_20
ROOT
HETATM    1  C2  UNL     1      10.931   0.194   1.201  1.00  0.00     0.153 A
HETATM    2  N5  UNL     1      11.955   0.744   0.512  1.00  0.00    -0.314 N
ATOM      3  H5  UNL     1      12.769   1.173   0.952  1.00  0.00     0.175 HD
HETATM    4  S1  UNL     1      11.737   0.643  -1.159  1.00  0.00     0.014 SA
HETATM    5  C3  UNL     1      10.267  -0.135  -1.451  1.00  0.00     0.149 A
HETATM    6  S2  UNL     1       9.754  -0.420   0.138  1.00  0.00    -0.038 SA
ENDROOT
BRANCH   5   7
HETATM    7  N6  UNL     1       9.741  -0.403  -2.591  1.00  0.00    -0.272 N
ATOM      8  H6  UNL     1       9.316  -1.313  -2.769  1.00  0.00     0.188 HD
BRANCH   7   9
HETATM    9  N7  UNL     1       9.764   0.576  -3.577  1.00  0.00    -0.129 N
ATOM     10  H7  UNL     1       9.345   1.490  -3.405  1.00  0.00     0.205 HD
BRANCH   9  11
HETATM   11  C4  UNL     1      10.325   0.319  -4.719  1.00  0.00     0.712 A
HETATM   12  N8  UNL     1       9.768   0.186  -5.934  1.00  0.00    -0.184 N
HETATM   13  C5  UNL     1      10.737  -0.080  -6.829  1.00  0.00     0.215 A
ATOM     14  H8  UNL     1       8.773   0.273  -6.144  1.00  0.00     0.185 HD
HETATM   15  N9  UNL     1      11.880  -0.109  -6.162  1.00  0.00    -0.281 N
HETATM   16  N10 UNL     1      11.644   0.130  -4.888  1.00  0.00    -0.130 N
ATOM     17  H9  UNL     1      12.797  -0.289  -6.569  1.00  0.00     0.188 HD
ATOM     18  H10 UNL     1      12.347   0.166  -4.150  1.00  0.00     0.205 HD
ENDBRANCH   9  11
ENDBRANCH   7   9
ENDBRANCH   5   7
BRANCH   1  19
HETATM   19  C1  UNL     1      10.855   0.142   2.659  1.00  0.00     0.296 C
HETATM   20  N4  UNL     1      10.180   1.154   3.393  1.00  0.00    -0.238 N
ATOM     21  H4  UNL     1       9.734   1.938   2.916  1.00  0.00     0.193 HD
HETATM   22  O1  UNL     1      11.399  -0.816   3.265  1.00  0.00    -0.264 OA
BRANCH  20  23
HETATM   23  N3  UNL     1      10.144   1.045   4.782  1.00  0.00    -0.153 N
ATOM     24  H3  UNL     1      10.706   0.335   5.252  1.00  0.00     0.226 HD
BRANCH  23  25
HETATM   25  N2  UNL     1       9.436   1.804   5.441  1.00  0.00    -0.228 NA
BRANCH  25  26
HETATM   26  N1  UNL     1       8.778   2.467   6.220  1.00  0.00    -0.259 N
ATOM     27  H12 UNL     1       9.252   1.928   6.946  1.00  0.00     0.193 HD
ATOM     28  H11 UNL     1       8.176   3.083   6.766  1.00  0.00     0.193 HD
ENDBRANCH  25  26
ENDBRANCH  23  25
ENDBRANCH  20  23
ENDBRANCH   1  19
TORSDOF 7
ENDMDL