MODEL 4
REMARK VINA RESULT: -6.536384269      3.402      6.262
REMARK  6 active torsions:
REMARK  status: ('A' for Active; 'I' for Inactive)
REMARK       I    between atoms: C2_2  and  N1_4
REMARK    1  A    between atoms: N1_4  and  N2_6
REMARK    2  A    between atoms: N2_6  and  C3_8
REMARK    3  A    between atoms: C3_8  and  C5_10
REMARK    4  A    between atoms: N3_13  and  C7_14
REMARK    5  A    between atoms: C8_19  and  N6_20
REMARK    6  A    between atoms: C9_24  and  O2_25
ROOT
HETATM    1  C5  UNL     1      11.534  -0.819   0.186  1.00  0.00     0.047 A
HETATM    2  C6  UNL     1      11.909  -2.111   0.444  1.00  0.00     0.086 A
HETATM    3  S1  UNL     1      13.613  -2.024   0.360  1.00  0.00    -0.014 SA
HETATM    4  N3  UNL     1      13.773  -0.395   0.012  1.00  0.00    -0.238 N
HETATM    5  C9  UNL     1      12.531   0.067  -0.037  1.00  0.00     0.168 A
ENDROOT
BRANCH   4   6
HETATM    6  C7  UNL     1      15.026   0.291  -0.181  1.00  0.00     0.181 A
HETATM    7  N4  UNL     1      15.248   1.561  -0.473  1.00  0.00    -0.277 N
HETATM    8  N5  UNL     1      16.434   1.994  -0.606  1.00  0.00    -0.278 N
ATOM      9  H4  UNL     1      14.460   2.197  -0.592  1.00  0.00     0.189 HD
HETATM   10  C8  UNL     1      17.450   1.139  -0.445  1.00  0.00     0.160 A
ATOM     11  H5  UNL     1      16.608   2.973  -0.832  1.00  0.00     0.189 HD
HETATM   12  S2  UNL     1      16.621  -0.316  -0.094  1.00  0.00    -0.014 SA
BRANCH  10  13
HETATM   13  N6  UNL     1      18.740   1.369  -0.537  1.00  0.00    -0.378 N
ATOM     14  H62 UNL     1      19.528   0.747  -0.357  1.00  0.00     0.158 HD
ATOM     15  H61 UNL     1      19.217   2.228  -0.811  1.00  0.00     0.158 HD
ENDBRANCH  10  13
ENDBRANCH   4   6
BRANCH   5  16
HETATM   16  O2  UNL     1      12.362   1.333  -0.297  1.00  0.00    -0.345 OA
ATOM     17  H2  UNL     1      13.027   2.003  -0.197  1.00  0.00     0.219 HD
ENDBRANCH   5  16
BRANCH   1  18
HETATM   18  C3  UNL     1      10.093  -0.434   0.161  1.00  0.00     0.037 C
HETATM   19  C4  UNL     1       9.386  -0.008   1.375  1.00  0.00     0.070 C
BRANCH  18  20
HETATM   20  N2  UNL     1       9.430  -0.467  -0.941  1.00  0.00    -0.302 N
ATOM     21  H2  UNL     1       8.593  -1.049  -0.975  1.00  0.00     0.186 HD
BRANCH  20  22
HETATM   22  N1  UNL     1       9.770   0.226  -2.072  1.00  0.00    -0.270 N
HETATM   23  C2  UNL     1       9.528  -0.314  -3.359  1.00  0.00     0.232 C
HETATM   24  C1  UNL     1       9.897   0.438  -4.581  1.00  0.00     0.119 C
HETATM   25  O1  UNL     1       8.991  -1.450  -3.468  1.00  0.00    -0.272 OA
ATOM     26  H1  UNL     1      10.204   1.146  -1.986  1.00  0.00     0.190 HD
ENDBRANCH  20  22
ENDBRANCH  18  20
ENDBRANCH   1  18
TORSDOF 6
ENDMDL