MODEL 1
REMARK VINA RESULT: -7.233851646      0.000      0.000
REMARK  4 active torsions:
REMARK  status: ('A' for Active; 'I' for Inactive)
REMARK    1  A    between atoms: C5_8  and  C6_9
REMARK       I    between atoms: C6_9  and  N3_11
REMARK    2  A    between atoms: N3_11  and  N4_13
REMARK    3  A    between atoms: C7_15  and  C8_16
REMARK    4  A    between atoms: C9_22  and  N7_23
ROOT
HETATM    1  C1  UNL     1      12.246   0.297   0.443  1.00  0.00     0.070 C
HETATM    2  C2  UNL     1      11.778   0.339  -0.986  1.00  0.00     0.028 A
HETATM    3  N1  UNL     1      10.591  -0.191  -1.331  1.00  0.00    -0.348 N
ATOM      4  H1  UNL     1      10.004  -0.623  -0.618  1.00  0.00     0.166 HD
HETATM    5  C3  UNL     1      10.163  -0.153  -2.633  1.00  0.00     0.146 A
HETATM    6  C4  UNL     1       8.895  -0.723  -2.980  1.00  0.00     0.120 C
HETATM    7  N2  UNL     1       7.847  -1.198  -3.238  1.00  0.00    -0.190 NA
HETATM    8  C5  UNL     1      10.986   0.437  -3.551  1.00  0.00     0.140 A
HETATM    9  N8  UNL     1      12.192   0.974  -3.194  1.00  0.00    -0.351 N
ATOM     10  H8  UNL     1      12.784   1.408  -3.903  1.00  0.00     0.166 HD
HETATM   11  C10 UNL     1      12.600   0.931  -1.919  1.00  0.00     0.028 A
HETATM   12  C11 UNL     1      13.899   1.496  -1.469  1.00  0.00     0.070 C
ENDROOT
BRANCH   8  13
HETATM   13  C6  UNL     1      10.571   0.498  -4.947  1.00  0.00     0.289 C
HETATM   14  O1  UNL     1       9.567   1.150  -5.332  1.00  0.00    -0.264 OA
HETATM   15  N3  UNL     1      11.332  -0.210  -5.928  1.00  0.00    -0.265 N
ATOM     16  H3  UNL     1      12.149  -0.743  -5.631  1.00  0.00     0.190 HD
BRANCH  15  17
HETATM   17  N4  UNL     1      10.991  -0.195  -7.278  1.00  0.00    -0.307 N
HETATM   18  C7  UNL     1      11.747  -0.725  -8.192  1.00  0.00     0.142 C
ATOM     19  H4  UNL     1      10.116   0.248  -7.559  1.00  0.00     0.186 HD
BRANCH  18  20
HETATM   20  C8  UNL     1      11.370  -0.698  -9.599  1.00  0.00     0.118 A
HETATM   21  N5  UNL     1      10.373  -1.364 -10.194  1.00  0.00    -0.237 N
HETATM   22  O2  UNL     1      10.367  -1.065 -11.476  1.00  0.00    -0.155 OA
ATOM     23  H5  UNL     1       9.725  -2.000  -9.730  1.00  0.00     0.197 HD
HETATM   24  N6  UNL     1      11.328  -0.224 -11.736  1.00  0.00    -0.224 N
HETATM   25  C9  UNL     1      11.976   0.032 -10.599  1.00  0.00     0.151 A
ATOM     26  H6  UNL     1      11.547   0.171 -12.651  1.00  0.00     0.198 HD
BRANCH  25  27
HETATM   27  N7  UNL     1      12.996   0.826 -10.462  1.00  0.00    -0.382 N
ATOM     28  H72 UNL     1      13.329   1.227  -9.586  1.00  0.00     0.157 HD
ATOM     29  H71 UNL     1      13.606   1.160 -11.208  1.00  0.00     0.157 HD
ENDBRANCH  25  27
ENDBRANCH  18  20
ENDBRANCH  15  17
ENDBRANCH   8  13
TORSDOF 4
ENDMDL