MODEL 3
REMARK VINA RESULT: -6.568810639      2.401      3.898
REMARK  6 active torsions:
REMARK  status: ('A' for Active; 'I' for Inactive)
REMARK    1  A    between atoms: C2_2  and  C4_4
REMARK    2  A    between atoms: C2_2  and  O3_12
REMARK    3  A    between atoms: C4_4  and  O1_5
REMARK    4  A    between atoms: O1_5  and  C5_6
REMARK    5  A    between atoms: C5_6  and  C6_8
REMARK    6  A    between atoms: O3_12  and  C10_13
REMARK       I    between atoms: C10_13  and  N1_15
ROOT
HETATM    1  C10 UNL     1      12.585   1.459  -1.496  1.00  0.00     0.400 C
HETATM    2  O4  UNL     1      12.208   1.644  -2.679  1.00  0.00    -0.235 OA
HETATM    3  N1  UNL     1      11.629   0.951  -0.537  1.00  0.00    -0.120 N
HETATM    4  N2  UNL     1      12.003   0.730   0.793  1.00  0.00    -0.284 N
ATOM      5  H2  UNL     1      12.853   1.180   1.131  1.00  0.00     0.188 HD
HETATM    6  C11 UNL     1      11.341  -0.008   1.620  1.00  0.00     0.158 C
HETATM    7  C12 UNL     1      10.129  -0.643   1.116  1.00  0.00     0.129 C
HETATM    8  N3  UNL     1       9.421  -1.393   1.891  1.00  0.00    -0.384 N
ATOM      9  H31 UNL     1       8.573  -1.838   1.539  1.00  0.00     0.157 HD
ATOM     10  H32 UNL     1       9.673  -1.569   2.864  1.00  0.00     0.157 HD
HETATM   11  N4  UNL     1       9.778  -0.397  -0.238  1.00  0.00    -0.267 N
ATOM     12  H4  UNL     1       9.110  -1.012  -0.703  1.00  0.00     0.186 HD
HETATM   13  N5  UNL     1      10.340   0.686  -0.950  1.00  0.00     0.007 NA
ENDROOT
BRANCH   1  14
HETATM   14  O3  UNL     1      13.873   1.741  -1.156  1.00  0.00    -0.289 OA
BRANCH  14  15
HETATM   15  C2  UNL     1      15.008   0.895  -1.343  1.00  0.00     0.087 C
HETATM   16  C1  UNL     1      16.057   1.510  -0.404  1.00  0.00     0.048 C
HETATM   17  C3  UNL     1      14.791  -0.513  -0.909  1.00  0.00     0.048 C
BRANCH  15  18
HETATM   18  C4  UNL     1      15.503   0.942  -2.746  1.00  0.00     0.216 C
BRANCH  18  19
HETATM   19  O1  UNL     1      15.151  -0.034  -3.625  1.00  0.00    -0.318 OA
BRANCH  19  20
HETATM   20  C5  UNL     1      15.726  -1.003  -4.330  1.00  0.00     0.266 C
HETATM   21  O2  UNL     1      16.351  -1.914  -3.753  1.00  0.00    -0.264 OA
BRANCH  20  22
HETATM   22  C6  UNL     1      15.614  -0.988  -5.837  1.00  0.00     0.037 C
HETATM   23  C7  UNL     1      14.165  -0.842  -6.243  1.00  0.00     0.025 C
HETATM   24  C8  UNL     1      16.505   0.050  -6.433  1.00  0.00     0.025 C
HETATM   25  C9  UNL     1      16.060  -2.368  -6.289  1.00  0.00     0.025 C
ENDBRANCH  20  22
ENDBRANCH  19  20
ENDBRANCH  18  19
ENDBRANCH  15  18
ENDBRANCH  14  15
ENDBRANCH   1  14
TORSDOF 6
ENDMDL