MODEL 4
REMARK VINA RESULT: -6.703667048      1.872      4.300
REMARK  7 active torsions:
REMARK  status: ('A' for Active; 'I' for Inactive)
REMARK    1  A    between atoms: O1_2  and  C2_3
REMARK    2  A    between atoms: C3_4  and  C4_5
REMARK    3  A    between atoms: C5_6  and  O2_7
REMARK    4  A    between atoms: C10_15  and  C11_16
REMARK    5  A    between atoms: C11_16  and  O5_17
REMARK    6  A    between atoms: C11_16  and  O6_19
REMARK    7  A    between atoms: N1_22  and  O8_23
ROOT
HETATM    1  C2  UNL     1      11.039  -0.745   1.171  1.00  0.00     0.209 A
HETATM    2  C3  UNL     1      11.964  -0.442   0.196  1.00  0.00     0.074 A
HETATM    3  C10 UNL     1      11.350   0.371  -0.730  1.00  0.00     0.149 A
HETATM    4  O7  UNL     1      10.120   0.529  -0.304  1.00  0.00    -0.206 OA
HETATM    5  N1  UNL     1       9.915  -0.111   0.801  1.00  0.00    -0.096 N
ENDROOT
BRANCH   2   6
HETATM    6  C4  UNL     1      13.332  -0.892   0.146  1.00  0.00     0.075 A
HETATM    7  C5  UNL     1      13.745  -2.202   0.204  1.00  0.00     0.197 A
HETATM    8  O3  UNL     1      15.060  -2.223   0.130  1.00  0.00    -0.289 OA
HETATM    9  C6  UNL     1      15.526  -1.016   0.028  1.00  0.00     0.092 A
HETATM   10  C7  UNL     1      14.473  -0.129   0.033  1.00  0.00     0.114 A
HETATM   11  C9  UNL     1      16.783  -0.200  -0.095  1.00  0.00     0.095 C
HETATM   12  O4  UNL     1      14.993   1.172  -0.078  1.00  0.00    -0.347 OA
HETATM   13  C8  UNL     1      16.210   1.032  -0.790  1.00  0.00     0.182 C
BRANCH   7  14
HETATM   14  O2  UNL     1      13.013  -3.374   0.320  1.00  0.00    -0.340 OA
ATOM     15  H2  UNL     1      12.793  -3.892   1.086  1.00  0.00     0.220 HD
ENDBRANCH   7  14
ENDBRANCH   2   6
BRANCH   1  16
HETATM   16  O1  UNL     1      11.223  -1.545   2.312  1.00  0.00    -0.337 OA
HETATM   17  C1  UNL     1      11.380  -0.979   3.598  1.00  0.00     0.212 C
ENDBRANCH   1  16
BRANCH   3  18
HETATM   18  C11 UNL     1      11.936   0.967  -1.974  1.00  0.00     0.316 C
BRANCH  18  19
HETATM   19  O5  UNL     1      12.655   2.121  -1.716  1.00  0.00    -0.365 OA
ATOM     20  H5  UNL     1      13.421   2.202  -2.274  1.00  0.00     0.213 HD
ENDBRANCH  18  19
BRANCH  18  21
HETATM   21  O6  UNL     1      10.997   1.113  -2.975  1.00  0.00    -0.365 OA
ATOM     22  H6  UNL     1      11.352   0.913  -3.833  1.00  0.00     0.213 HD
ENDBRANCH  18  21
ENDBRANCH   3  18
BRANCH   5  23
HETATM   23  O8  UNL     1       8.747  -0.162   1.519  1.00  0.00    -0.261 OA
ATOM     24  H8  UNL     1       8.716  -0.297   2.459  1.00  0.00     0.247 HD
ENDBRANCH   5  23
TORSDOF 7
ENDMDL