MODEL 4
REMARK VINA RESULT: -6.444172945      0.935      1.215
REMARK  6 active torsions:
REMARK  status: ('A' for Active; 'I' for Inactive)
REMARK       I    between atoms: C2_2  and  N1_4
REMARK    1  A    between atoms: N1_4  and  C3_6
REMARK    2  A    between atoms: C4_7  and  O2_8
REMARK    3  A    between atoms: C5_10  and  C6_11
REMARK    4  A    between atoms: C6_11  and  O4_13
REMARK    5  A    between atoms: O4_13  and  C7_14
REMARK    6  A    between atoms: C12_21  and  O6_22
ROOT
HETATM    1  C3  UNL     1      12.527   1.116  -2.300  1.00  0.00     0.121 A
HETATM    2  C4  UNL     1      12.579   0.839  -0.923  1.00  0.00     0.118 A
HETATM    3  C5  UNL     1      11.514   0.252  -0.289  1.00  0.00     0.143 A
HETATM    4  C10 UNL     1      10.403  -0.044  -1.088  1.00  0.00     0.268 A
HETATM    5  O5  UNL     1       9.419  -0.589  -0.494  1.00  0.00    -0.267 OA
HETATM    6  N2  UNL     1      10.343   0.215  -2.401  1.00  0.00    -0.296 N
HETATM    7  C11 UNL     1       9.164  -0.114  -3.178  1.00  0.00     0.161 C
HETATM    8  C12 UNL     1      11.401   0.794  -3.012  1.00  0.00     0.175 A
ENDROOT
BRANCH   3   9
HETATM    9  C6  UNL     1      11.482  -0.072   1.138  1.00  0.00     0.302 C
HETATM   10  O3  UNL     1      10.630   0.518   1.895  1.00  0.00    -0.259 OA
BRANCH   9  11
HETATM   11  O4  UNL     1      12.290  -0.964   1.779  1.00  0.00    -0.313 OA
BRANCH  11  12
HETATM   12  C7  UNL     1      12.152  -2.358   1.739  1.00  0.00     0.124 C
HETATM   13  C8  UNL     1      10.691  -2.775   1.817  1.00  0.00     0.040 C
HETATM   14  C9  UNL     1      12.849  -2.996   0.579  1.00  0.00     0.040 C
ENDBRANCH  11  12
ENDBRANCH   9  11
ENDBRANCH   3   9
BRANCH   2  15
HETATM   15  O2  UNL     1      13.727   1.188  -0.294  1.00  0.00    -0.357 OA
ATOM     16  H2  UNL     1      13.781   0.957   0.625  1.00  0.00     0.217 HD
ENDBRANCH   2  15
BRANCH   1  17
HETATM   17  N1  UNL     1      13.611   1.722  -2.982  1.00  0.00    -0.322 N
HETATM   18  C2  UNL     1      14.797   0.981  -3.210  1.00  0.00     0.218 C
HETATM   19  C1  UNL     1      15.929   1.621  -3.924  1.00  0.00     0.117 C
HETATM   20  O1  UNL     1      14.889  -0.198  -2.814  1.00  0.00    -0.274 OA
ATOM     21  H1  UNL     1      13.538   2.686  -3.308  1.00  0.00     0.169 HD
ENDBRANCH   1  17
BRANCH   8  22
HETATM   22  O6  UNL     1      11.302   1.046  -4.364  1.00  0.00    -0.344 OA
ATOM     23  H6  UNL     1      11.330   1.929  -4.711  1.00  0.00     0.219 HD
ENDBRANCH   8  22
TORSDOF 6
ENDMDL