MODEL 5
REMARK VINA RESULT: -6.690548336      3.323      4.234
REMARK  4 active torsions:
REMARK  status: ('A' for Active; 'I' for Inactive)
REMARK    1  A    between atoms: O1_2  and  N1_3
REMARK    2  A    between atoms: C2_5  and  C4_7
REMARK    3  A    between atoms: N2_8  and  N3_10
REMARK    4  A    between atoms: N3_10  and  C5_12
ROOT
HETATM    1  C5  UNL     1      11.016   0.750  -0.858  1.00  0.00     0.700 A
HETATM    2  N4  UNL     1      10.811   0.792  -2.168  1.00  0.00    -0.153 N
ATOM      3  H4  UNL     1       9.848   0.719  -2.495  1.00  0.00     0.187 HD
HETATM    4  C6  UNL     1      11.767   0.923  -3.095  1.00  0.00     0.289 A
HETATM    5  O2  UNL     1      11.413   0.946  -4.296  1.00  0.00    -0.265 OA
HETATM    6  C7  UNL     1      13.114   1.029  -2.699  1.00  0.00     0.138 A
HETATM    7  N5  UNL     1      14.172   1.162  -3.476  1.00  0.00    -0.335 N
ATOM      8  H5  UNL     1      14.073   1.199  -4.491  1.00  0.00     0.167 HD
HETATM    9  C8  UNL     1      15.374   1.248  -2.903  1.00  0.00     0.145 A
HETATM   10  S1  UNL     1      16.840   1.418  -3.658  1.00  0.00    -0.052 SA
HETATM   11  S2  UNL     1      15.014   1.136  -1.240  1.00  0.00    -0.040 SA
HETATM   12  C9  UNL     1      13.320   0.986  -1.353  1.00  0.00     0.125 A
HETATM   13  N6  UNL     1      12.305   0.850  -0.444  1.00  0.00    -0.181 N
ATOM     14  H6  UNL     1      12.519   0.824   0.553  1.00  0.00     0.185 HD
ENDROOT
BRANCH   1  15
HETATM   15  N3  UNL     1      10.066   0.623  -0.008  1.00  0.00    -0.132 N
ATOM     16  H3  UNL     1       9.645   1.475   0.362  1.00  0.00     0.205 HD
BRANCH  15  17
HETATM   17  N2  UNL     1       9.576  -0.577   0.438  1.00  0.00    -0.296 N
HETATM   18  C4  UNL     1       9.640  -0.909   1.671  1.00  0.00     0.134 C
ATOM     19  H2  UNL     1       9.150  -1.220  -0.229  1.00  0.00     0.186 HD
BRANCH  18  20
HETATM   20  C2  UNL     1      10.219  -0.082   2.713  1.00  0.00     0.045 C
HETATM   21  N1  UNL     1       9.662   1.010   3.036  1.00  0.00    -0.270 N
ATOM     22  H1  UNL     1       8.811   1.258   2.531  1.00  0.00     0.194 HD
HETATM   23  C3  UNL     1      11.475  -0.561   3.377  1.00  0.00     0.071 C
BRANCH  21  24
HETATM   24  O1  UNL     1      10.087   1.881   3.985  1.00  0.00    -0.285 OA
HETATM   25  C1  UNL     1       9.377   2.183   5.158  1.00  0.00     0.237 C
ENDBRANCH  21  24
ENDBRANCH  18  20
ENDBRANCH  15  17
ENDBRANCH   1  15
TORSDOF 4
ENDMDL