MODEL 3
REMARK VINA RESULT: -7.259871898      4.415      8.242
REMARK  8 active torsions:
REMARK  status: ('A' for Active; 'I' for Inactive)
REMARK    1  A    between atoms: C2_2  and  O1_3
REMARK    2  A    between atoms: O1_3  and  C3_4
REMARK    3  A    between atoms: C5_11  and  C6_12
REMARK    4  A    between atoms: N4_13  and  N5_15
REMARK    5  A    between atoms: N5_15  and  C7_17
REMARK    6  A    between atoms: C8_20  and  S1_21
REMARK    7  A    between atoms: S1_21  and  N7_22
REMARK    8  A    between atoms: C9_29  and  N9_30
ROOT
HETATM    1  C7  UNL     1      18.801 -29.992  18.940  1.00  0.00     0.713 A
HETATM    2  N6  UNL     1      19.906 -30.224  19.669  1.00  0.00    -0.162 N
ATOM      3  H6  UNL     1      19.819 -30.397  20.670  1.00  0.00     0.186 HD
HETATM    4  C8  UNL     1      21.134 -30.231  19.096  1.00  0.00     0.252 A
HETATM    5  N8  UNL     1      21.176 -29.995  17.775  1.00  0.00    -0.164 N
ATOM      6  H8  UNL     1      22.084 -29.993  17.311  1.00  0.00     0.186 HD
HETATM    7  C9  UNL     1      20.074 -29.762  17.033  1.00  0.00     0.692 A
HETATM    8  N10 UNL     1      18.870 -29.759  17.619  1.00  0.00    -0.021 N
ATOM      9  H10 UNL     1      18.024 -29.584  17.076  1.00  0.00     0.203 HD
ENDROOT
BRANCH   1  10
HETATM   10  N5  UNL     1      17.639 -29.987  19.496  1.00  0.00    -0.132 N
ATOM     11  H5  UNL     1      17.411 -30.755  20.127  1.00  0.00     0.205 HD
BRANCH  10  12
HETATM   12  N4  UNL     1      16.683 -29.017  19.298  1.00  0.00    -0.297 N
HETATM   13  C6  UNL     1      16.621 -27.963  20.024  1.00  0.00     0.127 C
ATOM     14  H4  UNL     1      16.003 -29.141  18.549  1.00  0.00     0.186 HD
BRANCH  13  15
HETATM   15  C5  UNL     1      15.587 -26.943  19.787  1.00  0.00     0.075 A
HETATM   16  C3  UNL     1      15.311 -26.265  18.633  1.00  0.00     0.172 A
HETATM   17  N1  UNL     1      14.294 -25.441  18.883  1.00  0.00    -0.278 N
HETATM   18  N2  UNL     1      13.909 -25.560  20.132  1.00  0.00    -0.285 N
ATOM     19  H1  UNL     1      13.874 -24.809  18.201  1.00  0.00     0.189 HD
HETATM   20  C4  UNL     1      14.681 -26.479  20.734  1.00  0.00     0.146 A
ATOM     21  H2  UNL     1      13.150 -25.041  20.572  1.00  0.00     0.188 HD
HETATM   22  N3  UNL     1      14.656 -26.956  22.075  1.00  0.00    -0.080 NA
BRANCH  16  23
HETATM   23  O1  UNL     1      15.960 -26.402  17.432  1.00  0.00    -0.334 OA
BRANCH  23  24
HETATM   24  C2  UNL     1      15.760 -27.490  16.550  1.00  0.00     0.173 C
HETATM   25  C1  UNL     1      16.869 -27.649  15.561  1.00  0.00     0.034 C
ENDBRANCH  23  24
ENDBRANCH  16  23
ENDBRANCH  13  15
ENDBRANCH  10  12
ENDBRANCH   1  10
BRANCH   4  26
HETATM   26  S1  UNL     1      22.592 -30.530  20.025  1.00  0.00     0.289 S
HETATM   27  O2  UNL     1      23.499 -31.360  19.189  1.00  0.00    -0.198 OA
HETATM   28  O3  UNL     1      23.237 -29.214  20.346  1.00  0.00    -0.198 OA
BRANCH  26  29
HETATM   29  N7  UNL     1      22.183 -31.318  21.508  1.00  0.00    -0.322 N
ATOM     30  H72 UNL     1      22.574 -31.073  22.418  1.00  0.00     0.169 HD
ATOM     31  H71 UNL     1      21.500 -32.053  21.327  1.00  0.00     0.169 HD
ENDBRANCH  26  29
ENDBRANCH   4  26
BRANCH   7  32
HETATM   32  N9  UNL     1      20.147 -29.538  15.760  1.00  0.00    -0.234 N
ATOM     33  H92 UNL     1      20.647 -30.205  15.173  1.00  0.00     0.174 HD
ATOM     34  H91 UNL     1      19.717 -28.716  15.336  1.00  0.00     0.174 HD
ENDBRANCH   7  32
TORSDOF 8
ENDMDL