MODEL 4
REMARK VINA RESULT: -7.353201370      3.345      8.703
REMARK  8 active torsions:
REMARK  status: ('A' for Active; 'I' for Inactive)
REMARK    1  A    between atoms: C3_7  and  C4_8
REMARK    2  A    between atoms: C4_8  and  N3_9
REMARK    3  A    between atoms: N3_9  and  N4_11
REMARK    4  A    between atoms: N4_11  and  C5_13
REMARK    5  A    between atoms: C6_16  and  N6_17
REMARK    6  A    between atoms: C9_24  and  N8_25
REMARK    7  A    between atoms: C10_30  and  N10_31
REMARK    8  A    between atoms: N10_31  and  C11_33
ROOT
HETATM    1  C5  UNL     1      16.209 -27.268  19.229  1.00  0.00     0.153 A
HETATM    2  N5  UNL     1      17.181 -27.897  19.885  1.00  0.00    -0.174 N
ATOM      3  H5  UNL     1      18.057 -28.092  19.401  1.00  0.00     0.186 HD
HETATM    4  C6  UNL     1      17.042 -28.288  21.174  1.00  0.00     0.679 A
HETATM    5  N7  UNL     1      15.907 -28.063  21.883  1.00  0.00    -0.175 N
ATOM      6  H7  UNL     1      15.831 -28.368  22.854  1.00  0.00     0.186 HD
HETATM    7  C7  UNL     1      14.885 -27.429  21.280  1.00  0.00     0.156 A
HETATM    8  C8  UNL     1      15.033 -27.030  19.952  1.00  0.00     0.099 A
HETATM    9  C9  UNL     1      14.011 -26.384  19.298  1.00  0.00     0.132 A
HETATM   10  N9  UNL     1      12.904 -26.167  19.985  1.00  0.00    -0.176 N
ATOM     11  H9  UNL     1      12.131 -25.688  19.521  1.00  0.00     0.186 HD
HETATM   12  C10 UNL     1      12.739 -26.556  21.308  1.00  0.00     0.689 A
HETATM   13  N11 UNL     1      13.731 -27.190  21.961  1.00  0.00    -0.171 N
HETATM   14  C12 UNL     1      13.575 -27.594  23.351  1.00  0.00     0.177 C
ENDROOT
BRANCH   1  15
HETATM   15  N4  UNL     1      16.269 -26.884  18.054  1.00  0.00    -0.288 N
ATOM     16  H4  UNL     1      15.833 -25.968  17.955  1.00  0.00     0.188 HD
BRANCH  15  17
HETATM   17  N3  UNL     1      16.735 -27.314  16.871  1.00  0.00    -0.329 N
ATOM     18  H3  UNL     1      17.372 -26.674  16.396  1.00  0.00     0.180 HD
BRANCH  17  19
HETATM   19  C4  UNL     1      16.470 -28.543  16.173  1.00  0.00     0.200 C
BRANCH  19  20
HETATM   20  C3  UNL     1      17.596 -28.906  15.279  1.00  0.00     0.074 A
HETATM   21  C2  UNL     1      18.042 -30.175  14.984  1.00  0.00     0.095 A
HETATM   22  C1  UNL     1      17.465 -31.440  15.520  1.00  0.00     0.081 C
HETATM   23  O1  UNL     1      19.064 -30.064  14.149  1.00  0.00    -0.227 OA
HETATM   24  N1  UNL     1      19.258 -28.790  13.922  1.00  0.00     0.027 NA
HETATM   25  N2  UNL     1      18.379 -28.061  14.598  1.00  0.00    -0.278 N
ATOM     26  H2  UNL     1      18.311 -27.044  14.597  1.00  0.00     0.184 HD
ENDBRANCH  19  20
ENDBRANCH  17  19
ENDBRANCH  15  17
ENDBRANCH   1  15
BRANCH   4  27
HETATM   27  N6  UNL     1      17.997 -28.896  21.788  1.00  0.00    -0.234 N
ATOM     28  H62 UNL     1      17.804 -29.846  22.108  1.00  0.00     0.174 HD
ATOM     29  H61 UNL     1      18.896 -28.440  21.940  1.00  0.00     0.174 HD
ENDBRANCH   4  27
BRANCH   9  30
HETATM   30  N8  UNL     1      14.154 -26.009  18.051  1.00  0.00    -0.384 N
ATOM     31  H82 UNL     1      14.963 -26.270  17.487  1.00  0.00     0.157 HD
ATOM     32  H81 UNL     1      13.443 -25.434  17.599  1.00  0.00     0.157 HD
ENDBRANCH   9  30
BRANCH  12  33
HETATM   33  N10 UNL     1      11.638 -26.285  21.807  1.00  0.00    -0.167 N
ATOM     34  H10 UNL     1      11.723 -26.169  22.817  1.00  0.00     0.186 HD
BRANCH  33  35
HETATM   35  C11 UNL     1      10.367 -26.098  21.419  1.00  0.00     0.368 C
HETATM   36  O2  UNL     1      10.127 -25.423  20.352  1.00  0.00    -0.283 OA
ENDBRANCH  33  35
ENDBRANCH  12  33
TORSDOF 8
ENDMDL