MODEL 5
REMARK VINA RESULT: -6.179851306      7.003      8.874
REMARK  6 active torsions:
REMARK  status: ('A' for Active; 'I' for Inactive)
REMARK    1  A    between atoms: C2_2  and  N1_3
REMARK    2  A    between atoms: N1_3  and  S1_4
REMARK    3  A    between atoms: N1_3  and  C3_8
REMARK    4  A    between atoms: S1_4  and  N2_5
REMARK    5  A    between atoms: C5_12  and  N4_13
REMARK    6  A    between atoms: C10_22  and  N7_23
ROOT
HETATM    1  C3  UNL     1      15.097 -27.685  22.827  1.00  0.00     0.185 A
HETATM    2  N3  UNL     1      15.333 -27.587  21.495  1.00  0.00    -0.331 N
ATOM      3  H3  UNL     1      15.642 -28.415  20.986  1.00  0.00     0.168 HD
HETATM    4  C4  UNL     1      15.171 -26.430  20.822  1.00  0.00     0.124 A
HETATM    5  C5  UNL     1      15.414 -26.339  19.464  1.00  0.00     0.150 A
HETATM    6  N6  UNL     1      15.228 -25.142  18.859  1.00  0.00    -0.175 N
ATOM      7  H6  UNL     1      15.406 -25.071  17.857  1.00  0.00     0.186 HD
HETATM    8  C10 UNL     1      14.820 -24.042  19.516  1.00  0.00     0.679 A
HETATM    9  N8  UNL     1      14.593 -24.165  20.828  1.00  0.00    -0.174 N
ATOM     10  H8  UNL     1      14.283 -23.337  21.338  1.00  0.00     0.186 HD
HETATM   11  C11 UNL     1      14.747 -25.307  21.521  1.00  0.00     0.154 A
HETATM   12  N9  UNL     1      14.505 -25.371  22.847  1.00  0.00    -0.304 N
ATOM     13  H9  UNL     1      14.194 -24.547  23.361  1.00  0.00     0.171 HD
HETATM   14  C12 UNL     1      14.683 -26.553  23.476  1.00  0.00     0.292 A
HETATM   15  O1  UNL     1      14.455 -26.596  24.698  1.00  0.00    -0.264 OA
ENDROOT
BRANCH   1  16
HETATM   16  N1  UNL     1      15.282 -28.926  23.461  1.00  0.00    -0.285 N
BRANCH  16  17
HETATM   17  C2  UNL     1      16.579 -29.389  23.868  1.00  0.00     0.136 C
HETATM   18  C1  UNL     1      17.052 -28.918  25.197  1.00  0.00     0.028 C
ENDBRANCH  16  17
BRANCH  16  19
HETATM   19  S1  UNL     1      13.919 -29.940  23.754  1.00  0.00     0.064 SA
BRANCH  19  20
HETATM   20  N2  UNL     1      12.882 -29.293  24.977  1.00  0.00    -0.356 N
ATOM     21  H22 UNL     1      13.057 -28.404  25.444  1.00  0.00     0.165 HD
ATOM     22  H21 UNL     1      12.089 -29.906  25.167  1.00  0.00     0.165 HD
ENDBRANCH  19  20
ENDBRANCH  16  19
ENDBRANCH   1  16
BRANCH   5  23
HETATM   23  N4  UNL     1      15.844 -27.459  18.721  1.00  0.00    -0.362 N
HETATM   24  C6  UNL     1      17.153 -28.022  18.946  1.00  0.00     0.143 C
HETATM   25  C7  UNL     1      17.324 -29.370  18.320  1.00  0.00     0.133 C
HETATM   26  N5  UNL     1      16.748 -29.531  17.027  1.00  0.00    -0.418 N
HETATM   27  C8  UNL     1      15.920 -28.454  16.578  1.00  0.00     0.133 C
ATOM     28  H5  UNL     1      16.915 -30.360  16.458  1.00  0.00     0.153 HD
HETATM   29  C9  UNL     1      14.996 -28.067  17.724  1.00  0.00     0.143 C
ENDBRANCH   5  23
BRANCH   8  30
HETATM   30  N7  UNL     1      14.660 -22.919  18.870  1.00  0.00    -0.234 N
ATOM     31  H72 UNL     1      14.203 -22.104  19.278  1.00  0.00     0.174 HD
ATOM     32  H71 UNL     1      14.998 -22.833  17.911  1.00  0.00     0.174 HD
ENDBRANCH   8  30
TORSDOF 6
ENDMDL