MODEL 1
REMARK VINA RESULT: -7.914382284      0.000      0.000
REMARK  7 active torsions:
REMARK  status: ('A' for Active; 'I' for Inactive)
REMARK    1  A    between atoms: C2_2  and  C3_3
REMARK    2  A    between atoms: C3_3  and  N1_4
REMARK    3  A    between atoms: C4_5  and  N2_6
REMARK    4  A    between atoms: C5_11  and  C6_12
REMARK    5  A    between atoms: N4_14  and  N5_16
REMARK    6  A    between atoms: N5_16  and  N6_18
REMARK    7  A    between atoms: N6_18  and  C8_20
ROOT
HETATM    1  N1  UNL     1      17.727 -30.143  17.838  1.00  0.00    -0.166 N
HETATM    2  C4  UNL     1      17.339 -30.645  19.020  1.00  0.00     0.680 A
HETATM    3  N3  UNL     1      16.480 -30.020  19.810  1.00  0.00    -0.189 N
ATOM      4  H3  UNL     1      16.228 -30.457  20.696  1.00  0.00     0.184 HD
HETATM    5  C5  UNL     1      15.906 -28.793  19.488  1.00  0.00     0.092 A
HETATM    6  C9  UNL     1      16.308 -28.289  18.273  1.00  0.00     0.108 A
HETATM    7  C10 UNL     1      15.973 -27.170  17.593  1.00  0.00     0.276 A
HETATM    8  O1  UNL     1      15.183 -26.275  17.951  1.00  0.00    -0.266 OA
HETATM    9  N11 UNL     1      16.652 -27.179  16.420  1.00  0.00    -0.264 N
ATOM     10  H11 UNL     1      16.587 -26.448  15.711  1.00  0.00     0.190 HD
HETATM   11  N12 UNL     1      17.397 -28.236  16.316  1.00  0.00    -0.281 N
ATOM     12  H12 UNL     1      18.003 -28.476  15.532  1.00  0.00     0.188 HD
HETATM   13  C11 UNL     1      17.217 -28.956  17.441  1.00  0.00     0.156 A
ENDROOT
BRANCH   5  14
HETATM   14  C6  UNL     1      15.040 -28.192  20.450  1.00  0.00     0.051 C
HETATM   15  C7  UNL     1      13.667 -28.364  20.858  1.00  0.00     0.072 C
HETATM   16  N4  UNL     1      15.644 -27.190  21.117  1.00  0.00    -0.288 N
ATOM     17  H4  UNL     1      16.611 -26.972  20.878  1.00  0.00     0.188 HD
BRANCH  16  18
HETATM   18  N5  UNL     1      15.047 -26.451  22.087  1.00  0.00    -0.228 N
ATOM     19  H5  UNL     1      14.799 -26.909  22.965  1.00  0.00     0.209 HD
BRANCH  18  20
HETATM   20  N6  UNL     1      14.757 -25.097  21.939  1.00  0.00    -0.115 N
ATOM     21  H6  UNL     1      14.366 -24.606  22.742  1.00  0.00     0.207 HD
BRANCH  20  22
HETATM   22  C8  UNL     1      14.944 -24.432  20.876  1.00  0.00     0.729 A
HETATM   23  N7  UNL     1      16.097 -24.354  20.196  1.00  0.00    -0.114 N
HETATM   24  N8  UNL     1      15.937 -23.575  19.137  1.00  0.00    -0.213 N
ATOM     25  H7  UNL     1      16.965 -24.823  20.455  1.00  0.00     0.207 HD
HETATM   26  N9  UNL     1      14.689 -23.155  19.133  1.00  0.00    -0.213 N
ATOM     27  H8  UNL     1      16.652 -23.343  18.447  1.00  0.00     0.210 HD
HETATM   28  N10 UNL     1      14.069 -23.674  20.196  1.00  0.00    -0.114 N
ATOM     29  H9  UNL     1      14.267 -22.539  18.438  1.00  0.00     0.210 HD
ATOM     30  H10 UNL     1      13.092 -23.520  20.449  1.00  0.00     0.207 HD
ENDBRANCH  20  22
ENDBRANCH  18  20
ENDBRANCH  16  18
ENDBRANCH   5  14
BRANCH   2  31
HETATM   31  N2  UNL     1      17.869 -31.799  19.343  1.00  0.00    -0.234 N
ATOM     32  H22 UNL     1      18.878 -31.947  19.354  1.00  0.00     0.174 HD
ATOM     33  H21 UNL     1      17.205 -32.535  19.579  1.00  0.00     0.174 HD
ENDBRANCH   2  31
BRANCH   1  34
HETATM   34  C3  UNL     1      18.650 -30.861  17.006  1.00  0.00     0.149 C
BRANCH  34  35
HETATM   35  C2  UNL     1      20.068 -30.367  17.068  1.00  0.00     0.016 C
HETATM   36  C1  UNL     1      20.654 -29.966  15.751  1.00  0.00     0.006 C
ENDBRANCH  34  35
ENDBRANCH   1  34
TORSDOF 7
ENDMDL