MODEL 3
REMARK VINA RESULT: -7.878820144      1.461      1.520
REMARK  7 active torsions:
REMARK  status: ('A' for Active; 'I' for Inactive)
REMARK    1  A    between atoms: N5_15  and  C6_16
REMARK    2  A    between atoms: C6_16  and  C7_17
REMARK    3  A    between atoms: C7_17  and  C8_18
REMARK    4  A    between atoms: C8_18  and  N6_19
REMARK    5  A    between atoms: C9_21  and  C10_22
REMARK    6  A    between atoms: C13_31  and  N9_32
REMARK    7  A    between atoms: N9_32  and  N10_34
ROOT
HETATM    1  C8  UNL     1      17.870 -29.602  16.488  1.00  0.00     0.120 C
ENDROOT
BRANCH   1   2
HETATM    2  C7  UNL     1      16.588 -29.098  17.095  1.00  0.00     0.040 C
BRANCH   2   3
HETATM    3  C6  UNL     1      16.752 -28.570  18.480  1.00  0.00     0.133 C
BRANCH   3   4
HETATM    4  N5  UNL     1      16.169 -27.267  18.707  1.00  0.00    -0.327 N
HETATM    5  C3  UNL     1      15.612 -26.814  19.833  1.00  0.00     0.140 A
HETATM    6  N3  UNL     1      15.387 -27.344  21.049  1.00  0.00    -0.336 N
HETATM    7  C4  UNL     1      15.185 -25.498  19.648  1.00  0.00     0.122 A
HETATM    8  C2  UNL     1      14.791 -26.674  22.043  1.00  0.00     0.183 A
ATOM      9  H3  UNL     1      15.685 -28.304  21.222  1.00  0.00     0.168 HD
HETATM   10  N2  UNL     1      14.376 -25.403  21.873  1.00  0.00    -0.337 N
HETATM   11  C1  UNL     1      14.578 -24.832  20.681  1.00  0.00     0.131 A
ATOM     12  H2  UNL     1      13.922 -24.892  22.631  1.00  0.00     0.168 HD
HETATM   13  N1  UNL     1      14.181 -23.607  20.512  1.00  0.00    -0.383 N
ATOM     14  H12 UNL     1      13.729 -23.112  21.280  1.00  0.00     0.157 HD
ATOM     15  H11 UNL     1      14.334 -23.172  19.602  1.00  0.00     0.157 HD
HETATM   16  N4  UNL     1      15.508 -25.194  18.386  1.00  0.00    -0.346 N
HETATM   17  C5  UNL     1      16.098 -26.259  17.820  1.00  0.00     0.185 A
ATOM     18  H4  UNL     1      15.333 -24.299  17.928  1.00  0.00     0.167 HD
ENDBRANCH   3   4
ENDBRANCH   2   3
ENDBRANCH   1   2
BRANCH   1  19
HETATM   19  N6  UNL     1      18.934 -29.669  17.490  1.00  0.00    -0.397 N
HETATM   20  C9  UNL     1      19.533 -30.786  17.723  1.00  0.00     0.115 C
ATOM     21  H6  UNL     1      19.203 -28.830  18.004  1.00  0.00     0.158 HD
BRANCH  20  22
HETATM   22  C10 UNL     1      20.580 -30.920  18.690  1.00  0.00     0.085 A
HETATM   23  N7  UNL     1      21.410 -29.936  19.071  1.00  0.00    -0.305 N
HETATM   24  C11 UNL     1      22.363 -30.136  20.010  1.00  0.00     0.327 A
ATOM     25  H7  UNL     1      21.320 -29.015  18.643  1.00  0.00     0.171 HD
HETATM   26  O1  UNL     1      23.138 -29.201  20.361  1.00  0.00    -0.247 OA
HETATM   27  N8  UNL     1      22.551 -31.313  20.622  1.00  0.00    -0.273 N
HETATM   28  C12 UNL     1      21.744 -32.348  20.279  1.00  0.00     0.279 A
ATOM     29  H8  UNL     1      23.280 -31.428  21.326  1.00  0.00     0.173 HD
HETATM   30  O2  UNL     1      21.867 -33.481  20.815  1.00  0.00    -0.265 OA
HETATM   31  C13 UNL     1      20.772 -32.155  19.325  1.00  0.00     0.144 A
BRANCH  31  32
HETATM   32  N9  UNL     1      19.916 -33.249  18.945  1.00  0.00    -0.300 N
ATOM     33  H9  UNL     1      18.925 -33.261  19.184  1.00  0.00     0.186 HD
BRANCH  32  34
HETATM   34  N10 UNL     1      20.507 -34.284  18.237  1.00  0.00    -0.344 N
ATOM     35 2H10 UNL     1      21.514 -34.443  18.288  1.00  0.00     0.176 HD
ATOM     36 1H10 UNL     1      19.887 -34.867  17.675  1.00  0.00     0.176 HD
ENDBRANCH  32  34
ENDBRANCH  31  32
ENDBRANCH  20  22
ENDBRANCH   1  19
TORSDOF 7
ENDMDL