MODEL 5
REMARK VINA RESULT: -7.511048527      1.959      4.255
REMARK  9 active torsions:
REMARK  status: ('A' for Active; 'I' for Inactive)
REMARK    1  A    between atoms: C3_5  and  N2_6
REMARK    2  A    between atoms: C5_13  and  C6_14
REMARK    3  A    between atoms: C6_14  and  N4_15
REMARK    4  A    between atoms: N4_15  and  C7_17
REMARK    5  A    between atoms: C8_20  and  N6_21
REMARK    6  A    between atoms: N6_21  and  O2_23
REMARK    7  A    between atoms: C10_27  and  N8_28
REMARK    8  A    between atoms: N8_28  and  C12_31
REMARK    9  A    between atoms: C12_31  and  O3_32
ROOT
HETATM    1  N8  UNL     1      21.208 -30.125  14.815  1.00  0.00    -0.093 N
HETATM    2  C11 UNL     1      22.370 -30.718  14.314  1.00  0.00     0.201 C
HETATM    3  N9  UNL     1      23.340 -31.181  13.889  1.00  0.00    -0.171 NA
ENDROOT
BRANCH   1   4
HETATM    4  C10 UNL     1      20.958 -30.233  16.204  1.00  0.00     0.724 A
HETATM    5  N7  UNL     1      21.855 -30.693  17.090  1.00  0.00    -0.018 N
HETATM    6  C8  UNL     1      21.586 -30.730  18.440  1.00  0.00     0.732 A
ATOM      7  H7  UNL     1      22.760 -31.023  16.754  1.00  0.00     0.203 HD
HETATM    8  N5  UNL     1      20.392 -30.302  18.824  1.00  0.00    -0.019 N
HETATM    9  C7  UNL     1      19.425 -29.833  17.996  1.00  0.00     0.711 A
ATOM     10  H5  UNL     1      20.184 -30.327  19.822  1.00  0.00     0.203 HD
HETATM   11  N10 UNL     1      19.774 -29.818  16.668  1.00  0.00    -0.020 N
ATOM     12  H10 UNL     1      19.091 -29.470  15.996  1.00  0.00     0.203 HD
BRANCH   6  13
HETATM   13  N6  UNL     1      22.482 -31.262  19.404  1.00  0.00    -0.094 N
HETATM   14  C9  UNL     1      22.027 -31.343  20.762  1.00  0.00     0.205 C
BRANCH  13  15
HETATM   15  O2  UNL     1      23.699 -31.672  19.063  1.00  0.00    -0.274 OA
ATOM     16  H2  UNL     1      24.313 -31.088  18.632  1.00  0.00     0.245 HD
ENDBRANCH  13  15
ENDBRANCH   6  13
BRANCH   9  17
HETATM   17  N4  UNL     1      18.351 -29.381  18.368  1.00  0.00    -0.200 N
ATOM     18  H4  UNL     1      18.437 -29.077  19.338  1.00  0.00     0.183 HD
BRANCH  17  19
HETATM   19  C6  UNL     1      17.049 -29.135  17.931  1.00  0.00     0.125 C
BRANCH  19  20
HETATM   20  C5  UNL     1      16.589 -27.864  18.602  1.00  0.00     0.071 A
HETATM   21  C2  UNL     1      16.296 -26.879  17.679  1.00  0.00     0.040 A
HETATM   22  C1  UNL     1      16.314 -27.215  16.230  1.00  0.00     0.070 C
HETATM   23  N1  UNL     1      15.935 -25.666  18.102  1.00  0.00    -0.195 N
HETATM   24  C3  UNL     1      15.858 -25.407  19.445  1.00  0.00     0.679 A
ATOM     25  H1  UNL     1      15.717 -24.933  17.427  1.00  0.00     0.184 HD
HETATM   26  N3  UNL     1      16.151 -26.370  20.323  1.00  0.00    -0.156 N
HETATM   27  C4  UNL     1      16.530 -27.647  19.952  1.00  0.00     0.273 A
ATOM     28  H3  UNL     1      16.093 -26.151  21.318  1.00  0.00     0.187 HD
HETATM   29  O1  UNL     1      16.798 -28.528  20.755  1.00  0.00    -0.267 OA
BRANCH  24  30
HETATM   30  N2  UNL     1      15.502 -24.193  19.846  1.00  0.00    -0.234 N
ATOM     31  H22 UNL     1      14.603 -24.026  20.296  1.00  0.00     0.174 HD
ATOM     32  H21 UNL     1      16.151 -23.418  19.707  1.00  0.00     0.174 HD
ENDBRANCH  24  30
ENDBRANCH  19  20
ENDBRANCH  17  19
ENDBRANCH   9  17
ENDBRANCH   1   4
BRANCH   1  33
HETATM   33  C12 UNL     1      20.348 -29.394  13.897  1.00  0.00     0.325 C
BRANCH  33  34
HETATM   34  O3  UNL     1      19.095 -29.953  13.767  1.00  0.00    -0.380 OA
ATOM     35  H3  UNL     1      18.499 -29.417  13.258  1.00  0.00     0.211 HD
ENDBRANCH  33  34
ENDBRANCH   1  33
TORSDOF 9
ENDMDL