MODEL 1
REMARK VINA RESULT: -7.874596283      0.000      0.000
REMARK  8 active torsions:
REMARK  status: ('A' for Active; 'I' for Inactive)
REMARK    1  A    between atoms: N1_1  and  C1_4
REMARK    2  A    between atoms: C4_11  and  N4_12
REMARK    3  A    between atoms: N5_15  and  C5_16
REMARK    4  A    between atoms: C5_16  and  C6_17
REMARK    5  A    between atoms: C6_17  and  C7_18
REMARK    6  A    between atoms: C7_18  and  C8_19
REMARK    7  A    between atoms: C9_27  and  S1_28
REMARK    8  A    between atoms: S1_28  and  N10_29
ROOT
HETATM    1  C1  UNL     1      19.983 -30.069  16.820  1.00  0.00     0.678 A
HETATM    2  N2  UNL     1      18.857 -29.633  17.388  1.00  0.00    -0.174 N
ATOM      3  H2  UNL     1      18.079 -29.342  16.797  1.00  0.00     0.186 HD
HETATM    4  C2  UNL     1      18.728 -29.568  18.719  1.00  0.00     0.169 A
HETATM    5  C3  UNL     1      19.787 -29.966  19.500  1.00  0.00     0.135 A
HETATM    6  N3  UNL     1      19.384 -29.783  20.770  1.00  0.00    -0.185 N
ATOM      7  H3  UNL     1      19.948 -29.989  21.594  1.00  0.00     0.184 HD
HETATM    8  C4  UNL     1      18.136 -29.292  20.796  1.00  0.00     0.680 A
HETATM    9  N5  UNL     1      17.704 -29.151  19.511  1.00  0.00    -0.166 N
HETATM   10  C9  UNL     1      20.985 -30.431  18.940  1.00  0.00     0.195 A
HETATM   11  N11 UNL     1      21.043 -30.468  17.581  1.00  0.00    -0.177 N
ATOM     12  H11 UNL     1      21.892 -30.799  17.124  1.00  0.00     0.185 HD
ENDROOT
BRANCH   9  13
HETATM   13  C5  UNL     1      16.423 -28.648  19.136  1.00  0.00     0.150 C
BRANCH  13  14
HETATM   14  C6  UNL     1      16.295 -27.148  19.136  1.00  0.00     0.028 C
BRANCH  14  15
HETATM   15  C7  UNL     1      14.998 -26.864  19.929  1.00  0.00     0.080 C
BRANCH  15  16
HETATM   16  C8  UNL     1      14.687 -25.419  19.813  1.00  0.00     0.110 A
HETATM   17  N6  UNL     1      14.977 -24.640  18.776  1.00  0.00    -0.271 N
HETATM   18  N7  UNL     1      14.545 -23.401  19.018  1.00  0.00    -0.005 NA
ATOM     19  H6  UNL     1      15.456 -24.941  17.927  1.00  0.00     0.185 HD
HETATM   20  N8  UNL     1      13.987 -23.440  20.218  1.00  0.00    -0.225 N
HETATM   21  N9  UNL     1      14.071 -24.648  20.697  1.00  0.00    -0.275 N
ATOM     22  H8  UNL     1      13.556 -22.647  20.694  1.00  0.00     0.205 HD
ATOM     23  H9  UNL     1      13.720 -24.951  21.606  1.00  0.00     0.189 HD
ENDBRANCH  15  16
ENDBRANCH  14  15
ENDBRANCH  13  14
ENDBRANCH   9  13
BRANCH   8  24
HETATM   24  N4  UNL     1      17.430 -28.986  21.860  1.00  0.00    -0.234 N
ATOM     25  H42 UNL     1      16.571 -29.459  22.144  1.00  0.00     0.174 HD
ATOM     26  H41 UNL     1      17.627 -28.249  22.538  1.00  0.00     0.174 HD
ENDBRANCH   8  24
BRANCH   1  27
HETATM   27  N1  UNL     1      20.137 -30.154  15.578  1.00  0.00    -0.234 N
ATOM     28  H12 UNL     1      19.303 -30.394  15.041  1.00  0.00     0.174 HD
ATOM     29  H11 UNL     1      21.029 -29.987  15.113  1.00  0.00     0.174 HD
ENDBRANCH   1  27
BRANCH  10  30
HETATM   30  S1  UNL     1      22.319 -30.928  19.953  1.00  0.00     0.275 S
HETATM   31  O1  UNL     1      22.756 -29.715  20.730  1.00  0.00    -0.199 OA
HETATM   32  O2  UNL     1      23.506 -31.325  19.085  1.00  0.00    -0.199 OA
BRANCH  30  33
HETATM   33  N10 UNL     1      21.911 -32.230  20.999  1.00  0.00    -0.323 N
ATOM     34 2H10 UNL     1      20.972 -32.361  21.378  1.00  0.00     0.169 HD
ATOM     35 1H10 UNL     1      22.702 -32.843  21.192  1.00  0.00     0.169 HD
ENDBRANCH  30  33
ENDBRANCH  10  30
TORSDOF 8
ENDMDL