MODEL 3
REMARK VINA RESULT: -6.994306577      4.287      6.422
REMARK  8 active torsions:
REMARK  status: ('A' for Active; 'I' for Inactive)
REMARK    1  A    between atoms: C2_2  and  C3_3
REMARK    2  A    between atoms: C3_3  and  C4_4
REMARK    3  A    between atoms: C4_4  and  N1_5
REMARK    4  A    between atoms: N1_5  and  C5_7
REMARK    5  A    between atoms: N3_11  and  N4_13
REMARK    6  A    between atoms: C8_24  and  C9_25
REMARK    7  A    between atoms: C10_28  and  C11_29
REMARK    8  A    between atoms: C11_29  and  N10_30
ROOT
HETATM    1  C5  UNL     1      15.630 -26.989  20.747  1.00  0.00     0.147 A
HETATM    2  N2  UNL     1      15.134 -25.763  20.788  1.00  0.00    -0.173 N
ATOM      3  H2  UNL     1      14.790 -25.421  21.684  1.00  0.00     0.186 HD
HETATM    4  C6  UNL     1      15.054 -24.932  19.721  1.00  0.00     0.699 A
HETATM    5  N3  UNL     1      14.591 -23.799  19.886  1.00  0.00    -0.138 N
ATOM      6  H3  UNL     1      14.285 -23.585  20.835  1.00  0.00     0.205 HD
HETATM    7  N5  UNL     1      15.524 -25.395  18.518  1.00  0.00    -0.171 N
ATOM      8  H5  UNL     1      15.478 -24.783  17.704  1.00  0.00     0.186 HD
HETATM    9  C7  UNL     1      16.043 -26.627  18.374  1.00  0.00     0.168 A
HETATM   10  N6  UNL     1      16.507 -27.019  17.171  1.00  0.00    -0.260 N
ATOM     11  H6  UNL     1      16.441 -26.409  16.356  1.00  0.00     0.191 HD
HETATM   12  N7  UNL     1      17.053 -28.228  17.083  1.00  0.00    -0.177 N
HETATM   13  N8  UNL     1      17.547 -28.864  16.056  1.00  0.00    -0.272 N
ATOM     14  H8  UNL     1      17.606 -28.487  15.109  1.00  0.00     0.189 HD
HETATM   15  C8  UNL     1      17.969 -30.086  16.425  1.00  0.00     0.126 A
HETATM   16  C10 UNL     1      17.724 -30.226  17.775  1.00  0.00     0.048 A
HETATM   17  C12 UNL     1      17.143 -29.053  18.175  1.00  0.00     0.156 A
HETATM   18  N11 UNL     1      16.664 -28.631  19.345  1.00  0.00    -0.333 N
ATOM     19  H11 UNL     1      16.732 -29.253  20.150  1.00  0.00     0.168 HD
HETATM   20  C13 UNL     1      16.088 -27.410  19.515  1.00  0.00     0.125 A
ENDROOT
BRANCH   1  21
HETATM   21  N1  UNL     1      15.543 -27.691  21.784  1.00  0.00    -0.374 N
ATOM     22  H1  UNL     1      16.427 -28.185  21.912  1.00  0.00     0.161 HD
BRANCH  21  23
HETATM   23  C4  UNL     1      14.683 -28.048  22.830  1.00  0.00     0.121 C
BRANCH  23  24
HETATM   24  C3  UNL     1      15.318 -27.470  24.140  1.00  0.00     0.019 C
BRANCH  24  25
HETATM   25  C2  UNL     1      14.544 -26.168  24.410  1.00  0.00    -0.003 C
HETATM   26  C1  UNL     1      15.116 -25.488  25.611  1.00  0.00     0.005 C
ENDBRANCH  24  25
ENDBRANCH  23  24
ENDBRANCH  21  23
ENDBRANCH   1  21
BRANCH   5  27
HETATM   27  N4  UNL     1      14.430 -22.791  18.975  1.00  0.00    -0.331 N
ATOM     28  H42 UNL     1      15.084 -22.016  19.087  1.00  0.00     0.177 HD
ATOM     29  H41 UNL     1      13.756 -22.714  18.214  1.00  0.00     0.177 HD
ENDBRANCH   5  27
BRANCH  16  30
HETATM   30  C11 UNL     1      18.105 -31.366  18.672  1.00  0.00     0.274 C
BRANCH  30  31
HETATM   31  N10 UNL     1      19.535 -31.296  18.953  1.00  0.00    -0.075 N
ATOM     32 3H10 UNL     1      19.967 -30.461  18.557  1.00  0.00     0.274 HD
ATOM     33 2H10 UNL     1      19.729 -31.105  19.936  1.00  0.00     0.274 HD
ATOM     34 1H10 UNL     1      19.981 -32.154  18.629  1.00  0.00     0.274 HD
ENDBRANCH  30  31
ENDBRANCH  16  30
BRANCH  15  35
HETATM   35  C9  UNL     1      18.648 -31.079  15.563  1.00  0.00     0.283 C
HETATM   36  N9  UNL     1      20.051 -31.204  15.654  1.00  0.00    -0.056 NA
HETATM   37  O1  UNL     1      18.011 -31.773  14.806  1.00  0.00    -0.269 OA
ENDBRANCH  15  35
TORSDOF 8
ENDMDL