MODEL 3
REMARK VINA RESULT: -6.989406111      1.858      3.246
REMARK  9 active torsions:
REMARK  status: ('A' for Active; 'I' for Inactive)
REMARK    1  A    between atoms: C2_2  and  C3_3
REMARK    2  A    between atoms: C3_3  and  N1_4
REMARK    3  A    between atoms: C5_12  and  N3_13
REMARK    4  A    between atoms: C5_12  and  C6_17
REMARK    5  A    between atoms: C6_17  and  C7_18
REMARK    6  A    between atoms: C7_18  and  N4_19
REMARK    7  A    between atoms: N4_19  and  C8_21
REMARK    8  A    between atoms: C9_24  and  N6_25
REMARK    9  A    between atoms: C12_28  and  O2_29
ROOT
HETATM    1  C3  UNL     1      14.139 -26.640  22.975  1.00  0.00     0.364 C
HETATM    2  N2  UNL     1      14.652 -25.446  22.339  1.00  0.00    -0.302 N
ATOM      3  H2  UNL     1      14.757 -24.526  22.768  1.00  0.00     0.166 HD
HETATM    4  C4  UNL     1      14.983 -25.798  21.004  1.00  0.00     0.286 C
HETATM    5  O1  UNL     1      15.243 -25.027  20.054  1.00  0.00    -0.269 OA
HETATM    6  C5  UNL     1      14.965 -27.262  20.938  1.00  0.00     0.369 C
HETATM    7  N9  UNL     1      14.027 -27.635  21.949  1.00  0.00     0.022 N
ATOM      8  H91 UNL     1      13.077 -27.754  21.599  1.00  0.00     0.286 HD
ATOM      9  H92 UNL     1      14.153 -28.588  22.290  1.00  0.00     0.286 HD
ENDROOT
BRANCH   6  10
HETATM   10  N3  UNL     1      16.276 -27.744  21.321  1.00  0.00    -0.035 N
ATOM     11  H33 UNL     1      16.817 -28.088  20.528  1.00  0.00     0.278 HD
ATOM     12  H32 UNL     1      16.906 -26.993  21.602  1.00  0.00     0.278 HD
ATOM     13  H31 UNL     1      16.153 -28.448  22.049  1.00  0.00     0.278 HD
ENDBRANCH   6  10
BRANCH   6  14
HETATM   14  C6  UNL     1      14.632 -27.806  19.575  1.00  0.00     0.100 C
BRANCH  14  15
HETATM   15  C7  UNL     1      13.255 -28.377  19.484  1.00  0.00     0.143 C
BRANCH  15  16
HETATM   16  N4  UNL     1      12.315 -27.315  19.324  1.00  0.00    -0.226 N
ATOM     17  H4  UNL     1      12.581 -26.548  18.707  1.00  0.00     0.177 HD
BRANCH  16  18
HETATM   18  C8  UNL     1      11.163 -27.239  19.888  1.00  0.00     0.681 A
HETATM   19  N5  UNL     1      10.773 -28.296  20.621  1.00  0.00    -0.174 N
HETATM   20  C9  UNL     1       9.585 -28.355  21.269  1.00  0.00     0.155 A
ATOM     21  H5  UNL     1      11.403 -29.095  20.693  1.00  0.00     0.186 HD
HETATM   22  C12 UNL     1       8.779 -27.252  21.139  1.00  0.00     0.152 A
HETATM   23  C13 UNL     1       9.152 -26.143  20.390  1.00  0.00     0.168 A
HETATM   24  N7  UNL     1       8.276 -25.033  20.292  1.00  0.00    -0.079 NA
HETATM   25  N8  UNL     1      10.352 -26.182  19.783  1.00  0.00    -0.176 N
ATOM     26  H8  UNL     1      10.651 -25.381  19.226  1.00  0.00     0.185 HD
BRANCH  20  27
HETATM   27  N6  UNL     1       9.216 -29.474  22.022  1.00  0.00    -0.373 N
HETATM   28  C10 UNL     1       9.586 -29.500  23.449  1.00  0.00     0.150 C
HETATM   29  C11 UNL     1       8.501 -30.593  21.497  1.00  0.00     0.150 C
ENDBRANCH  20  27
BRANCH  22  30
HETATM   30  O2  UNL     1       7.562 -27.215  21.756  1.00  0.00    -0.354 OA
ATOM     31  H2  UNL     1       6.795 -26.917  21.282  1.00  0.00     0.218 HD
ENDBRANCH  22  30
ENDBRANCH  16  18
ENDBRANCH  15  16
ENDBRANCH  14  15
ENDBRANCH   6  14
BRANCH   1  32
HETATM   32  C2  UNL     1      14.994 -27.067  24.132  1.00  0.00     0.089 C
HETATM   33  C1  UNL     1      15.059 -25.956  25.147  1.00  0.00     0.011 C
ENDBRANCH   1  32
BRANCH   1  34
HETATM   34  N1  UNL     1      12.825 -26.289  23.528  1.00  0.00    -0.026 N
ATOM     35  H13 UNL     1      12.773 -26.396  24.542  1.00  0.00     0.279 HD
ATOM     36  H12 UNL     1      12.627 -25.289  23.494  1.00  0.00     0.279 HD
ATOM     37  H11 UNL     1      12.137 -26.853  23.029  1.00  0.00     0.279 HD
ENDBRANCH   1  34
TORSDOF 9
ENDMDL