MODEL 2
REMARK VINA RESULT: -6.948624167      3.471      5.376
REMARK  8 active torsions:
REMARK  status: ('A' for Active; 'I' for Inactive)
REMARK    1  A    between atoms: C2_2  and  N1_3
REMARK    2  A    between atoms: N1_3  and  C3_5
REMARK    3  A    between atoms: N3_8  and  C4_9
REMARK    4  A    between atoms: C4_9  and  C5_10
REMARK    5  A    between atoms: C5_10  and  N4_11
REMARK    6  A    between atoms: N4_11  and  C6_13
REMARK    7  A    between atoms: C9_20  and  N7_21
REMARK    8  A    between atoms: C13_34  and  N11_35
ROOT
HETATM    1  N4  UNL     1      17.837 -28.888  17.838  1.00  0.00    -0.373 N
ATOM      2  H4  UNL     1      17.651 -28.179  17.128  1.00  0.00     0.161 HD
ENDROOT
BRANCH   1   3
HETATM    3  C5  UNL     1      17.421 -28.587  19.171  1.00  0.00     0.143 C
BRANCH   3   4
HETATM    4  C4  UNL     1      15.898 -28.585  19.261  1.00  0.00     0.173 C
BRANCH   4   5
HETATM    5  N3  UNL     1      15.425 -27.262  19.612  1.00  0.00    -0.239 N
HETATM    6  N2  UNL     1      15.255 -26.874  20.855  1.00  0.00    -0.276 N
HETATM    7  C3  UNL     1      14.808 -25.625  21.191  1.00  0.00     0.160 A
ATOM      8  H2  UNL     1      15.466 -27.533  21.605  1.00  0.00     0.189 HD
HETATM    9  C13 UNL     1      14.539 -24.774  20.149  1.00  0.00     0.149 A
HETATM   10  N10 UNL     1      14.708 -25.155  18.852  1.00  0.00    -0.290 N
HETATM   11  C12 UNL     1      15.151 -26.401  18.626  1.00  0.00     0.342 A
ATOM     12  H10 UNL     1      14.506 -24.517  18.081  1.00  0.00     0.172 HD
HETATM   13  O1  UNL     1      15.315 -26.772  17.436  1.00  0.00    -0.245 OA
BRANCH   7  14
HETATM   14  N1  UNL     1      14.652 -25.287  22.563  1.00  0.00    -0.372 N
ATOM     15  H1  UNL     1      14.630 -24.307  22.843  1.00  0.00     0.161 HD
BRANCH  14  16
HETATM   16  C2  UNL     1      14.522 -26.331  23.572  1.00  0.00     0.117 C
HETATM   17  C1  UNL     1      14.756 -25.667  24.910  1.00  0.00     0.026 C
ENDBRANCH  14  16
ENDBRANCH   7  14
BRANCH   9  18
HETATM   18  N11 UNL     1      14.120 -23.594  20.358  1.00  0.00    -0.382 N
ATOM     19 2H11 UNL     1      14.627 -23.033  21.043  1.00  0.00     0.157 HD
ATOM     20 1H11 UNL     1      13.309 -23.227  19.858  1.00  0.00     0.157 HD
ENDBRANCH   9  18
ENDBRANCH   4   5
ENDBRANCH   3   4
ENDBRANCH   1   3
BRANCH   1  21
HETATM   21  C6  UNL     1      18.414 -29.949  17.446  1.00  0.00     0.131 A
HETATM   22  N5  UNL     1      18.558 -31.071  18.178  1.00  0.00    -0.337 N
HETATM   23  C7  UNL     1      19.182 -32.174  17.713  1.00  0.00     0.182 A
ATOM     24  H5  UNL     1      18.179 -31.087  19.125  1.00  0.00     0.168 HD
HETATM   25  N6  UNL     1      19.682 -32.155  16.463  1.00  0.00    -0.347 N
HETATM   26  C8  UNL     1      19.572 -31.062  15.673  1.00  0.00     0.108 A
ATOM     27  H6  UNL     1      20.155 -32.984  16.104  1.00  0.00     0.167 HD
HETATM   28  C9  UNL     1      20.081 -31.024  14.385  1.00  0.00     0.129 A
HETATM   29  C11 UNL     1      18.935 -29.935  16.147  1.00  0.00     0.108 A
HETATM   30  N8  UNL     1      19.966 -29.931  13.604  1.00  0.00    -0.337 N
HETATM   31  C10 UNL     1      19.345 -28.852  14.089  1.00  0.00     0.182 A
ATOM     32  H8  UNL     1      20.348 -29.928  12.658  1.00  0.00     0.168 HD
HETATM   33  N9  UNL     1      18.845 -28.875  15.342  1.00  0.00    -0.347 N
ATOM     34  H9  UNL     1      18.374 -28.040  15.691  1.00  0.00     0.167 HD
BRANCH  28  35
HETATM   35  N7  UNL     1      20.672 -32.093  13.964  1.00  0.00    -0.384 N
ATOM     36  H72 UNL     1      20.542 -32.991  14.430  1.00  0.00     0.157 HD
ATOM     37  H71 UNL     1      21.273 -31.992  13.146  1.00  0.00     0.157 HD
ENDBRANCH  28  35
ENDBRANCH   1  21
TORSDOF 8
ENDMDL