MODEL 2
REMARK VINA RESULT: -6.849480261      2.775      5.201
REMARK  5 active torsions:
REMARK  status: ('A' for Active; 'I' for Inactive)
REMARK    1  A    between atoms: N1_1  and  N2_4
REMARK    2  A    between atoms: N2_4  and  C1_6
REMARK    3  A    between atoms: C2_12  and  N5_13
REMARK    4  A    between atoms: N5_13  and  C3_15
REMARK    5  A    between atoms: N7_20  and  C6_21
ROOT
HETATM    1  C3  UNL     1     -22.627 -17.959 -20.983  1.00  0.00     0.125 A
HETATM    2  C4  UNL     1     -22.317 -18.573 -19.789  1.00  0.00     0.068 A
HETATM    3  C5  UNL     1     -23.210 -18.090 -18.862  1.00  0.00     0.111 A
HETATM    4  N6  UNL     1     -23.998 -17.226 -19.524  1.00  0.00    -0.308 N
ATOM      5  H6  UNL     1     -24.762 -16.706 -19.092  1.00  0.00     0.186 HD
HETATM    6  N7  UNL     1     -23.669 -17.131 -20.789  1.00  0.00    -0.270 N
ENDROOT
BRANCH   1   7
HETATM    7  N5  UNL     1     -22.045 -18.121 -22.100  1.00  0.00    -0.323 N
ATOM      8  H5  UNL     1     -21.299 -17.466 -22.336  1.00  0.00     0.169 HD
BRANCH   7   9
HETATM    9  C2  UNL     1     -22.341 -19.124 -23.040  1.00  0.00     0.176 A
HETATM   10  C1  UNL     1     -21.632 -19.316 -24.207  1.00  0.00     0.188 A
HETATM   11  N3  UNL     1     -22.206 -20.347 -24.823  1.00  0.00    -0.221 N
HETATM   12  O1  UNL     1     -23.195 -20.755 -24.086  1.00  0.00    -0.153 OA
ATOM     13  H3  UNL     1     -21.920 -20.746 -25.717  1.00  0.00     0.198 HD
HETATM   14  N4  UNL     1     -23.321 -20.066 -23.014  1.00  0.00    -0.222 N
ATOM     15  H4  UNL     1     -24.020 -20.197 -22.284  1.00  0.00     0.198 HD
BRANCH  10  16
HETATM   16  N2  UNL     1     -20.605 -18.601 -24.589  1.00  0.00    -0.287 N
ATOM     17  H2  UNL     1     -20.523 -17.637 -24.265  1.00  0.00     0.188 HD
BRANCH  16  18
HETATM   18  N1  UNL     1     -19.632 -19.116 -25.416  1.00  0.00    -0.343 N
ATOM     19  H12 UNL     1     -18.706 -19.288 -25.022  1.00  0.00     0.176 HD
ATOM     20  H11 UNL     1     -19.818 -19.324 -26.397  1.00  0.00     0.176 HD
ENDBRANCH  16  18
ENDBRANCH  10  16
ENDBRANCH   7   9
ENDBRANCH   1   7
BRANCH   6  21
HETATM   21  C6  UNL     1     -24.289 -16.311 -21.789  1.00  0.00     0.135 C
HETATM   22  C7  UNL     1     -25.659 -15.853 -21.475  1.00  0.00     0.030 C
HETATM   23  C8  UNL     1     -25.986 -14.471 -21.972  1.00  0.00     0.029 C
HETATM   24  C9  UNL     1     -25.268 -14.048 -23.188  1.00  0.00     0.232 C
HETATM   25  N8  UNL     1     -23.975 -14.597 -23.392  1.00  0.00    -0.073 N
HETATM   26  C10 UNL     1     -23.442 -15.084 -22.118  1.00  0.00     0.259 C
ATOM     27  H82 UNL     1     -23.974 -15.319 -24.112  1.00  0.00     0.277 HD
ATOM     28  H81 UNL     1     -23.344 -13.936 -23.846  1.00  0.00     0.277 HD
ENDBRANCH   6  21
TORSDOF 5
ENDMDL