MODEL 5
REMARK VINA RESULT: -6.409437356      1.154      1.154
REMARK  4 active torsions:
REMARK  status: ('A' for Active; 'I' for Inactive)
REMARK    1  A    between atoms: N1_1  and  C1_4
REMARK    2  A    between atoms: C2_10  and  C3_11
REMARK    3  A    between atoms: C4_14  and  N5_15
REMARK    4  A    between atoms: N6_18  and  N7_19
ROOT
HETATM    1  C3  UNL     1     -22.464 -18.372 -20.887  1.00  0.00     0.126 A
HETATM    2  N4  UNL     1     -23.171 -18.111 -22.040  1.00  0.00    -0.183 N
ATOM      3  H4  UNL     1     -24.112 -17.726 -21.959  1.00  0.00     0.184 HD
HETATM    4  C4  UNL     1     -22.678 -18.339 -23.259  1.00  0.00     0.713 A
HETATM    5  N6  UNL     1     -21.448 -18.842 -23.429  1.00  0.00    -0.021 N
HETATM    6  N8  UNL     1     -20.748 -19.103 -22.350  1.00  0.00    -0.248 N
ATOM      7  H8  UNL     1     -19.809 -19.487 -22.456  1.00  0.00     0.191 HD
HETATM    8  C9  UNL     1     -21.231 -18.878 -21.077  1.00  0.00     0.146 A
HETATM    9  N9  UNL     1     -20.464 -19.170 -20.121  1.00  0.00    -0.382 N
ATOM     10  H91 UNL     1     -19.530 -19.554 -20.265  1.00  0.00     0.157 HD
ATOM     11  H92 UNL     1     -20.820 -19.004 -19.180  1.00  0.00     0.157 HD
ENDROOT
BRANCH   1  12
HETATM   12  C2  UNL     1     -23.100 -18.085 -19.636  1.00  0.00     0.133 A
HETATM   13  C1  UNL     1     -23.518 -18.798 -18.569  1.00  0.00     0.152 A
HETATM   14  N2  UNL     1     -24.071 -17.934 -17.646  1.00  0.00    -0.224 N
HETATM   15  O1  UNL     1     -23.995 -16.758 -18.123  1.00  0.00    -0.155 OA
ATOM     16  H2  UNL     1     -24.471 -18.192 -16.743  1.00  0.00     0.198 HD
HETATM   17  N3  UNL     1     -23.437 -16.782 -19.283  1.00  0.00    -0.236 N
ATOM     18  H3  UNL     1     -23.266 -15.961 -19.863  1.00  0.00     0.197 HD
BRANCH  13  19
HETATM   19  N1  UNL     1     -23.431 -20.059 -18.411  1.00  0.00    -0.382 N
ATOM     20  H12 UNL     1     -24.127 -20.757 -18.672  1.00  0.00     0.157 HD
ATOM     21  H11 UNL     1     -22.631 -20.532 -17.991  1.00  0.00     0.157 HD
ENDBRANCH  13  19
ENDBRANCH   1  12
BRANCH   4  22
HETATM   22  N5  UNL     1     -23.415 -18.057 -24.298  1.00  0.00    -0.232 N
ATOM     23  H52 UNL     1     -23.678 -17.090 -24.488  1.00  0.00     0.174 HD
ATOM     24  H51 UNL     1     -23.721 -18.818 -24.904  1.00  0.00     0.174 HD
ENDBRANCH   4  22
BRANCH   5  25
HETATM   25  N7  UNL     1     -20.882 -19.110 -24.681  1.00  0.00    -0.292 N
HETATM   26  C5  UNL     1     -19.660 -18.471 -25.184  1.00  0.00     0.145 C
HETATM   27  C6  UNL     1     -19.814 -18.612 -26.689  1.00  0.00     0.023 C
HETATM   28  C7  UNL     1     -20.357 -20.012 -26.794  1.00  0.00     0.023 C
HETATM   29  C8  UNL     1     -21.386 -20.038 -25.661  1.00  0.00     0.145 C
ENDBRANCH   5  25
TORSDOF 4
ENDMDL