MODEL 5
REMARK VINA RESULT: -4.588268190      1.736      3.042
REMARK  4 active torsions:
REMARK  status: ('A' for Active; 'I' for Inactive)
REMARK       I    between atoms: C1_4  and  N2_5
REMARK       I    between atoms: C1_4  and  N4_10
REMARK    1  A    between atoms: N2_5  and  N3_7
REMARK    2  A    between atoms: C2_11  and  C3_12
REMARK    3  A    between atoms: C4_17  and  C5_18
REMARK    4  A    between atoms: C9_24  and  O4_25
ROOT
HETATM    1  N1  UNL     1     -22.579 -15.624 -20.587  1.00  0.00    -0.233 N
ATOM      2  H11 UNL     1     -21.571 -15.596 -20.746  1.00  0.00     0.174 HD
ATOM      3  H12 UNL     1     -23.080 -14.892 -20.084  1.00  0.00     0.174 HD
HETATM    4  C1  UNL     1     -23.251 -16.626 -21.036  1.00  0.00     0.700 C
HETATM    5  N2  UNL     1     -24.650 -16.665 -20.816  1.00  0.00    -0.138 N
ATOM      6  H2  UNL     1     -25.103 -17.576 -20.741  1.00  0.00     0.205 HD
HETATM    7  N4  UNL     1     -22.550 -17.651 -21.740  1.00  0.00    -0.103 N
HETATM    8  C2  UNL     1     -22.101 -18.825 -21.233  1.00  0.00     0.197 A
HETATM    9  N6  UNL     1     -21.501 -19.483 -22.234  1.00  0.00    -0.333 N
ATOM     10  H6  UNL     1     -21.066 -20.402 -22.141  1.00  0.00     0.168 HD
HETATM   11  C4  UNL     1     -21.545 -18.777 -23.375  1.00  0.00     0.096 A
HETATM   12  C9  UNL     1     -22.202 -17.632 -23.059  1.00  0.00     0.193 A
ENDROOT
BRANCH   8  13
HETATM   13  C3  UNL     1     -22.243 -19.290 -19.849  1.00  0.00     0.300 C
HETATM   14  N5  UNL     1     -23.514 -19.472 -19.282  1.00  0.00    -0.054 NA
HETATM   15  O1  UNL     1     -21.213 -19.517 -19.194  1.00  0.00    -0.268 OA
ENDBRANCH   8  13
BRANCH  12  16
HETATM   16  O4  UNL     1     -22.513 -16.566 -23.876  1.00  0.00    -0.344 OA
ATOM     17  H4  UNL     1     -23.385 -16.192 -23.899  1.00  0.00     0.219 HD
ENDBRANCH  12  16
BRANCH   5  18
HETATM   18  N3  UNL     1     -25.441 -15.519 -20.695  1.00  0.00    -0.331 N
ATOM     19  H32 UNL     1     -24.971 -14.617 -20.771  1.00  0.00     0.177 HD
ATOM     20  H31 UNL     1     -26.449 -15.547 -20.537  1.00  0.00     0.177 HD
ENDBRANCH   5  18
BRANCH  11  21
HETATM   21  C5  UNL     1     -20.979 -19.216 -24.658  1.00  0.00     0.018 C
HETATM   22  C6  UNL     1     -21.594 -20.060 -25.454  1.00  0.00     0.149 C
HETATM   23  O2  UNL     1     -20.979 -20.427 -26.667  1.00  0.00    -0.337 OA
HETATM   24  C7  UNL     1     -19.655 -19.966 -26.953  1.00  0.00     0.343 C
HETATM   25  O3  UNL     1     -19.568 -18.656 -26.495  1.00  0.00    -0.362 OA
HETATM   26  C8  UNL     1     -19.658 -18.695 -25.087  1.00  0.00     0.213 C
ENDBRANCH  11  21
TORSDOF 4
ENDMDL