MODEL 2
REMARK VINA RESULT: -5.510107832      4.468      6.563
REMARK  4 active torsions:
REMARK  status: ('A' for Active; 'I' for Inactive)
REMARK    1  A    between atoms: N1_1  and  C1_4
REMARK    2  A    between atoms: C5_8  and  N2_9
REMARK    3  A    between atoms: C9_21  and  N6_22
REMARK    4  A    between atoms: N6_22  and  N7_24
ROOT
HETATM    1  C1  UNL     1     -20.716 -18.585 -24.004  1.00  0.00     0.152 A
HETATM    2  C2  UNL     1     -21.321 -18.595 -22.741  1.00  0.00     0.026 A
HETATM    3  C3  UNL     1     -20.843 -17.860 -21.685  1.00  0.00     0.019 A
HETATM    4  C4  UNL     1     -21.487 -17.907 -20.446  1.00  0.00     0.037 A
HETATM    5  C5  UNL     1     -22.608 -18.684 -20.245  1.00  0.00     0.103 A
HETATM    6  C6  UNL     1     -23.084 -19.421 -21.309  1.00  0.00     0.054 A
HETATM    7  C7  UNL     1     -22.432 -19.366 -22.544  1.00  0.00     0.052 A
HETATM    8  C8  UNL     1     -22.877 -20.086 -23.627  1.00  0.00     0.294 A
HETATM    9  O3  UNL     1     -23.905 -20.803 -23.453  1.00  0.00    -0.264 OA
HETATM   10  N3  UNL     1     -22.263 -20.047 -24.824  1.00  0.00    -0.118 N
HETATM   11  N4  UNL     1     -22.540 -20.662 -25.967  1.00  0.00    -0.203 N
ATOM     12  H4  UNL     1     -23.322 -21.302 -26.104  1.00  0.00     0.211 HD
HETATM   13  N5  UNL     1     -21.676 -20.337 -26.896  1.00  0.00    -0.113 N
ATOM     14  H5  UNL     1     -21.666 -20.671 -27.859  1.00  0.00     0.207 HD
HETATM   15  C9  UNL     1     -20.789 -19.465 -26.328  1.00  0.00     0.737 A
HETATM   16  N8  UNL     1     -21.180 -19.308 -25.047  1.00  0.00    -0.041 N
ENDROOT
BRANCH  15  17
HETATM   17  N6  UNL     1     -19.792 -18.918 -26.912  1.00  0.00    -0.135 N
ATOM     18  H6  UNL     1     -19.155 -18.347 -26.357  1.00  0.00     0.205 HD
BRANCH  17  19
HETATM   19  N7  UNL     1     -19.543 -19.067 -28.255  1.00  0.00    -0.331 N
ATOM     20  H72 UNL     1     -20.279 -18.791 -28.906  1.00  0.00     0.177 HD
ATOM     21  H71 UNL     1     -18.663 -19.435 -28.617  1.00  0.00     0.177 HD
ENDBRANCH  17  19
ENDBRANCH  15  17
BRANCH   1  22
HETATM   22  N1  UNL     1     -19.685 -17.840 -24.101  1.00  0.00    -0.383 N
ATOM     23  H12 UNL     1     -19.321 -17.313 -23.308  1.00  0.00     0.157 HD
ATOM     24  H11 UNL     1     -19.259 -17.813 -25.027  1.00  0.00     0.157 HD
ENDBRANCH   1  22
BRANCH   5  25
HETATM   25  N2  UNL     1     -23.252 -18.717 -18.965  1.00  0.00    -0.116 N
HETATM   26  O1  UNL     1     -23.996 -17.821 -18.573  1.00  0.00    -0.532 OA
HETATM   27  O2  UNL     1     -23.034 -19.785 -18.143  1.00  0.00    -0.532 OA
ENDBRANCH   5  25
TORSDOF 4
ENDMDL