MODEL 5
REMARK VINA RESULT: -5.856544983      1.294      3.271
REMARK  2 active torsions:
REMARK  status: ('A' for Active; 'I' for Inactive)
REMARK    1  A    between atoms: C3_4  and  N2_5
REMARK    2  A    between atoms: C4_7  and  C6_10
ROOT
HETATM    1  N2  UNL     1     -23.273 -17.390 -22.756  1.00  0.00    -0.339 N
ATOM      2  H2  UNL     1     -23.673 -16.647 -23.329  1.00  0.00     0.167 HD
HETATM    3  C4  UNL     1     -23.682 -17.333 -21.583  1.00  0.00     0.161 C
HETATM    4  C5  UNL     1     -24.624 -16.254 -21.259  1.00  0.00     0.121 C
HETATM    5  N3  UNL     1     -25.377 -15.410 -21.019  1.00  0.00    -0.190 NA
ENDROOT
BRANCH   3   6
HETATM    6  C6  UNL     1     -23.340 -18.220 -20.473  1.00  0.00     0.173 A
HETATM    7  N4  UNL     1     -24.249 -18.757 -19.598  1.00  0.00    -0.268 N
HETATM    8  N5  UNL     1     -23.641 -19.501 -18.723  1.00  0.00    -0.131 N
ATOM      9  H4  UNL     1     -25.256 -18.596 -19.629  1.00  0.00     0.189 HD
HETATM   10  C7  UNL     1     -22.324 -19.497 -18.969  1.00  0.00     0.692 A
ATOM     11  H5  UNL     1     -24.096 -20.011 -17.966  1.00  0.00     0.205 HD
HETATM   12  N6  UNL     1     -21.357 -20.094 -18.356  1.00  0.00    -0.233 N
HETATM   13  N7  UNL     1     -22.165 -18.696 -20.057  1.00  0.00    -0.171 N
ATOM     14  H62 UNL     1     -21.476 -20.694 -17.540  1.00  0.00     0.174 HD
ATOM     15  H61 UNL     1     -20.354 -20.090 -18.543  1.00  0.00     0.174 HD
ATOM     16  H7  UNL     1     -21.267 -18.488 -20.496  1.00  0.00     0.186 HD
ENDBRANCH   3   6
BRANCH   1  17
HETATM   17  C3  UNL     1     -22.426 -18.187 -23.483  1.00  0.00     0.118 A
HETATM   18  C2  UNL     1     -21.260 -17.655 -24.008  1.00  0.00     0.130 A
HETATM   19  N1  UNL     1     -20.413 -18.392 -24.702  1.00  0.00    -0.312 N
HETATM   20  C1  UNL     1     -19.168 -17.861 -25.273  1.00  0.00     0.160 C
HETATM   21  C9  UNL     1     -20.659 -19.683 -24.918  1.00  0.00     0.328 A
HETATM   22  N8  UNL     1     -21.782 -20.230 -24.421  1.00  0.00    -0.273 N
HETATM   23  O2  UNL     1     -19.878 -20.405 -25.568  1.00  0.00    -0.246 OA
HETATM   24  C8  UNL     1     -22.684 -19.541 -23.709  1.00  0.00     0.277 A
ATOM     25  H8  UNL     1     -21.955 -21.220 -24.595  1.00  0.00     0.173 HD
HETATM   26  O1  UNL     1     -23.743 -20.078 -23.247  1.00  0.00    -0.266 OA
ENDBRANCH   1  17
TORSDOF 2
ENDMDL