MODEL 1
REMARK VINA RESULT: -6.632105559      0.000      0.000
REMARK  2 active torsions:
REMARK  status: ('A' for Active; 'I' for Inactive)
REMARK    1  A    between atoms: C4_7  and  N3_8
REMARK    2  A    between atoms: C5_11  and  C6_12
REMARK       I    between atoms: C6_12  and  N5_14
ROOT
HETATM    1  N1  UNL     1     -22.490 -19.864 -15.263  1.00  0.00    -0.190 NA
HETATM    2  C1  UNL     1     -22.614 -19.518 -16.364  1.00  0.00     0.119 C
HETATM    3  C2  UNL     1     -22.785 -19.075 -17.720  1.00  0.00     0.145 A
HETATM    4  C3  UNL     1     -23.866 -18.419 -18.280  1.00  0.00     0.147 A
HETATM    5  N2  UNL     1     -23.619 -18.186 -19.581  1.00  0.00    -0.196 N
ATOM      6  H2  UNL     1     -24.244 -17.718 -20.238  1.00  0.00     0.183 HD
HETATM    7  C4  UNL     1     -22.420 -18.674 -19.858  1.00  0.00     0.720 A
HETATM    8  N9  UNL     1     -21.914 -19.211 -18.735  1.00  0.00    -0.177 N
ATOM      9  H9  UNL     1     -20.999 -19.658 -18.664  1.00  0.00     0.185 HD
ENDROOT
BRANCH   7  10
HETATM   10  N3  UNL     1     -21.806 -18.614 -21.158  1.00  0.00    -0.017 N
HETATM   11  N4  UNL     1     -21.682 -17.702 -22.095  1.00  0.00    -0.243 N
HETATM   12  C5  UNL     1     -20.994 -18.495 -22.907  1.00  0.00     0.209 A
ATOM     13  H4  UNL     1     -21.999 -16.735 -22.171  1.00  0.00     0.191 HD
HETATM   14  N8  UNL     1     -21.130 -19.448 -21.916  1.00  0.00    -0.243 N
ATOM     15  H8  UNL     1     -20.826 -20.416 -21.812  1.00  0.00     0.191 HD
BRANCH  12  16
HETATM   16  C6  UNL     1     -20.336 -18.551 -24.213  1.00  0.00     0.307 C
HETATM   17  O1  UNL     1     -19.209 -17.955 -24.369  1.00  0.00    -0.263 OA
HETATM   18  N5  UNL     1     -20.912 -19.239 -25.290  1.00  0.00    -0.174 N
HETATM   19  C7  UNL     1     -20.314 -19.271 -26.517  1.00  0.00     0.352 A
HETATM   20  C8  UNL     1     -22.034 -19.942 -25.334  1.00  0.00     0.352 A
HETATM   21  O2  UNL     1     -19.226 -18.719 -26.874  1.00  0.00    -0.244 OA
HETATM   22  N6  UNL     1     -21.105 -20.010 -27.298  1.00  0.00    -0.247 N
HETATM   23  N7  UNL     1     -22.141 -20.420 -26.605  1.00  0.00    -0.247 N
ATOM     24  H6  UNL     1     -20.932 -20.222 -28.280  1.00  0.00     0.192 HD
ATOM     25  H7  UNL     1     -22.900 -21.001 -26.960  1.00  0.00     0.192 HD
HETATM   26  O3  UNL     1     -22.895 -20.186 -24.456  1.00  0.00    -0.244 OA
ENDBRANCH  12  16
ENDBRANCH   7  10
TORSDOF 2
ENDMDL