MODEL 1
REMARK VINA RESULT: -7.447683597      0.000      0.000
REMARK  3 active torsions:
REMARK  status: ('A' for Active; 'I' for Inactive)
REMARK    1  A    between atoms: C2_2  and  C3_3
REMARK       I    between atoms: N2_6  and  C4_7
REMARK       I    between atoms: C4_7  and  N4_12
REMARK    2  A    between atoms: N3_8  and  O1_10
REMARK    3  A    between atoms: C5_15  and  N5_16
ROOT
HETATM    1  C3  UNL     1     -24.048 -15.991 -22.032  1.00  0.00     0.095 A
HETATM    2  N1  UNL     1     -23.713 -16.803 -22.968  1.00  0.00    -0.269 N
ATOM      3  H1  UNL     1     -24.155 -16.838 -23.887  1.00  0.00     0.189 HD
HETATM    4  N2  UNL     1     -22.667 -17.627 -22.567  1.00  0.00    -0.078 N
HETATM    5  C4  UNL     1     -22.094 -18.638 -23.366  1.00  0.00     0.728 C
HETATM    6  N3  UNL     1     -22.878 -19.457 -24.021  1.00  0.00    -0.096 N
ATOM      7  H3  UNL     1     -23.886 -19.341 -23.932  1.00  0.00     0.213 HD
HETATM    8  N4  UNL     1     -20.704 -18.837 -23.518  1.00  0.00    -0.150 N
ATOM      9  H4  UNL     1     -20.182 -19.220 -22.730  1.00  0.00     0.193 HD
HETATM   10  S1  UNL     1     -19.827 -18.461 -24.991  1.00  0.00     0.058 SA
HETATM   11  C5  UNL     1     -22.302 -17.268 -21.242  1.00  0.00     0.336 A
HETATM   12  N8  UNL     1     -23.226 -16.208 -20.879  1.00  0.00    -0.339 N
ATOM     13  H8  UNL     1     -23.278 -15.717 -19.986  1.00  0.00     0.164 HD
ENDROOT
BRANCH  11  14
HETATM   14  N5  UNL     1     -22.456 -18.320 -20.276  1.00  0.00    -0.314 N
HETATM   15  C6  UNL     1     -21.499 -19.126 -19.582  1.00  0.00     0.149 C
HETATM   16  C7  UNL     1     -22.275 -19.588 -18.345  1.00  0.00     0.142 C
HETATM   17  N6  UNL     1     -23.636 -19.457 -18.755  1.00  0.00    -0.363 N
HETATM   18  C8  UNL     1     -23.729 -18.757 -19.822  1.00  0.00     0.189 C
ATOM     19  H6  UNL     1     -24.429 -19.867 -18.262  1.00  0.00     0.162 HD
HETATM   20  N7  UNL     1     -24.999 -18.461 -20.465  1.00  0.00    -0.064 NA
ENDBRANCH  11  14
BRANCH   1  21
HETATM   21  C2  UNL     1     -25.109 -14.958 -22.060  1.00  0.00     0.073 C
HETATM   22  C1  UNL     1     -25.215 -14.273 -23.398  1.00  0.00     0.013 C
ENDBRANCH   1  21
BRANCH   6  23
HETATM   23  O1  UNL     1     -22.407 -20.454 -24.811  1.00  0.00    -0.276 OA
ATOM     24  H1  UNL     1     -22.256 -20.347 -25.742  1.00  0.00     0.245 HD
ENDBRANCH   6  23
TORSDOF 3
ENDMDL