MODEL 1
REMARK VINA RESULT: -4.345629785      0.000      0.000
REMARK  4 active torsions:
REMARK  status: ('A' for Active; 'I' for Inactive)
REMARK    1  A    between atoms: O1_2  and  N1_3
REMARK    2  A    between atoms: N1_3  and  C2_5
REMARK    3  A    between atoms: C3_8  and  O2_9
REMARK    4  A    between atoms: N3_14  and  N4_15
ROOT
HETATM    1  C2  UNL     1     -21.632 -18.424 -20.791  1.00  0.00     0.729 A
HETATM    2  N2  UNL     1     -21.117 -19.371 -19.985  1.00  0.00    -0.167 N
ATOM      3  H2  UNL     1     -20.300 -19.911 -20.272  1.00  0.00     0.186 HD
HETATM    4  C3  UNL     1     -21.696 -19.588 -18.804  1.00  0.00     0.160 A
HETATM    5  C4  UNL     1     -22.796 -18.892 -18.362  1.00  0.00     0.133 A
HETATM    6  C5  UNL     1     -23.288 -17.923 -19.236  1.00  0.00     0.288 A
HETATM    7  O3  UNL     1     -24.285 -17.233 -18.932  1.00  0.00    -0.265 OA
HETATM    8  N3  UNL     1     -22.705 -17.702 -20.431  1.00  0.00    -0.031 N
ENDROOT
BRANCH   8   9
HETATM    9  N4  UNL     1     -23.252 -16.734 -21.266  1.00  0.00    -0.195 N
HETATM   10  N5  UNL     1     -22.884 -15.423 -21.332  1.00  0.00    -0.076 NA
HETATM   11  C6  UNL     1     -23.862 -14.631 -22.002  1.00  0.00     0.363 C
HETATM   12  N6  UNL     1     -23.811 -15.026 -23.403  1.00  0.00    -0.044 N
HETATM   13  S1  UNL     1     -25.388 -15.608 -21.586  1.00  0.00    -0.088 SA
HETATM   14  C7  UNL     1     -23.941 -16.438 -23.495  1.00  0.00     0.274 C
ATOM     15  H62 UNL     1     -24.504 -14.536 -23.969  1.00  0.00     0.280 HD
ATOM     16  H61 UNL     1     -22.972 -14.683 -23.872  1.00  0.00     0.280 HD
HETATM   17  C8  UNL     1     -24.351 -17.026 -22.193  1.00  0.00     0.214 C
ENDBRANCH   8   9
BRANCH   1  18
HETATM   18  N1  UNL     1     -21.085 -18.172 -21.943  1.00  0.00    -0.095 N
ATOM     19  H1  UNL     1     -20.752 -17.236 -22.175  1.00  0.00     0.213 HD
BRANCH  18  20
HETATM   20  O1  UNL     1     -20.969 -19.204 -22.837  1.00  0.00    -0.271 OA
HETATM   21  C1  UNL     1     -22.082 -19.678 -23.549  1.00  0.00     0.238 C
ENDBRANCH  18  20
ENDBRANCH   1  18
BRANCH   4  22
HETATM   22  O2  UNL     1     -21.176 -20.572 -17.950  1.00  0.00    -0.346 OA
ATOM     23  H2  UNL     1     -21.749 -20.995 -17.321  1.00  0.00     0.219 HD
ENDBRANCH   4  22
TORSDOF 4
ENDMDL