MODEL 4
REMARK VINA RESULT: -6.166064703      2.441      6.024
REMARK  5 active torsions:
REMARK  status: ('A' for Active; 'I' for Inactive)
REMARK    1  A    between atoms: C2_3  and  C3_4
REMARK    2  A    between atoms: C3_4  and  O1_5
REMARK    3  A    between atoms: C3_4  and  O2_7
REMARK    4  A    between atoms: C5_11  and  N2_12
REMARK    5  A    between atoms: C8_15  and  N3_16
ROOT
HETATM    1  N1  UNL     1     -18.268 -17.726 -25.152  1.00  0.00    -0.191 NA
HETATM    2  C1  UNL     1     -19.288 -18.268 -25.107  1.00  0.00     0.134 C
HETATM    3  C2  UNL     1     -20.587 -18.938 -25.031  1.00  0.00     0.310 C
HETATM    4  O3  UNL     1     -20.519 -20.182 -24.445  1.00  0.00    -0.335 OA
HETATM    5  C4  UNL     1     -20.907 -20.030 -23.105  1.00  0.00     0.227 C
HETATM    6  C5  UNL     1     -20.982 -18.519 -22.959  1.00  0.00     0.260 C
HETATM    7  O5  UNL     1     -21.405 -18.143 -24.228  1.00  0.00    -0.312 OA
ENDROOT
BRANCH   3   8
HETATM    8  C3  UNL     1     -21.134 -19.080 -26.431  1.00  0.00     0.334 C
BRANCH   8   9
HETATM    9  O1  UNL     1     -21.490 -20.404 -26.686  1.00  0.00    -0.366 OA
ATOM     10  H1  UNL     1     -20.848 -20.820 -27.248  1.00  0.00     0.212 HD
ENDBRANCH   8   9
BRANCH   8  11
HETATM   11  O2  UNL     1     -20.114 -18.752 -27.322  1.00  0.00    -0.366 OA
ATOM     12  H2  UNL     1     -19.924 -19.523 -27.842  1.00  0.00     0.212 HD
ENDBRANCH   8  11
ENDBRANCH   3   8
BRANCH   6  13
HETATM   13  N2  UNL     1     -21.903 -18.113 -21.928  1.00  0.00    -0.280 N
HETATM   14  C6  UNL     1     -23.120 -17.639 -22.162  1.00  0.00     0.102 A
HETATM   15  C7  UNL     1     -23.947 -17.270 -21.121  1.00  0.00     0.065 A
HETATM   16  C8  UNL     1     -23.528 -17.385 -19.803  1.00  0.00     0.103 A
HETATM   17  N4  UNL     1     -22.286 -17.871 -19.617  1.00  0.00    -0.295 N
HETATM   18  C9  UNL     1     -21.503 -18.222 -20.652  1.00  0.00     0.330 A
ATOM     19  H4  UNL     1     -21.931 -17.975 -18.667  1.00  0.00     0.172 HD
HETATM   20  O4  UNL     1     -20.354 -18.668 -20.379  1.00  0.00    -0.246 OA
BRANCH  16  21
HETATM   21  N3  UNL     1     -24.262 -17.055 -18.811  1.00  0.00    -0.385 N
ATOM     22  H32 UNL     1     -23.854 -16.850 -17.899  1.00  0.00     0.157 HD
ATOM     23  H31 UNL     1     -25.278 -16.978 -18.876  1.00  0.00     0.157 HD
ENDBRANCH  16  21
ENDBRANCH   6  13
TORSDOF 5
ENDMDL