MODEL 4
REMARK VINA RESULT: -4.025901376      1.862      2.136
REMARK  4 active torsions:
REMARK  status: ('A' for Active; 'I' for Inactive)
REMARK    1  A    between atoms: C2_3  and  N2_4
REMARK    2  A    between atoms: C5_12  and  C6_13
REMARK       I    between atoms: C6_13  and  N4_15
REMARK    3  A    between atoms: N4_15  and  N5_17
REMARK    4  A    between atoms: C7_22  and  N7_23
ROOT
HETATM    1  C1  UNL     1     -24.186 -16.253 -23.920  1.00  0.00     0.177 C
HETATM    2  N1  UNL     1     -23.548 -16.477 -22.628  1.00  0.00    -0.168 N
HETATM    3  C2  UNL     1     -22.874 -17.590 -22.286  1.00  0.00     0.187 A
HETATM    4  C5  UNL     1     -22.429 -17.412 -20.993  1.00  0.00     0.165 A
HETATM    5  N6  UNL     1     -22.863 -16.181 -20.612  1.00  0.00    -0.182 N
ATOM      6  H6  UNL     1     -22.691 -15.758 -19.700  1.00  0.00     0.184 HD
HETATM    7  C7  UNL     1     -23.551 -15.603 -21.612  1.00  0.00     0.680 A
ENDROOT
BRANCH   3   8
HETATM    8  N2  UNL     1     -22.674 -18.730 -23.132  1.00  0.00    -0.164 N
HETATM    9  O1  UNL     1     -23.489 -19.727 -23.237  1.00  0.00    -0.169 OA
HETATM   10  C3  UNL     1     -23.037 -20.626 -24.093  1.00  0.00     0.389 A
HETATM   11  O2  UNL     1     -23.624 -21.700 -24.394  1.00  0.00    -0.236 OA
HETATM   12  N3  UNL     1     -21.854 -20.178 -24.569  1.00  0.00    -0.276 N
HETATM   13  C4  UNL     1     -21.648 -18.999 -23.958  1.00  0.00     0.209 A
ATOM     14  H3  UNL     1     -21.247 -20.638 -25.248  1.00  0.00     0.173 HD
HETATM   15  S1  UNL     1     -20.364 -18.008 -24.156  1.00  0.00    -0.038 SA
ENDBRANCH   3   8
BRANCH   4  16
HETATM   16  C6  UNL     1     -21.653 -18.368 -20.221  1.00  0.00     0.290 C
HETATM   17  O3  UNL     1     -20.444 -18.555 -20.491  1.00  0.00    -0.264 OA
HETATM   18  N4  UNL     1     -22.290 -19.092 -19.153  1.00  0.00    -0.271 N
ATOM     19  H4  UNL     1     -23.275 -18.931 -18.945  1.00  0.00     0.189 HD
BRANCH  18  20
HETATM   20  N5  UNL     1     -21.566 -20.005 -18.411  1.00  0.00    -0.342 N
ATOM     21  H52 UNL     1     -20.705 -20.389 -18.801  1.00  0.00     0.176 HD
ATOM     22  H51 UNL     1     -21.895 -20.286 -17.488  1.00  0.00     0.176 HD
ENDBRANCH  18  20
ENDBRANCH   4  16
BRANCH   7  23
HETATM   23  N7  UNL     1     -24.103 -14.435 -21.591  1.00  0.00    -0.234 N
ATOM     24  H72 UNL     1     -23.854 -13.658 -20.979  1.00  0.00     0.174 HD
ATOM     25  H71 UNL     1     -24.870 -14.106 -22.176  1.00  0.00     0.174 HD
ENDBRANCH   7  23
TORSDOF 4
ENDMDL