MODEL 2
REMARK VINA RESULT: -7.710290148      0.625      1.018
REMARK  13 active torsions:
REMARK  status: ('A' for Active; 'I' for Inactive)
REMARK    1  A    between atoms: O1_2  and  C2_3
REMARK    2  A    between atoms: C2_3  and  S1_5
REMARK    3  A    between atoms: S1_5  and  C3_6
REMARK    4  A    between atoms: C3_6  and  C4_7
REMARK    5  A    between atoms: C4_7  and  C5_8
REMARK    6  A    between atoms: C5_8  and  C6_9
REMARK    7  A    between atoms: C6_9  and  C7_10
REMARK    8  A    between atoms: C7_10  and  C8_11
REMARK    9  A    between atoms: C8_11  and  C9_12
REMARK   10  A    between atoms: C9_12  and  C10_13
REMARK   11  A    between atoms: C11_17  and  C12_18
REMARK   12  A    between atoms: C19_26  and  O6_27
REMARK   13  A    between atoms: C21_30  and  O7_31
ROOT
HETATM    1  C9  UNL     1      38.353  41.606  11.565  1.00  0.00     0.193 C
HETATM    2  O5  UNL     1      37.454  42.686  11.618  1.00  0.00    -0.350 OA
HETATM    3  C11 UNL     1      37.441  43.548  12.635  1.00  0.00     0.185 C
HETATM    4  C19 UNL     1      38.770  43.844  13.224  1.00  0.00     0.154 C
HETATM    5  C20 UNL     1      39.466  42.532  13.605  1.00  0.00     0.070 C
HETATM    6  C21 UNL     1      39.646  41.834  12.248  1.00  0.00     0.170 C
ENDROOT
BRANCH   1   7
HETATM    7  C8  UNL     1      37.613  40.471  12.173  1.00  0.00     0.024 C
BRANCH   7   8
HETATM    8  C7  UNL     1      37.851  39.095  11.871  1.00  0.00    -0.005 C
BRANCH   8   9
HETATM    9  C6  UNL     1      37.107  38.064  11.678  1.00  0.00    -0.027 C
BRANCH   9  10
HETATM   10  C5  UNL     1      37.828  36.682  11.617  1.00  0.00     0.028 C
BRANCH  10  11
HETATM   11  C4  UNL     1      36.729  35.701  11.789  1.00  0.00     0.014 C
BRANCH  11  12
HETATM   12  C3  UNL     1      37.154  34.342  12.245  1.00  0.00     0.085 C
BRANCH  12  13
HETATM   13  S1  UNL     1      35.940  33.450  13.171  1.00  0.00    -0.061 SA
BRANCH  13  14
HETATM   14  C2  UNL     1      36.051  31.691  13.123  1.00  0.00     0.321 C
HETATM   15  O2  UNL     1      35.089  30.974  13.479  1.00  0.00    -0.252 OA
BRANCH  14  16
HETATM   16  O1  UNL     1      37.194  31.014  12.699  1.00  0.00    -0.318 OA
HETATM   17  C1  UNL     1      38.361  30.960  13.518  1.00  0.00     0.214 C
ENDBRANCH  14  16
ENDBRANCH  13  14
ENDBRANCH  12  13
ENDBRANCH  11  12
ENDBRANCH  10  11
ENDBRANCH   9  10
ENDBRANCH   8   9
ENDBRANCH   7   8
ENDBRANCH   1   7
BRANCH   1  18
HETATM   18  C10 UNL     1      38.551  41.304  10.097  1.00  0.00     0.216 C
HETATM   19  O3  UNL     1      37.542  41.613   9.356  1.00  0.00    -0.645 OA
HETATM   20  O4  UNL     1      39.594  40.775   9.452  1.00  0.00    -0.645 OA
ENDBRANCH   1  18
BRANCH   6  21
HETATM   21  O7  UNL     1      40.512  42.665  11.531  1.00  0.00    -0.392 OA
ATOM     22  H7  UNL     1      40.134  43.510  11.318  1.00  0.00     0.210 HD
ENDBRANCH   6  21
BRANCH   3  23
HETATM   23  C12 UNL     1      36.360  43.246  13.604  1.00  0.00    -0.026 A
HETATM   24  C13 UNL     1      35.064  43.611  13.210  1.00  0.00     0.010 A
HETATM   25  C14 UNL     1      33.976  43.386  14.024  1.00  0.00     0.009 A
HETATM   26  C15 UNL     1      34.119  42.801  15.246  1.00  0.00    -0.045 A
HETATM   27  C16 UNL     1      32.932  42.553  16.142  1.00  0.00     0.049 C
HETATM   28  C17 UNL     1      35.379  42.438  15.649  1.00  0.00     0.017 A
HETATM   29 BR1  UNL     1      35.697  41.614  17.333  1.00  0.00    -0.051 Br
HETATM   30  C18 UNL     1      36.480  42.665  14.820  1.00  0.00     0.029 A
ENDBRANCH   3  23
BRANCH   4  31
HETATM   31  O6  UNL     1      38.843  44.818  14.171  1.00  0.00    -0.393 OA
ATOM     32  H6  UNL     1      39.660  44.917  14.644  1.00  0.00     0.210 HD
ENDBRANCH   4  31
TORSDOF 13
ENDMDL