MODEL 4
REMARK VINA RESULT: -8.070307236      0.900      1.082
REMARK  12 active torsions:
REMARK  status: ('A' for Active; 'I' for Inactive)
REMARK    1  A    between atoms: C2_2  and  C5_5
REMARK    2  A    between atoms: C5_5  and  C8_8
REMARK    3  A    between atoms: C8_8  and  C9_9
REMARK    4  A    between atoms: N1_12  and  C11_13
REMARK    5  A    between atoms: C11_13  and  C12_14
REMARK    6  A    between atoms: C12_14  and  C13_15
REMARK    7  A    between atoms: C13_15  and  N2_16
REMARK    8  A    between atoms: N2_16  and  C14_18
REMARK    9  A    between atoms: C14_18  and  C15_19
REMARK   10  A    between atoms: C16_20  and  O2_21
REMARK   11  A    between atoms: C20_28  and  N4_29
REMARK   12  A    between atoms: C24_36  and  O6_37
ROOT
HETATM    1  C12 UNL     1      36.892  39.204  11.904  1.00  0.00     0.065 C
ENDROOT
BRANCH   1   2
HETATM    2  C11 UNL     1      37.989  39.925  11.227  1.00  0.00     0.140 C
BRANCH   2   3
HETATM    3  N1  UNL     1      38.097  41.332  11.555  1.00  0.00    -0.284 N
HETATM    4  C10 UNL     1      37.083  42.278  11.067  1.00  0.00     0.235 C
HETATM    5  C9  UNL     1      37.264  43.466  11.922  1.00  0.00     0.139 C
HETATM    6  O1  UNL     1      36.307  42.011  10.129  1.00  0.00    -0.272 OA
HETATM    7  C24 UNL     1      38.805  43.500  11.928  1.00  0.00     0.229 C
HETATM    8  C23 UNL     1      39.035  42.067  12.315  1.00  0.00     0.277 C
HETATM    9 CL1  UNL     1      39.339  43.716  10.273  1.00  0.00    -0.077 Cl
HETATM   10  O5  UNL     1      39.851  41.608  13.118  1.00  0.00    -0.268 OA
BRANCH   5  11
HETATM   11  C8  UNL     1      36.720  43.286  13.279  1.00  0.00     0.028 C
BRANCH  11  12
HETATM   12  C5  UNL     1      35.807  44.304  13.851  1.00  0.00    -0.040 C
HETATM   13  C6  UNL     1      35.856  45.606  13.053  1.00  0.00     0.015 C
HETATM   14  C7  UNL     1      34.377  43.942  14.053  1.00  0.00     0.015 C
BRANCH  12  15
HETATM   15  C2  UNL     1      36.338  44.669  15.250  1.00  0.00    -0.044 C
HETATM   16  C1  UNL     1      35.240  44.763  16.250  1.00  0.00     0.015 C
HETATM   17  C3  UNL     1      37.254  43.502  15.656  1.00  0.00     0.015 C
HETATM   18  C4  UNL     1      37.202  45.886  15.235  1.00  0.00     0.015 C
ENDBRANCH  12  15
ENDBRANCH  11  12
ENDBRANCH   5  11
BRANCH   7  19
HETATM   19  O6  UNL     1      39.336  44.410  12.778  1.00  0.00    -0.366 OA
ATOM     20  H6  UNL     1      39.053  45.303  12.618  1.00  0.00     0.212 HD
ENDBRANCH   7  19
ENDBRANCH   2   3
ENDBRANCH   1   2
BRANCH   1  21
HETATM   21  C13 UNL     1      37.379  38.069  12.762  1.00  0.00     0.062 C
BRANCH  21  22
HETATM   22  N2  UNL     1      36.925  36.840  12.385  1.00  0.00    -0.378 N
ATOM     23  H2  UNL     1      35.912  36.931  12.460  1.00  0.00     0.164 HD
BRANCH  22  24
HETATM   24  C14 UNL     1      37.072  35.729  12.021  1.00  0.00     0.104 C
BRANCH  24  25
HETATM   25  C15 UNL     1      36.158  34.625  12.354  1.00  0.00     0.043 A
HETATM   26  C16 UNL     1      34.779  34.661  12.294  1.00  0.00     0.153 A
HETATM   27  N3  UNL     1      34.328  33.462  12.671  1.00  0.00    -0.336 N
HETATM   28  C17 UNL     1      35.357  32.659  12.970  1.00  0.00     0.045 A
ATOM     29  H3  UNL     1      33.344  33.197  12.724  1.00  0.00     0.168 HD
HETATM   30  C18 UNL     1      35.456  31.350  13.400  1.00  0.00     0.033 A
HETATM   31  C22 UNL     1      36.518  33.371  12.777  1.00  0.00     0.009 A
HETATM   32  C19 UNL     1      36.657  30.750  13.638  1.00  0.00     0.038 A
HETATM   33  C20 UNL     1      37.841  31.457  13.448  1.00  0.00     0.103 A
HETATM   34  C21 UNL     1      37.757  32.755  13.021  1.00  0.00     0.050 A
BRANCH  26  35
HETATM   35  O2  UNL     1      33.995  35.759  11.908  1.00  0.00    -0.345 OA
ATOM     36  H2  UNL     1      33.788  36.516  12.444  1.00  0.00     0.219 HD
ENDBRANCH  26  35
BRANCH  33  37
HETATM   37  N4  UNL     1      39.082  30.819  13.700  1.00  0.00    -0.116 N
HETATM   38  O3  UNL     1      40.094  31.520  13.886  1.00  0.00    -0.532 OA
HETATM   39  O4  UNL     1      39.187  29.456  13.739  1.00  0.00    -0.532 OA
ENDBRANCH  33  37
ENDBRANCH  24  25
ENDBRANCH  22  24
ENDBRANCH  21  22
ENDBRANCH   1  21
TORSDOF 12
ENDMDL