MODEL 1
REMARK VINA RESULT: -6.440344909      0.000      0.000
REMARK  11 active torsions:
REMARK  status: ('A' for Active; 'I' for Inactive)
REMARK    1  A    between atoms: O1_2  and  C2_3
REMARK    2  A    between atoms: C2_3  and  C3_5
REMARK    3  A    between atoms: C3_5  and  O3_6
REMARK    4  A    between atoms: C5_9  and  O4_10
REMARK    5  A    between atoms: C8_14  and  S1_15
REMARK    6  A    between atoms: C13_21  and  C14_22
REMARK    7  A    between atoms: C14_22  and  C15_23
REMARK    8  A    between atoms: C18_27  and  C19_28
REMARK    9  A    between atoms: C19_28  and  C21_30
REMARK   10  A    between atoms: C19_28  and  C24_34
REMARK   11  A    between atoms: C21_30  and  C22_31
ROOT
HETATM    1  C3  UNL     1      33.230  43.201  15.998  1.00  0.00     0.152 C
HETATM    2  C4  UNL     1      33.790  43.368  17.423  1.00  0.00     0.081 C
HETATM    3  C5  UNL     1      34.493  44.549  17.857  1.00  0.00     0.127 C
HETATM    4  C6  UNL     1      35.953  44.726  17.810  1.00  0.00     0.089 C
HETATM    5  C7  UNL     1      36.591  44.555  16.417  1.00  0.00     0.016 C
HETATM    6  C8  UNL     1      37.847  44.316  16.490  1.00  0.00     0.069 C
HETATM    7  N1  UNL     1      36.066  44.550  15.107  1.00  0.00    -0.377 N
HETATM    8  C10 UNL     1      34.660  44.811  14.813  1.00  0.00     0.131 C
HETATM    9  C11 UNL     1      34.241  43.304  15.028  1.00  0.00     0.049 C
HETATM   10  C12 UNL     1      34.582  42.753  13.751  1.00  0.00     0.016 C
HETATM   11  C13 UNL     1      36.057  42.857  13.443  1.00  0.00     0.013 C
HETATM   12  C18 UNL     1      36.849  44.061  14.105  1.00  0.00     0.101 C
ENDROOT
BRANCH  12  13
HETATM   13  C19 UNL     1      37.221  44.932  12.873  1.00  0.00     0.002 C
HETATM   14  C20 UNL     1      36.322  44.793  11.699  1.00  0.00     0.022 C
BRANCH  13  15
HETATM   15  C21 UNL     1      38.655  44.528  12.632  1.00  0.00     0.034 C
BRANCH  15  16
HETATM   16  C22 UNL     1      39.275  44.475  11.343  1.00  0.00     0.142 C
HETATM   17  C23 UNL     1      39.108  43.536  10.219  1.00  0.00     0.095 C
HETATM   18  O5  UNL     1      40.128  45.370  11.081  1.00  0.00    -0.294 OA
ENDBRANCH  15  16
ENDBRANCH  13  15
BRANCH  13  19
HETATM   19  C24 UNL     1      37.081  46.397  13.183  1.00  0.00    -0.000 A
HETATM   20  C25 UNL     1      37.480  47.549  12.421  1.00  0.00     0.006 A
HETATM   21  C26 UNL     1      36.033  47.311  12.738  1.00  0.00     0.006 A
ENDBRANCH  13  19
ENDBRANCH  12  13
BRANCH  11  22
HETATM   22  C14 UNL     1      36.689  41.565  13.898  1.00  0.00     0.035 C
BRANCH  22  23
HETATM   23  C15 UNL     1      36.825  40.543  12.832  1.00  0.00    -0.007 C
HETATM   24  C16 UNL     1      38.059  40.361  12.339  1.00  0.00     0.004 C
HETATM   25  C17 UNL     1      38.305  39.358  11.265  1.00  0.00     0.061 C
HETATM   26 CL1  UNL     1      39.450  41.258  12.903  1.00  0.00    -0.090 Cl
ENDBRANCH  22  23
ENDBRANCH  11  22
BRANCH   6  27
HETATM   27  S1  UNL     1      38.623  44.218  18.098  1.00  0.00    -0.144 SA
HETATM   28  C9  UNL     1      38.437  42.544  18.787  1.00  0.00     0.095 C
ENDBRANCH   6  27
BRANCH   3  29
HETATM   29  O4  UNL     1      34.310  44.478  19.308  1.00  0.00    -0.395 OA
ATOM     30  H4  UNL     1      35.135  44.831  19.619  1.00  0.00     0.210 HD
ENDBRANCH   3  29
BRANCH   1  31
HETATM   31  C2  UNL     1      31.949  43.880  15.797  1.00  0.00     0.293 C
HETATM   32  O2  UNL     1      31.511  44.100  14.651  1.00  0.00    -0.262 OA
BRANCH  31  33
HETATM   33  O1  UNL     1      31.120  44.333  16.837  1.00  0.00    -0.324 OA
HETATM   34  C1  UNL     1      30.345  45.529  16.690  1.00  0.00     0.213 C
ENDBRANCH  31  33
ENDBRANCH   1  31
BRANCH   1  35
HETATM   35  O3  UNL     1      32.854  41.795  16.033  1.00  0.00    -0.379 OA
ATOM     36  H3  UNL     1      33.641  41.370  16.353  1.00  0.00     0.211 HD
ENDBRANCH   1  35
TORSDOF 11
ENDMDL