MODEL 1
REMARK VINA RESULT: -6.363635440      0.000      0.000
REMARK  11 active torsions:
REMARK  status: ('A' for Active; 'I' for Inactive)
REMARK    1  A    between atoms: C2_2  and  S1_5
REMARK    2  A    between atoms: S1_5  and  C5_6
REMARK    3  A    between atoms: C5_6  and  C6_7
REMARK    4  A    between atoms: C7_9  and  C8_10
REMARK    5  A    between atoms: C9_12  and  C10_13
REMARK    6  A    between atoms: C10_13  and  C11_14
REMARK    7  A    between atoms: C12_15  and  C13_16
REMARK    8  A    between atoms: C13_16  and  C14_17
REMARK    9  A    between atoms: C16_21  and  C17_22
REMARK   10  A    between atoms: C21_27  and  O4_28
REMARK   11  A    between atoms: C22_30  and  O5_31
ROOT
HETATM    1  C8  UNL     1      38.062  44.289  12.714  1.00  0.00     0.187 C
HETATM    2  O2  UNL     1      37.563  43.089  12.133  1.00  0.00    -0.373 OA
HETATM    3  C9  UNL     1      38.482  42.602  11.194  1.00  0.00     0.149 C
HETATM    4  C15 UNL     1      38.690  43.658  10.104  1.00  0.00     0.201 C
HETATM    5  O3  UNL     1      37.775  44.659  10.351  1.00  0.00    -0.376 OA
HETATM    6  C16 UNL     1      38.141  45.253  11.598  1.00  0.00     0.193 C
ENDROOT
BRANCH   1   7
HETATM    7  C7  UNL     1      37.188  44.659  13.885  1.00  0.00     0.185 C
HETATM    8  O1  UNL     1      36.074  43.809  13.824  1.00  0.00    -0.372 OA
HETATM    9  C6  UNL     1      35.646  43.601  15.133  1.00  0.00     0.162 C
HETATM   10  C22 UNL     1      36.898  43.339  15.890  1.00  0.00     0.179 C
HETATM   11  C21 UNL     1      37.896  44.236  15.183  1.00  0.00     0.181 C
BRANCH   9  12
HETATM   12  C5  UNL     1      34.761  42.354  15.202  1.00  0.00     0.109 C
BRANCH  12  13
HETATM   13  S1  UNL     1      33.216  42.799  16.025  1.00  0.00    -0.158 SA
BRANCH  13  14
HETATM   14  C2  UNL     1      33.089  42.056  17.672  1.00  0.00    -0.003 C
HETATM   15  C1  UNL     1      32.114  40.884  17.666  1.00  0.00     0.026 C
HETATM   16  C3  UNL     1      34.401  41.480  18.177  1.00  0.00     0.026 C
HETATM   17  C4  UNL     1      32.613  43.087  18.648  1.00  0.00     0.026 C
ENDBRANCH  13  14
ENDBRANCH  12  13
ENDBRANCH   9  12
BRANCH  10  18
HETATM   18  O5  UNL     1      36.714  43.705  17.235  1.00  0.00    -0.390 OA
ATOM     19  H5  UNL     1      35.827  43.494  17.501  1.00  0.00     0.210 HD
ENDBRANCH  10  18
BRANCH  11  20
HETATM   20  O4  UNL     1      38.987  43.412  14.880  1.00  0.00    -0.390 OA
ATOM     21  H4  UNL     1      39.445  43.178  15.679  1.00  0.00     0.210 HD
ENDBRANCH  11  20
ENDBRANCH   1   7
BRANCH   6  22
HETATM   22  C17 UNL     1      37.303  46.495  11.736  1.00  0.00     0.014 A
HETATM   23  C18 UNL     1      36.181  46.818  11.005  1.00  0.00     0.018 A
HETATM   24  C19 UNL     1      35.598  47.993  11.253  1.00  0.00     0.008 A
HETATM   25  C20 UNL     1      36.163  48.786  12.217  1.00  0.00     0.050 A
HETATM   26  S2  UNL     1      37.487  47.859  12.741  1.00  0.00    -0.104 SA
ENDBRANCH   6  22
BRANCH   3  27
HETATM   27  C10 UNL     1      39.835  42.305  11.742  1.00  0.00     0.061 C
BRANCH  27  28
HETATM   28  C11 UNL     1      40.206  40.918  11.290  1.00  0.00    -0.028 C
HETATM   29  C12 UNL     1      39.261  40.059  11.005  1.00  0.00    -0.030 C
BRANCH  29  30
HETATM   30  C13 UNL     1      39.604  38.688  10.559  1.00  0.00     0.037 C
BRANCH  30  31
HETATM   31  C14 UNL     1      38.485  37.751  10.926  1.00  0.00     0.089 C
HETATM   32 BR1  UNL     1      37.191  38.793  11.936  1.00  0.00    -0.096 Br
ENDBRANCH  30  31
ENDBRANCH  29  30
ENDBRANCH  27  28
ENDBRANCH   3  27
TORSDOF 11
ENDMDL