MODEL 5
REMARK VINA RESULT: -8.025618100      4.004      8.911
REMARK  12 active torsions:
REMARK  status: ('A' for Active; 'I' for Inactive)
REMARK    1  A    between atoms: O1_2  and  C2_3
REMARK    2  A    between atoms: C2_3  and  C3_5
REMARK    3  A    between atoms: C3_5  and  C4_6
REMARK    4  A    between atoms: C4_6  and  C5_7
REMARK    5  A    between atoms: C5_7  and  C6_8
REMARK    6  A    between atoms: C6_8  and  C7_9
REMARK    7  A    between atoms: C7_9  and  O3_12
REMARK    8  A    between atoms: O3_12  and  C10_13
REMARK    9  A    between atoms: C10_13  and  O4_14
REMARK   10  A    between atoms: C10_13  and  N1_16
REMARK   11  A    between atoms: N1_16  and  C11_18
REMARK   12  A    between atoms: C24_33  and  O6_34
ROOT
HETATM    1  C11 UNL     1      37.073  44.550  12.530  1.00  0.00     0.090 C
HETATM    2  C12 UNL     1      35.897  43.663  12.833  1.00  0.00     0.026 C
HETATM    3  C13 UNL     1      36.451  42.228  12.877  1.00  0.00     0.012 C
HETATM    4  C14 UNL     1      37.878  42.391  12.560  1.00  0.00    -0.027 C
HETATM    5  C15 UNL     1      38.525  42.936  13.851  1.00  0.00     0.016 C
HETATM    6  C16 UNL     1      38.680  41.232  12.114  1.00  0.00     0.044 C
HETATM    7  C17 UNL     1      38.022  40.030  11.592  1.00  0.00     0.095 C
HETATM    8  C18 UNL     1      37.263  39.189  12.529  1.00  0.00     0.139 C
HETATM    9  O5  UNL     1      36.956  39.284  13.632  1.00  0.00    -0.297 OA
HETATM   10  C19 UNL     1      36.951  38.038  11.598  1.00  0.00     0.106 C
HETATM   11  C20 UNL     1      38.373  37.830  11.125  1.00  0.00    -0.013 C
HETATM   12  C21 UNL     1      39.018  39.031  11.125  1.00  0.00    -0.038 C
HETATM   13  C22 UNL     1      40.420  39.294  10.752  1.00  0.00     0.202 C
HETATM   14  F1  UNL     1      40.523  39.123   9.372  1.00  0.00    -0.245 F
HETATM   15  C23 UNL     1      40.871  40.650  11.162  1.00  0.00     0.080 C
HETATM   16  C24 UNL     1      39.702  41.650  11.049  1.00  0.00     0.066 C
HETATM   17  C25 UNL     1      40.264  43.000  11.240  1.00  0.00     0.039 C
HETATM   18  C26 UNL     1      39.230  44.090  11.349  1.00  0.00     0.015 C
HETATM   19  C27 UNL     1      37.861  43.584  11.621  1.00  0.00    -0.016 C
HETATM   20  C28 UNL     1      37.006  43.424  10.409  1.00  0.00     0.018 C
ENDROOT
BRANCH   1  21
HETATM   21  N1  UNL     1      36.720  45.679  11.706  1.00  0.00    -0.370 N
ATOM     22  H1  UNL     1      36.342  45.567  10.765  1.00  0.00     0.158 HD
BRANCH  21  23
HETATM   23  C10 UNL     1      36.933  46.959  12.291  1.00  0.00     0.364 C
BRANCH  23  24
HETATM   24  O3  UNL     1      36.997  46.824  13.652  1.00  0.00    -0.334 OA
BRANCH  24  25
HETATM   25  C7  UNL     1      36.263  47.687  14.402  1.00  0.00     0.058 C
HETATM   26  C8  UNL     1      37.003  48.886  14.951  1.00  0.00     0.045 C
HETATM   27  C9  UNL     1      35.105  48.288  13.547  1.00  0.00     0.045 C
BRANCH  25  28
HETATM   28  C6  UNL     1      35.555  47.010  15.535  1.00  0.00     0.037 C
BRANCH  28  29
HETATM   29  C5  UNL     1      36.139  45.734  16.030  1.00  0.00     0.004 C
BRANCH  29  30
HETATM   30  C4  UNL     1      35.089  44.672  16.161  1.00  0.00     0.010 C
BRANCH  30  31
HETATM   31  C3  UNL     1      33.841  45.055  15.447  1.00  0.00     0.111 C
BRANCH  31  32
HETATM   32  C2  UNL     1      32.949  43.905  15.227  1.00  0.00     0.258 C
HETATM   33  O2  UNL     1      31.815  43.939  14.691  1.00  0.00    -0.265 OA
BRANCH  32  34
HETATM   34  O1  UNL     1      33.369  42.611  15.642  1.00  0.00    -0.326 OA
HETATM   35  C1  UNL     1      32.698  41.963  16.698  1.00  0.00     0.213 C
ENDBRANCH  32  34
ENDBRANCH  31  32
ENDBRANCH  30  31
ENDBRANCH  29  30
ENDBRANCH  28  29
ENDBRANCH  25  28
ENDBRANCH  24  25
ENDBRANCH  23  24
BRANCH  23  36
HETATM   36  O4  UNL     1      38.116  47.564  11.862  1.00  0.00    -0.355 OA
ATOM     37  H4  UNL     1      37.906  48.134  11.132  1.00  0.00     0.214 HD
ENDBRANCH  23  36
ENDBRANCH  21  23
ENDBRANCH   1  21
BRANCH  16  38
HETATM   38  O6  UNL     1      39.221  41.387   9.754  1.00  0.00    -0.389 OA
ATOM     39  H6  UNL     1      38.348  41.014   9.782  1.00  0.00     0.210 HD
ENDBRANCH  16  38
TORSDOF 12
ENDMDL