MODEL 2
REMARK VINA RESULT: -8.102732663      2.877      5.435
REMARK  11 active torsions:
REMARK  status: ('A' for Active; 'I' for Inactive)
REMARK    1  A    between atoms: S1_2  and  C2_3
REMARK    2  A    between atoms: C2_3  and  N2_7
REMARK    3  A    between atoms: N2_7  and  C3_9
REMARK    4  A    between atoms: C6_12  and  N3_13
REMARK    5  A    between atoms: N4_16  and  C9_17
REMARK    6  A    between atoms: C9_17  and  C10_18
REMARK    7  A    between atoms: C10_18  and  O1_19
REMARK    8  A    between atoms: O1_19  and  C11_20
REMARK    9  A    between atoms: C11_20  and  C12_21
REMARK       I    between atoms: C12_21  and  N5_23
REMARK   10  A    between atoms: C20_31  and  N6_32
REMARK   11  A    between atoms: C21_34  and  C22_35
ROOT
HETATM    1  C3  UNL     1      38.299  44.895  12.006  1.00  0.00     0.061 A
HETATM    2  C4  UNL     1      39.469  44.936  11.278  1.00  0.00     0.034 A
HETATM    3  C5  UNL     1      39.982  43.822  10.658  1.00  0.00     0.031 A
HETATM    4  C6  UNL     1      39.323  42.631  10.757  1.00  0.00     0.032 A
HETATM    5  C19 UNL     1      38.147  42.558  11.479  1.00  0.00     0.061 A
HETATM    6  C20 UNL     1      37.660  43.701  12.091  1.00  0.00     0.060 A
ENDROOT
BRANCH   4   7
HETATM    7  N3  UNL     1      39.809  41.428  10.170  1.00  0.00    -0.378 N
HETATM    8  C7  UNL     1      40.969  40.728  10.679  1.00  0.00     0.142 C
HETATM    9  C8  UNL     1      40.619  39.276  10.919  1.00  0.00     0.136 C
HETATM   10  N4  UNL     1      39.297  39.035  10.470  1.00  0.00    -0.407 N
HETATM   11  C17 UNL     1      39.019  39.404   9.127  1.00  0.00     0.136 C
HETATM   12  C18 UNL     1      39.141  40.902   8.995  1.00  0.00     0.142 C
BRANCH  10  13
HETATM   13  C9  UNL     1      38.698  37.812  10.907  1.00  0.00     0.143 C
BRANCH  13  14
HETATM   14  C10 UNL     1      37.691  38.117  11.996  1.00  0.00     0.187 C
BRANCH  14  15
HETATM   15  O1  UNL     1      37.444  36.999  12.757  1.00  0.00    -0.380 OA
BRANCH  15  16
HETATM   16  C11 UNL     1      37.672  35.842  12.077  1.00  0.00     0.270 C
BRANCH  16  17
HETATM   17  C12 UNL     1      36.596  34.860  12.257  1.00  0.00     0.243 C
HETATM   18  O2  UNL     1      35.465  35.194  11.738  1.00  0.00    -0.271 OA
HETATM   19  N5  UNL     1      36.752  33.645  12.926  1.00  0.00    -0.350 N
HETATM   20  C13 UNL     1      37.933  33.061  13.503  1.00  0.00     0.126 C
HETATM   21  C16 UNL     1      35.633  32.721  13.140  1.00  0.00     0.126 C
HETATM   22  C14 UNL     1      37.689  31.568  13.222  1.00  0.00     0.021 C
HETATM   23  C15 UNL     1      36.251  31.448  13.659  1.00  0.00     0.021 C
ENDBRANCH  16  17
ENDBRANCH  15  16
ENDBRANCH  14  15
ENDBRANCH  13  14
ENDBRANCH  10  13
ENDBRANCH   4   7
BRANCH   6  24
HETATM   24  N6  UNL     1      36.443  43.585  12.836  1.00  0.00    -0.367 N
HETATM   25  C21 UNL     1      36.195  42.514  13.507  1.00  0.00     0.066 C
ATOM     26  H6  UNL     1      35.771  44.353  12.836  1.00  0.00     0.165 HD
BRANCH  25  27
HETATM   27  C22 UNL     1      34.960  42.341  14.289  1.00  0.00     0.024 C
HETATM   28  C23 UNL     1      35.298  42.283  15.750  1.00  0.00     0.010 C
HETATM   29  C24 UNL     1      34.260  43.155  16.441  1.00  0.00     0.001 C
HETATM   30  C25 UNL     1      33.219  43.464  15.404  1.00  0.00     0.001 C
HETATM   31  C26 UNL     1      33.984  43.467  14.087  1.00  0.00     0.010 C
ENDBRANCH  25  27
ENDBRANCH   6  24
BRANCH   1  32
HETATM   32  N2  UNL     1      37.803  46.079  12.635  1.00  0.00    -0.335 N
ATOM     33  H2  UNL     1      37.926  46.187  13.641  1.00  0.00     0.168 HD
BRANCH  32  34
HETATM   34  C2  UNL     1      37.150  47.102  11.919  1.00  0.00     0.138 C
HETATM   35  N1  UNL     1      36.469  46.803  10.868  1.00  0.00    -0.380 N
ATOM     36  H12 UNL     1      35.997  47.543  10.349  1.00  0.00     0.158 HD
ATOM     37  H11 UNL     1      36.421  45.826  10.579  1.00  0.00     0.158 HD
BRANCH  34  38
HETATM   38  S1  UNL     1      37.234  48.802  12.422  1.00  0.00    -0.099 SA
HETATM   39  C1  UNL     1      36.850  49.917  11.036  1.00  0.00     0.099 C
ENDBRANCH  34  38
ENDBRANCH  32  34
ENDBRANCH   1  32
TORSDOF 11
ENDMDL