MODEL 4
REMARK VINA RESULT: -8.830887264      1.202      1.502
REMARK  11 active torsions:
REMARK  status: ('A' for Active; 'I' for Inactive)
REMARK    1  A    between atoms: N1_2  and  C2_3
REMARK    2  A    between atoms: N1_2  and  C23_35
REMARK    3  A    between atoms: C2_3  and  C3_4
REMARK    4  A    between atoms: C3_4  and  C4_5
REMARK    5  A    between atoms: C4_5  and  N2_6
REMARK    6  A    between atoms: N2_6  and  C5_8
REMARK    7  A    between atoms: C5_8  and  C6_9
REMARK    8  A    between atoms: C6_9  and  C7_10
REMARK    9  A    between atoms: C7_10  and  N3_11
REMARK   10  A    between atoms: C8_12  and  O1_13
REMARK   11  A    between atoms: C11_17  and  O2_18
ROOT
HETATM    1  N3  UNL     1      38.294  39.992  11.650  1.00  0.00    -0.307 N
HETATM    2  C8  UNL     1      38.759  40.950  10.856  1.00  0.00     0.161 A
HETATM    3  C9  UNL     1      38.098  42.127  11.132  1.00  0.00     0.098 A
HETATM    4  C10 UNL     1      37.194  41.828  12.143  1.00  0.00     0.062 A
HETATM    5  C11 UNL     1      37.333  40.473  12.460  1.00  0.00     0.156 A
HETATM    6  C12 UNL     1      36.407  43.007  12.475  1.00  0.00     0.147 A
HETATM    7  C13 UNL     1      34.977  42.720  11.952  1.00  0.00     0.070 C
HETATM    8  N4  UNL     1      36.314  43.380  13.852  1.00  0.00    -0.321 N
HETATM    9  C14 UNL     1      36.698  42.510  14.913  1.00  0.00     0.156 C
HETATM   10  C15 UNL     1      35.805  44.703  14.165  1.00  0.00     0.258 C
HETATM   11  O3  UNL     1      35.293  44.938  15.282  1.00  0.00    -0.267 OA
HETATM   12  C16 UNL     1      35.902  45.753  13.151  1.00  0.00     0.059 A
HETATM   13  C17 UNL     1      35.428  47.010  13.428  1.00  0.00     0.019 A
HETATM   14  C18 UNL     1      35.563  47.945  12.408  1.00  0.00     0.001 A
HETATM   15  C19 UNL     1      36.131  47.666  11.188  1.00  0.00     0.002 A
HETATM   16  C20 UNL     1      36.599  46.369  10.958  1.00  0.00     0.031 A
HETATM   17  C21 UNL     1      36.484  45.426  11.932  1.00  0.00     0.056 A
HETATM   18  N5  UNL     1      36.971  44.086  11.694  1.00  0.00    -0.281 N
HETATM   19  C22 UNL     1      37.952  43.548  10.847  1.00  0.00     0.266 A
HETATM   20  O4  UNL     1      38.612  44.178   9.974  1.00  0.00    -0.267 OA
ENDROOT
BRANCH   1  21
HETATM   21  C7  UNL     1      38.738  38.627  11.649  1.00  0.00     0.138 C
BRANCH  21  22
HETATM   22  C6  UNL     1      37.644  37.710  11.081  1.00  0.00     0.065 C
BRANCH  22  23
HETATM   23  C5  UNL     1      37.366  36.673  12.138  1.00  0.00     0.061 C
BRANCH  23  24
HETATM   24  N2  UNL     1      36.239  35.860  11.937  1.00  0.00    -0.382 N
ATOM     25  H2  UNL     1      35.454  36.209  11.388  1.00  0.00     0.163 HD
BRANCH  24  26
HETATM   26  C4  UNL     1      36.185  34.566  12.491  1.00  0.00     0.062 C
BRANCH  26  27
HETATM   27  C3  UNL     1      37.485  34.208  13.195  1.00  0.00     0.074 C
BRANCH  27  28
HETATM   28  C2  UNL     1      38.290  33.224  12.407  1.00  0.00     0.279 C
BRANCH  28  29
HETATM   29  N1  UNL     1      39.070  32.299  13.206  1.00  0.00     0.108 N
HETATM   30  C1  UNL     1      38.833  32.762  14.596  1.00  0.00     0.312 C
BRANCH  29  31
HETATM   31  C23 UNL     1      38.585  30.944  13.138  1.00  0.00     0.227 C
HETATM   32  C24 UNL     1      39.188  29.982  14.093  1.00  0.00     0.067 C
HETATM   33  C25 UNL     1      38.975  30.433  11.735  1.00  0.00     0.067 C
HETATM   34 CL1  UNL     1      36.822  30.795  13.187  1.00  0.00    -0.086 Cl
ENDBRANCH  29  31
ENDBRANCH  28  29
ENDBRANCH  27  28
ENDBRANCH  26  27
ENDBRANCH  24  26
ENDBRANCH  23  24
ENDBRANCH  22  23
ENDBRANCH  21  22
ENDBRANCH   1  21
BRANCH   2  35
HETATM   35  O1  UNL     1      39.751  40.801   9.904  1.00  0.00    -0.345 OA
ATOM     36  H1  UNL     1      39.801  40.104   9.260  1.00  0.00     0.219 HD
ENDBRANCH   2  35
BRANCH   5  37
HETATM   37  O2  UNL     1      36.664  39.704  13.393  1.00  0.00    -0.345 OA
ATOM     38  H2  UNL     1      36.195  40.068  14.134  1.00  0.00     0.219 HD
ENDBRANCH   5  37
TORSDOF 11
ENDMDL