MODEL 3
REMARK VINA RESULT: -7.044953990      1.517      1.860
REMARK  12 active torsions:
REMARK  status: ('A' for Active; 'I' for Inactive)
REMARK    1  A    between atoms: C3_3  and  C4_4
REMARK    2  A    between atoms: C7_8  and  C8_9
REMARK    3  A    between atoms: C8_9  and  C9_10
REMARK    4  A    between atoms: C14_17  and  C15_18
REMARK    5  A    between atoms: C15_18  and  O3_20
REMARK    6  A    between atoms: O3_20  and  C16_21
REMARK    7  A    between atoms: C16_21  and  C17_22
REMARK    8  A    between atoms: C22_27  and  O4_28
REMARK    9  A    between atoms: C23_30  and  C24_31
REMARK   10  A    between atoms: C24_31  and  C25_32
REMARK   11  A    between atoms: C25_32  and  O5_33
REMARK   12  A    between atoms: C26_35  and  O6_36
ROOT
HETATM    1  C4  UNL     1      37.374  44.472  11.973  1.00  0.00     0.043 C
HETATM    2 CL1  UNL     1      38.240  44.377  10.363  1.00  0.00    -0.084 Cl
HETATM    3  C5  UNL     1      36.954  45.666  12.241  1.00  0.00    -0.056 C
HETATM    4  C6  UNL     1      37.208  46.766  11.231  1.00  0.00     0.048 C
HETATM    5  C7  UNL     1      35.998  47.676  11.247  1.00  0.00     0.065 C
HETATM    6  C13 UNL     1      35.993  48.338  12.573  1.00  0.00     0.145 C
HETATM    7  O1  UNL     1      35.576  49.446  12.732  1.00  0.00    -0.297 OA
HETATM    8  C14 UNL     1      36.533  47.565  13.717  1.00  0.00     0.159 C
HETATM    9  C20 UNL     1      36.253  46.050  13.481  1.00  0.00     0.058 C
ENDROOT
BRANCH   1  10
HETATM   10  C3  UNL     1      37.324  43.195  12.658  1.00  0.00    -0.026 C
HETATM   11  C2  UNL     1      38.468  42.343  12.841  1.00  0.00    -0.030 C
HETATM   12  C1  UNL     1      39.553  42.698  13.518  1.00  0.00     0.022 C
HETATM   13  C26 UNL     1      38.447  40.950  12.298  1.00  0.00     0.157 C
HETATM   14  C23 UNL     1      37.252  40.196  12.875  1.00  0.00     0.050 C
HETATM   15  C22 UNL     1      36.083  41.125  13.070  1.00  0.00     0.129 C
HETATM   16  C21 UNL     1      36.143  42.335  12.200  1.00  0.00     0.073 C
BRANCH  13  17
HETATM   17  O6  UNL     1      38.402  40.856  10.937  1.00  0.00    -0.390 OA
ATOM     18  H6  UNL     1      37.986  40.071  10.599  1.00  0.00     0.210 HD
ENDBRANCH  13  17
BRANCH  14  19
HETATM   19  C24 UNL     1      36.871  39.147  11.866  1.00  0.00     0.036 C
BRANCH  19  20
HETATM   20  C25 UNL     1      37.489  37.806  12.083  1.00  0.00     0.164 C
BRANCH  20  21
HETATM   21  O5  UNL     1      36.894  37.235  13.219  1.00  0.00    -0.401 OA
ATOM     22  H5  UNL     1      37.218  36.345  13.304  1.00  0.00     0.209 HD
ENDBRANCH  20  21
ENDBRANCH  19  20
ENDBRANCH  14  19
BRANCH  15  23
HETATM   23  O4  UNL     1      36.159  41.583  14.406  1.00  0.00    -0.395 OA
ATOM     24  H4  UNL     1      36.870  42.211  14.437  1.00  0.00     0.210 HD
ENDBRANCH  15  23
ENDBRANCH   1  10
BRANCH   5  25
HETATM   25  C8  UNL     1      35.970  48.623  10.099  1.00  0.00     0.058 C
BRANCH  25  26
HETATM   26  C9  UNL     1      34.666  48.559   9.348  1.00  0.00    -0.017 A
HETATM   27  C10 UNL     1      33.419  48.744   9.874  1.00  0.00     0.015 A
HETATM   28  C11 UNL     1      32.371  48.650   9.045  1.00  0.00     0.008 A
HETATM   29  C12 UNL     1      32.643  48.375   7.727  1.00  0.00     0.050 A
HETATM   30  S1  UNL     1      34.343  48.259   7.704  1.00  0.00    -0.106 SA
ENDBRANCH  25  26
ENDBRANCH   5  25
BRANCH   8  31
HETATM   31  C15 UNL     1      35.973  47.969  15.026  1.00  0.00     0.270 C
HETATM   32  O2  UNL     1      36.575  48.853  15.705  1.00  0.00    -0.264 OA
BRANCH  31  33
HETATM   33  O3  UNL     1      34.823  47.441  15.564  1.00  0.00    -0.321 OA
BRANCH  33  34
HETATM   34  C16 UNL     1      33.541  47.991  15.512  1.00  0.00     0.182 C
BRANCH  34  35
HETATM   35  C17 UNL     1      32.756  47.537  14.301  1.00  0.00     0.002 C
HETATM   36  C18 UNL     1      32.353  48.732  13.489  1.00  0.00     0.011 C
HETATM   37  C19 UNL     1      31.467  46.911  14.850  1.00  0.00     0.011 C
ENDBRANCH  34  35
ENDBRANCH  33  34
ENDBRANCH  31  33
ENDBRANCH   8  31
TORSDOF 12
ENDMDL