MODEL 5
REMARK VINA RESULT: -5.918761059      1.419      1.732
REMARK  11 active torsions:
REMARK  status: ('A' for Active; 'I' for Inactive)
REMARK    1  A    between atoms: C2_2  and  N1_3
REMARK    2  A    between atoms: C2_2  and  C3_7
REMARK    3  A    between atoms: C3_7  and  C4_8
REMARK       I    between atoms: N2_10  and  C6_11
REMARK    4  A    between atoms: C6_11  and  C7_13
REMARK    5  A    between atoms: C7_13  and  C8_14
REMARK    6  A    between atoms: C8_14  and  C9_15
REMARK    7  A    between atoms: C9_15  and  C10_16
REMARK    8  A    between atoms: C10_16  and  O2_17
REMARK    9  A    between atoms: N3_19  and  O3_21
REMARK   10  A    between atoms: N4_27  and  C13_28
REMARK   11  A    between atoms: C13_28  and  C14_29
ROOT
HETATM    1  C4  UNL     1      35.631  43.889  14.135  1.00  0.00     0.115 C
HETATM    2  C5  UNL     1      34.514  43.245  13.353  1.00  0.00     0.064 C
HETATM    3  N2  UNL     1      35.202  44.570  15.301  1.00  0.00    -0.316 N
HETATM    4  C6  UNL     1      33.894  44.935  15.690  1.00  0.00     0.222 C
HETATM    5  O1  UNL     1      33.799  45.516  16.842  1.00  0.00    -0.273 OA
HETATM    6  C11 UNL     1      36.210  45.034  16.307  1.00  0.00     0.210 C
HETATM    7  S1  UNL     1      37.620  45.700  15.383  1.00  0.00    -0.080 SA
HETATM    8  C12 UNL     1      36.962  45.911  13.750  1.00  0.00     0.144 C
HETATM    9  S2  UNL     1      37.118  47.334  13.034  1.00  0.00    -0.052 SA
HETATM   10  N4  UNL     1      36.323  44.810  13.164  1.00  0.00    -0.314 N
ENDROOT
BRANCH   1  11
HETATM   11  C3  UNL     1      36.637  42.777  14.327  1.00  0.00     0.086 C
BRANCH  11  12
HETATM   12  C2  UNL     1      36.093  41.400  14.417  1.00  0.00     0.183 C
HETATM   13  C1  UNL     1      36.891  40.470  13.478  1.00  0.00     0.040 C
BRANCH  12  14
HETATM   14  N1  UNL     1      36.111  40.791  15.707  1.00  0.00    -0.075 N
ATOM     15  H13 UNL     1      35.206  40.814  16.176  1.00  0.00     0.274 HD
ATOM     16  H12 UNL     1      36.211  39.776  15.673  1.00  0.00     0.274 HD
ATOM     17  H11 UNL     1      36.852  41.250  16.237  1.00  0.00     0.274 HD
ENDBRANCH  12  14
ENDBRANCH  11  12
ENDBRANCH   1  11
BRANCH   4  18
HETATM   18  C7  UNL     1      32.609  44.773  15.015  1.00  0.00     0.103 C
BRANCH  18  19
HETATM   19  C8  UNL     1      31.581  45.805  15.506  1.00  0.00     0.017 C
BRANCH  19  20
HETATM   20  C9  UNL     1      30.637  45.044  16.426  1.00  0.00     0.086 C
BRANCH  20  21
HETATM   21  C10 UNL     1      30.528  45.668  17.747  1.00  0.00     0.135 C
HETATM   22  N3  UNL     1      31.185  45.190  18.739  1.00  0.00    -0.251 N
ATOM     23  H3  UNL     1      31.111  45.623  19.660  1.00  0.00     0.196 HD
BRANCH  21  24
HETATM   24  O2  UNL     1      29.717  46.771  17.920  1.00  0.00    -0.348 OA
ATOM     25  H2  UNL     1      29.964  47.446  18.542  1.00  0.00     0.219 HD
ENDBRANCH  21  24
BRANCH  22  26
HETATM   26  O3  UNL     1      31.983  44.102  18.558  1.00  0.00    -0.288 OA
ATOM     27  H3  UNL     1      32.920  44.179  18.689  1.00  0.00     0.244 HD
ENDBRANCH  22  26
ENDBRANCH  20  21
ENDBRANCH  19  20
ENDBRANCH  18  19
ENDBRANCH   4  18
BRANCH  10  28
HETATM   28  C13 UNL     1      36.273  44.506  11.778  1.00  0.00     0.106 C
BRANCH  28  29
HETATM   29  C14 UNL     1      37.241  43.580  11.229  1.00  0.00    -0.020 A
HETATM   30  C15 UNL     1      36.824  42.500  10.494  1.00  0.00     0.014 A
HETATM   31  C16 UNL     1      37.687  41.562   9.954  1.00  0.00     0.020 A
HETATM   32  C17 UNL     1      39.039  41.753  10.189  1.00  0.00     0.011 A
HETATM   33 BR1  UNL     1      40.258  40.469   9.454  1.00  0.00    -0.051 Br
HETATM   34  C18 UNL     1      39.509  42.814  10.917  1.00  0.00     0.020 A
HETATM   35  C19 UNL     1      38.588  43.730  11.436  1.00  0.00     0.014 A
ENDBRANCH  28  29
ENDBRANCH  10  28
TORSDOF 11
ENDMDL