MODEL 3
REMARK VINA RESULT: -6.535728877      1.401      2.701
REMARK  11 active torsions:
REMARK  status: ('A' for Active; 'I' for Inactive)
REMARK    1  A    between atoms: C2_2  and  C3_3
REMARK    2  A    between atoms: C3_3  and  C4_4
REMARK    3  A    between atoms: C4_4  and  N1_5
REMARK    4  A    between atoms: C6_8  and  N3_9
REMARK    5  A    between atoms: N3_9  and  C7_10
REMARK    6  A    between atoms: C9_12  and  O1_13
REMARK    7  A    between atoms: C9_12  and  C10_15
REMARK    8  A    between atoms: C11_16  and  N4_17
REMARK       I    between atoms: N4_17  and  C12_19
REMARK    9  A    between atoms: C12_19  and  C13_21
REMARK   10  A    between atoms: C17_26  and  C18_27
REMARK   11  A    between atoms: C18_27  and  O3_29
ROOT
HETATM    1  N3  UNL     1      36.304  43.532  15.026  1.00  0.00    -0.320 N
HETATM    2  C9  UNL     1      36.045  43.231  13.720  1.00  0.00     0.156 C
ENDROOT
BRANCH   2   3
HETATM    3  O1  UNL     1      34.684  43.047  13.596  1.00  0.00    -0.345 OA
ATOM      4  H1  UNL     1      34.328  43.817  13.169  1.00  0.00     0.219 HD
ENDBRANCH   2   3
BRANCH   2   5
HETATM    5  C10 UNL     1      36.691  43.024  12.399  1.00  0.00     0.056 A
HETATM    6  C11 UNL     1      36.994  44.189  11.679  1.00  0.00     0.092 A
HETATM    7  S1  UNL     1      38.131  43.635  10.489  1.00  0.00    -0.069 SA
HETATM    8  C17 UNL     1      38.194  41.984  10.893  1.00  0.00     0.042 A
HETATM    9  C20 UNL     1      37.333  41.893  11.945  1.00  0.00    -0.025 A
HETATM   10  C21 UNL     1      37.003  40.494  12.469  1.00  0.00     0.050 C
BRANCH   6  11
HETATM   11  N4  UNL     1      36.388  45.471  11.577  1.00  0.00    -0.320 N
HETATM   12  C12 UNL     1      36.999  46.704  11.570  1.00  0.00     0.230 C
HETATM   13  O2  UNL     1      38.242  46.851  11.699  1.00  0.00    -0.272 OA
ATOM     14  H4  UNL     1      35.371  45.478  11.500  1.00  0.00     0.169 HD
BRANCH  12  15
HETATM   15  C13 UNL     1      36.204  47.976  11.407  1.00  0.00     0.030 C
HETATM   16  C14 UNL     1      35.430  48.012  10.134  1.00  0.00     0.025 C
HETATM   17  C15 UNL     1      35.226  48.029  12.553  1.00  0.00     0.025 C
HETATM   18  C16 UNL     1      37.122  49.158  11.472  1.00  0.00     0.025 C
ENDBRANCH  12  15
ENDBRANCH   6  11
BRANCH   8  19
HETATM   19  C18 UNL     1      39.065  40.993  10.201  1.00  0.00     0.057 C
HETATM   20  C19 UNL     1      40.138  40.184  10.710  1.00  0.00     0.077 C
BRANCH  19  21
HETATM   21  O3  UNL     1      38.777  40.874   8.930  1.00  0.00    -0.364 OA
ATOM     22  H3  UNL     1      39.525  41.046   8.370  1.00  0.00     0.217 HD
ENDBRANCH  19  21
ENDBRANCH   8  19
ENDBRANCH   2   5
BRANCH   1  23
HETATM   23  C6  UNL     1      35.088  43.466  15.928  1.00  0.00     0.147 A
HETATM   24  C5  UNL     1      34.792  42.357  16.648  1.00  0.00     0.155 A
HETATM   25  N1  UNL     1      33.668  42.377  17.451  1.00  0.00    -0.285 N
HETATM   26  N2  UNL     1      35.630  41.211  16.572  1.00  0.00    -0.080 NA
HETATM   27  C23 UNL     1      32.891  43.463  17.518  1.00  0.00     0.330 A
HETATM   28  N5  UNL     1      33.193  44.552  16.802  1.00  0.00    -0.273 N
HETATM   29  O5  UNL     1      31.847  43.480  18.266  1.00  0.00    -0.246 OA
HETATM   30  C22 UNL     1      34.311  44.564  15.987  1.00  0.00     0.279 A
ATOM     31  H5  UNL     1      32.596  45.377  16.857  1.00  0.00     0.173 HD
HETATM   32  O4  UNL     1      34.557  45.602  15.337  1.00  0.00    -0.265 OA
BRANCH  25  33
HETATM   33  C4  UNL     1      33.364  41.204  18.214  1.00  0.00     0.135 C
BRANCH  33  34
HETATM   34  C3  UNL     1      32.190  40.503  17.570  1.00  0.00     0.020 C
BRANCH  34  35
HETATM   35  C2  UNL     1      31.470  39.593  18.535  1.00  0.00    -0.003 C
HETATM   36  C1  UNL     1      31.785  38.146  18.309  1.00  0.00     0.005 C
ENDBRANCH  34  35
ENDBRANCH  33  34
ENDBRANCH  25  33
ENDBRANCH   1  23
BRANCH   1  37
HETATM   37  C7  UNL     1      37.386  43.950  15.864  1.00  0.00     0.127 C
HETATM   38  C8  UNL     1      37.995  45.288  15.483  1.00  0.00     0.027 C
ENDBRANCH   1  37
TORSDOF 11
ENDMDL