MODEL 2
REMARK VINA RESULT: -4.763355369      1.679      2.194
REMARK  5 active torsions:
REMARK  status: ('A' for Active; 'I' for Inactive)
REMARK    1  A    between atoms: N1_1  and  C1_4
REMARK    2  A    between atoms: N2_5  and  N3_6
REMARK    3  A    between atoms: N4_11  and  N5_12
REMARK    4  A    between atoms: N5_12  and  S1_14
REMARK    5  A    between atoms: S1_14  and  N6_15
ROOT
HETATM    1  C1  UNL     1      -4.475  14.011 -17.238  1.00  0.00     0.718 A
HETATM    2  N2  UNL     1      -4.815  14.154 -18.543  1.00  0.00    -0.102 N
HETATM    3  C2  UNL     1      -5.223  13.003 -19.082  1.00  0.00     0.154 A
HETATM    4  C3  UNL     1      -5.136  12.075 -18.059  1.00  0.00     0.155 A
HETATM    5  N4  UNL     1      -4.683  12.714 -16.964  1.00  0.00    -0.084 N
ENDROOT
BRANCH   5   6
HETATM    6  N5  UNL     1      -4.474  12.092 -15.750  1.00  0.00    -0.189 N
ATOM      7  H5  UNL     1      -5.278  11.708 -15.254  1.00  0.00     0.203 HD
BRANCH   6   8
HETATM    8  S1  UNL     1      -2.907  11.933 -15.029  1.00  0.00     0.331 S
HETATM    9  O1  UNL     1      -2.931  10.797 -14.058  1.00  0.00    -0.181 OA
HETATM   10  O2  UNL     1      -2.513  13.180 -14.292  1.00  0.00    -0.181 OA
BRANCH   8  11
HETATM   11  N6  UNL     1      -1.816  11.576 -16.328  1.00  0.00    -0.310 N
ATOM     12  H62 UNL     1      -0.954  11.035 -16.260  1.00  0.00     0.170 HD
ATOM     13  H61 UNL     1      -2.214  12.014 -17.160  1.00  0.00     0.170 HD
ENDBRANCH   8  11
ENDBRANCH   6   8
ENDBRANCH   5   6
BRANCH   1  14
HETATM   14  N1  UNL     1      -4.060  14.967 -16.508  1.00  0.00    -0.231 N
ATOM     15  H12 UNL     1      -4.295  15.960 -16.501  1.00  0.00     0.174 HD
ATOM     16  H11 UNL     1      -3.369  14.854 -15.766  1.00  0.00     0.174 HD
ENDBRANCH   1  14
BRANCH   2  17
HETATM   17  N3  UNL     1      -4.742  15.377 -19.234  1.00  0.00    -0.325 N
ATOM     18  H32 UNL     1      -4.101  15.569 -20.003  1.00  0.00     0.178 HD
ATOM     19  H31 UNL     1      -5.331  16.181 -19.018  1.00  0.00     0.178 HD
ENDBRANCH   2  17
TORSDOF 5
ENDMDL