MODEL 1
REMARK VINA RESULT: -5.096409323      0.000      0.000
REMARK  4 active torsions:
REMARK  status: ('A' for Active; 'I' for Inactive)
REMARK    1  A    between atoms: N1_1  and  C1_5
REMARK    2  A    between atoms: C1_5  and  N2_6
REMARK    3  A    between atoms: C1_5  and  C2_10
REMARK    4  A    between atoms: C5_19  and  N5_20
ROOT
HETATM    1  C2  UNL     1      -5.028  11.778 -16.358  1.00  0.00     0.110 A
HETATM    2  N3  UNL     1      -4.239  12.079 -15.303  1.00  0.00    -0.306 N
ATOM      3  H3  UNL     1      -4.521  11.828 -14.356  1.00  0.00     0.170 HD
HETATM    4  C3  UNL     1      -3.084  12.713 -15.522  1.00  0.00     0.327 A
HETATM    5  O1  UNL     1      -2.373  12.975 -14.491  1.00  0.00    -0.247 OA
HETATM    6  N4  UNL     1      -2.696  13.052 -16.739  1.00  0.00    -0.273 N
ATOM      7  H4  UNL     1      -1.807  13.536 -16.869  1.00  0.00     0.173 HD
HETATM    8  C4  UNL     1      -3.451  12.768 -17.796  1.00  0.00     0.284 A
HETATM    9  O2  UNL     1      -3.105  13.078 -18.959  1.00  0.00    -0.265 OA
HETATM   10  C5  UNL     1      -4.660  12.110 -17.624  1.00  0.00     0.197 A
ENDROOT
BRANCH   1  11
HETATM   11  C1  UNL     1      -6.308  11.113 -16.064  1.00  0.00     0.430 C
BRANCH  11  12
HETATM   12  N1  UNL     1      -6.174  10.558 -14.700  1.00  0.00    -0.045 N
ATOM     13  H13 UNL     1      -6.519  11.202 -13.989  1.00  0.00     0.277 HD
ATOM     14  H12 UNL     1      -6.823   9.790 -14.533  1.00  0.00     0.277 HD
ATOM     15  H11 UNL     1      -5.205  10.286 -14.533  1.00  0.00     0.277 HD
ENDBRANCH  11  12
BRANCH  11  16
HETATM   16  N2  UNL     1      -7.431  11.999 -16.117  1.00  0.00    -0.045 N
ATOM     17  H23 UNL     1      -7.826  12.062 -17.056  1.00  0.00     0.277 HD
ATOM     18  H22 UNL     1      -8.246  11.614 -15.640  1.00  0.00     0.277 HD
ATOM     19  H21 UNL     1      -7.166  12.913 -15.750  1.00  0.00     0.277 HD
ENDBRANCH  11  16
ENDBRANCH   1  11
BRANCH  10  20
HETATM   20  N5  UNL     1      -5.404  11.834 -18.797  1.00  0.00    -0.108 N
HETATM   21  O3  UNL     1      -6.317  12.578 -19.167  1.00  0.00    -0.531 OA
HETATM   22  O4  UNL     1      -5.129  10.713 -19.516  1.00  0.00    -0.531 OA
ENDBRANCH  10  20
TORSDOF 4
ENDMDL