MODEL 1
REMARK VINA RESULT: -5.149030982      0.000      0.000
REMARK  3 active torsions:
REMARK  status: ('A' for Active; 'I' for Inactive)
REMARK    1  A    between atoms: C1_2  and  C2_4
REMARK    2  A    between atoms: C3_7  and  C4_8
REMARK    3  A    between atoms: N4_11  and  N5_12
ROOT
HETATM    1  C2  UNL     1      -3.201  14.400 -15.627  1.00  0.00     0.143 A
HETATM    2  N2  UNL     1      -3.824  13.628 -16.530  1.00  0.00    -0.330 N
ATOM      3  H2  UNL     1      -4.165  13.961 -17.431  1.00  0.00     0.168 HD
HETATM    4  C3  UNL     1      -3.944  12.362 -16.098  1.00  0.00     0.195 A
HETATM    5  N4  UNL     1      -3.366  12.353 -14.867  1.00  0.00    -0.225 N
HETATM    6  C5  UNL     1      -2.907  13.585 -14.561  1.00  0.00     0.171 A
HETATM    7  N6  UNL     1      -2.246  13.950 -13.361  1.00  0.00    -0.078 NA
ENDROOT
BRANCH   1   8
HETATM    8  C1  UNL     1      -2.877  15.822 -15.710  1.00  0.00     0.284 C
HETATM    9  N1  UNL     1      -3.801  16.785 -15.185  1.00  0.00    -0.056 NA
HETATM   10  O1  UNL     1      -1.801  16.202 -16.237  1.00  0.00    -0.269 OA
ENDBRANCH   1   8
BRANCH   4  11
HETATM   11  C4  UNL     1      -4.555  11.226 -16.777  1.00  0.00     0.300 C
HETATM   12  N3  UNL     1      -5.730  10.646 -16.234  1.00  0.00    -0.054 NA
HETATM   13  O2  UNL     1      -4.100  10.721 -17.829  1.00  0.00    -0.268 OA
ENDBRANCH   4  11
BRANCH   5  14
HETATM   14  N5  UNL     1      -3.286  11.203 -14.078  1.00  0.00    -0.335 N
ATOM     15  H52 UNL     1      -3.396  11.143 -13.066  1.00  0.00     0.177 HD
ATOM     16  H51 UNL     1      -3.103  10.278 -14.466  1.00  0.00     0.177 HD
ENDBRANCH   5  14
TORSDOF 3
ENDMDL