MODEL 3
REMARK VINA RESULT: -5.776825196      2.476      5.204
REMARK  2 active torsions:
REMARK  status: ('A' for Active; 'I' for Inactive)
REMARK    1  A    between atoms: C1_2  and  C2_4
REMARK    2  A    between atoms: C3_11  and  C4_12
ROOT
HETATM    1  C2  UNL     1      -5.851  13.292 -18.914  1.00  0.00     0.146 A
HETATM    2  N2  UNL     1      -5.746  12.595 -20.113  1.00  0.00    -0.279 N
ATOM      3  H2  UNL     1      -6.502  12.113 -20.600  1.00  0.00     0.189 HD
HETATM    4  N3  UNL     1      -4.511  12.673 -20.497  1.00  0.00    -0.242 N
ATOM      5  H3  UNL     1      -4.145  12.249 -21.350  1.00  0.00     0.208 HD
HETATM    6  N4  UNL     1      -3.791  13.367 -19.644  1.00  0.00    -0.280 N
ATOM      7  H4  UNL     1      -2.794  13.565 -19.730  1.00  0.00     0.188 HD
HETATM    8  C3  UNL     1      -4.605  13.780 -18.622  1.00  0.00     0.128 A
ENDROOT
BRANCH   8   9
HETATM    9  C4  UNL     1      -4.163  14.565 -17.503  1.00  0.00     0.155 A
HETATM   10  N5  UNL     1      -3.045  14.582 -16.793  1.00  0.00    -0.290 N
HETATM   11  C5  UNL     1      -3.077  15.507 -15.817  1.00  0.00     0.340 A
ATOM     12  H5  UNL     1      -2.251  13.964 -16.966  1.00  0.00     0.172 HD
HETATM   13  O2  UNL     1      -2.221  15.812 -14.959  1.00  0.00    -0.245 OA
HETATM   14  N6  UNL     1      -4.272  16.105 -15.914  1.00  0.00    -0.250 N
HETATM   15  N7  UNL     1      -4.917  15.548 -16.913  1.00  0.00    -0.279 N
ATOM     16  H6  UNL     1      -4.618  16.857 -15.318  1.00  0.00     0.192 HD
ATOM     17  H7  UNL     1      -5.855  15.812 -17.211  1.00  0.00     0.189 HD
ENDBRANCH   8   9
BRANCH   1  18
HETATM   18  C1  UNL     1      -7.088  13.426 -18.178  1.00  0.00     0.285 C
HETATM   19  N1  UNL     1      -7.784  14.682 -18.292  1.00  0.00    -0.056 NA
HETATM   20  O1  UNL     1      -7.606  12.577 -17.466  1.00  0.00    -0.269 OA
ENDBRANCH   1  18
TORSDOF 2
ENDMDL