MODEL 3
REMARK VINA RESULT: -5.832337856      0.996      2.918
REMARK  4 active torsions:
REMARK  status: ('A' for Active; 'I' for Inactive)
REMARK    1  A    between atoms: N1_1  and  N2_4
REMARK    2  A    between atoms: N2_4  and  O1_5
REMARK    3  A    between atoms: N2_4  and  N3_7
REMARK    4  A    between atoms: C3_15  and  C4_16
ROOT
HETATM    1  N3  UNL     1      -4.360  14.900 -18.567  1.00  0.00    -0.133 N
HETATM    2  N4  UNL     1      -4.652  14.039 -19.523  1.00  0.00    -0.238 N
ATOM      3  H4  UNL     1      -4.966  14.295 -20.459  1.00  0.00     0.192 HD
HETATM    4  C1  UNL     1      -4.479  12.788 -19.094  1.00  0.00     0.292 A
HETATM    5  O2  UNL     1      -4.643  11.694 -19.679  1.00  0.00    -0.264 OA
HETATM    6  C2  UNL     1      -4.053  12.887 -17.790  1.00  0.00     0.152 A
HETATM    7  N5  UNL     1      -3.681  12.194 -16.703  1.00  0.00    -0.331 N
ATOM      8  H5  UNL     1      -3.633  11.178 -16.632  1.00  0.00     0.168 HD
HETATM    9  C3  UNL     1      -3.382  13.063 -15.723  1.00  0.00     0.174 A
HETATM   10  N7  UNL     1      -3.561  14.340 -16.173  1.00  0.00    -0.319 N
ATOM     11  H7  UNL     1      -3.414  15.205 -15.653  1.00  0.00     0.169 HD
HETATM   12  C5  UNL     1      -3.978  14.215 -17.459  1.00  0.00     0.184 A
ENDROOT
BRANCH   1  13
HETATM   13  N2  UNL     1      -4.435  16.295 -18.661  1.00  0.00    -0.078 N
BRANCH  13  14
HETATM   14  N1  UNL     1      -4.793  16.878 -19.727  1.00  0.00    -0.302 N
ATOM     15  H12 UNL     1      -5.076  17.857 -19.739  1.00  0.00     0.181 HD
ATOM     16  H11 UNL     1      -4.804  16.371 -20.612  1.00  0.00     0.181 HD
ENDBRANCH  13  14
BRANCH  13  17
HETATM   17  O1  UNL     1      -4.107  17.026 -17.551  1.00  0.00    -0.252 OA
ATOM     18  H1  UNL     1      -3.228  17.371 -17.446  1.00  0.00     0.248 HD
ENDBRANCH  13  17
ENDBRANCH   1  13
BRANCH   9  19
HETATM   19  C4  UNL     1      -2.944  12.677 -14.382  1.00  0.00     0.298 C
HETATM   20  N6  UNL     1      -2.526  13.736 -13.505  1.00  0.00    -0.054 NA
HETATM   21  O3  UNL     1      -2.934  11.466 -14.011  1.00  0.00    -0.268 OA
ENDBRANCH   9  19
TORSDOF 4
ENDMDL