MODEL 5
REMARK VINA RESULT: -4.803118156      4.844      5.790
REMARK  4 active torsions:
REMARK  status: ('A' for Active; 'I' for Inactive)
REMARK    1  A    between atoms: C1_2  and  C2_4
REMARK    2  A    between atoms: C2_4  and  N1_5
REMARK    3  A    between atoms: C2_4  and  C6_14
REMARK    4  A    between atoms: N1_5  and  C3_7
ROOT
HETATM    1  N1  UNL     1      -2.122  18.975 -15.933  1.00  0.00    -0.339 N
ATOM      2  H1  UNL     1      -2.548  19.773 -15.462  1.00  0.00     0.164 HD
ENDROOT
BRANCH   1   3
HETATM    3  C2  UNL     1      -2.925  17.795 -16.132  1.00  0.00     0.287 C
BRANCH   3   4
HETATM    4  C1  UNL     1      -2.124  16.630 -15.618  1.00  0.00     0.207 C
HETATM    5  O1  UNL     1      -2.053  15.579 -16.302  1.00  0.00    -0.646 OA
HETATM    6  O2  UNL     1      -1.493  16.749 -14.400  1.00  0.00    -0.646 OA
ENDBRANCH   3   4
BRANCH   3   7
HETATM    7  C6  UNL     1      -4.219  17.832 -15.397  1.00  0.00     0.207 C
HETATM    8  O3  UNL     1      -5.218  17.289 -15.915  1.00  0.00    -0.646 OA
HETATM    9  O4  UNL     1      -4.354  18.446 -14.157  1.00  0.00    -0.646 OA
ENDBRANCH   3   7
ENDBRANCH   1   3
BRANCH   1  10
HETATM   10  C3  UNL     1      -0.749  19.088 -16.362  1.00  0.00     0.172 A
HETATM   11  N2  UNL     1      -0.345  19.107 -17.586  1.00  0.00    -0.361 N
HETATM   12  C4  UNL     1       1.081  19.226 -17.693  1.00  0.00     0.142 A
ATOM     13  H2  UNL     1      -0.969  19.043 -18.389  1.00  0.00     0.162 HD
HETATM   14  C5  UNL     1       1.569  19.397 -16.303  1.00  0.00     0.142 A
HETATM   15  N3  UNL     1       0.353  19.195 -15.505  1.00  0.00    -0.361 N
ATOM     16  H3  UNL     1       0.317  19.141 -14.487  1.00  0.00     0.162 HD
ENDBRANCH   1  10
TORSDOF 4
ENDMDL