MODEL 3
REMARK VINA RESULT: -5.358054271      1.328      1.814
REMARK  5 active torsions:
REMARK  status: ('A' for Active; 'I' for Inactive)
REMARK    1  A    between atoms: C2_3  and  N2_4
REMARK    2  A    between atoms: C2_3  and  N3_8
REMARK    3  A    between atoms: N3_8  and  C3_10
REMARK    4  A    between atoms: C3_10  and  C4_14
REMARK    5  A    between atoms: C4_14  and  C5_16
ROOT
HETATM    1  N1  UNL     1      -4.969  17.769 -14.329  1.00  0.00    -0.193 NA
HETATM    2  C1  UNL     1      -4.801  17.408 -15.423  1.00  0.00     0.114 C
HETATM    3  C2  UNL     1      -4.589  16.971 -16.797  1.00  0.00     0.390 C
ENDROOT
BRANCH   3   4
HETATM    4  N2  UNL     1      -3.174  17.102 -17.091  1.00  0.00    -0.045 N
ATOM      5  H23 UNL     1      -2.588  17.015 -16.261  1.00  0.00     0.278 HD
ATOM      6  H22 UNL     1      -2.800  16.303 -17.604  1.00  0.00     0.278 HD
ATOM      7  H21 UNL     1      -3.038  17.985 -17.580  1.00  0.00     0.278 HD
ENDBRANCH   3   4
BRANCH   3   8
HETATM    8  N3  UNL     1      -5.027  15.600 -16.895  1.00  0.00    -0.335 N
ATOM      9  H3  UNL     1      -5.793  15.270 -16.307  1.00  0.00     0.164 HD
BRANCH   8  10
HETATM   10  C3  UNL     1      -4.394  14.700 -17.814  1.00  0.00     0.150 C
HETATM   11  N4  UNL     1      -4.638  14.905 -19.041  1.00  0.00    -0.382 N
ATOM     12  H42 UNL     1      -5.235  15.645 -19.412  1.00  0.00     0.157 HD
ATOM     13  H41 UNL     1      -4.187  14.266 -19.694  1.00  0.00     0.157 HD
BRANCH  10  14
HETATM   14  C4  UNL     1      -3.561  13.669 -17.296  1.00  0.00     0.243 C
HETATM   15  O1  UNL     1      -3.003  12.879 -18.157  1.00  0.00    -0.282 OA
BRANCH  14  16
HETATM   16  C5  UNL     1      -3.283  13.428 -15.883  1.00  0.00     0.116 A
HETATM   17  C6  UNL     1      -3.337  12.203 -15.214  1.00  0.00     0.139 A
HETATM   18  N5  UNL     1      -3.018  12.380 -13.925  1.00  0.00    -0.293 N
HETATM   19  N6  UNL     1      -2.772  13.677 -13.788  1.00  0.00    -0.022 NA
ATOM     20  H5  UNL     1      -2.973  11.666 -13.199  1.00  0.00     0.183 HD
HETATM   21  N7  UNL     1      -2.928  14.300 -14.942  1.00  0.00    -0.279 N
ATOM     22  H7  UNL     1      -2.795  15.301 -15.090  1.00  0.00     0.184 HD
ENDBRANCH  14  16
ENDBRANCH  10  14
ENDBRANCH   8  10
ENDBRANCH   3   8
TORSDOF 5
ENDMDL