MODEL 3
REMARK VINA RESULT: -5.639845113      0.645      2.463
REMARK  5 active torsions:
REMARK  status: ('A' for Active; 'I' for Inactive)
REMARK    1  A    between atoms: N1_1  and  N2_4
REMARK    2  A    between atoms: N2_4  and  N3_6
REMARK    3  A    between atoms: N3_6  and  N4_8
REMARK    4  A    between atoms: N4_8  and  C1_10
REMARK    5  A    between atoms: C1_10  and  C2_11
ROOT
HETATM    1  C2  UNL     1      -4.248  12.194 -17.355  1.00  0.00     0.081 A
HETATM    2  C3  UNL     1      -4.284  13.483 -17.738  1.00  0.00     0.106 A
HETATM    3  N5  UNL     1      -3.798  14.638 -17.283  1.00  0.00    -0.347 N
ATOM      4  H5  UNL     1      -3.232  14.731 -16.439  1.00  0.00     0.167 HD
HETATM    5  C4  UNL     1      -4.146  15.659 -18.075  1.00  0.00     0.182 A
HETATM    6  N6  UNL     1      -4.881  15.136 -19.071  1.00  0.00    -0.337 N
ATOM      7  H6  UNL     1      -5.297  15.659 -19.841  1.00  0.00     0.168 HD
HETATM    8  C5  UNL     1      -4.977  13.784 -18.878  1.00  0.00     0.136 A
HETATM    9  N7  UNL     1      -5.560  12.880 -19.545  1.00  0.00    -0.337 N
ATOM     10  H7  UNL     1      -6.052  13.194 -20.381  1.00  0.00     0.168 HD
HETATM   11  C6  UNL     1      -5.618  11.499 -19.283  1.00  0.00     0.182 A
HETATM   12  N8  UNL     1      -4.887  11.168 -18.078  1.00  0.00    -0.349 N
ATOM     13  H8  UNL     1      -4.836  10.201 -17.756  1.00  0.00     0.166 HD
ENDROOT
BRANCH   1  14
HETATM   14  C1  UNL     1      -3.499  11.918 -16.136  1.00  0.00     0.140 C
BRANCH  14  15
HETATM   15  N4  UNL     1      -3.865  11.987 -14.941  1.00  0.00    -0.294 N
ATOM     16  H4  UNL     1      -4.874  11.875 -14.843  1.00  0.00     0.187 HD
BRANCH  15  17
HETATM   17  N3  UNL     1      -3.263  12.170 -13.760  1.00  0.00    -0.229 N
ATOM     18  H3  UNL     1      -3.059  11.310 -13.250  1.00  0.00     0.210 HD
BRANCH  17  19
HETATM   19  N2  UNL     1      -2.908  13.212 -13.178  1.00  0.00    -0.235 N
ATOM     20  H2  UNL     1      -2.618  13.993 -13.766  1.00  0.00     0.209 HD
BRANCH  19  21
HETATM   21  N1  UNL     1      -2.869  13.412 -11.803  1.00  0.00    -0.330 N
ATOM     22  H12 UNL     1      -3.716  13.158 -11.294  1.00  0.00     0.178 HD
ATOM     23  H11 UNL     1      -2.084  13.785 -11.270  1.00  0.00     0.178 HD
ENDBRANCH  19  21
ENDBRANCH  17  19
ENDBRANCH  15  17
ENDBRANCH  14  15
ENDBRANCH   1  14
TORSDOF 5
ENDMDL