MODEL 1
REMARK VINA RESULT: -5.226246659      0.000      0.000
REMARK  4 active torsions:
REMARK  status: ('A' for Active; 'I' for Inactive)
REMARK    1  A    between atoms: C2_2  and  N1_3
REMARK    2  A    between atoms: C2_2  and  S1_14
REMARK    3  A    between atoms: C4_10  and  N5_11
REMARK    4  A    between atoms: S1_14  and  N6_15
ROOT
HETATM    1  N1  UNL     1      -4.594  14.576 -17.566  1.00  0.00    -0.072 N
HETATM    2  N2  UNL     1      -5.780  15.143 -17.218  1.00  0.00    -0.251 N
ATOM      3  H2  UNL     1      -6.009  15.514 -16.297  1.00  0.00     0.191 HD
HETATM    4  C3  UNL     1      -6.599  15.137 -18.278  1.00  0.00     0.222 A
HETATM    5  N3  UNL     1      -7.938  15.634 -18.356  1.00  0.00    -0.061 NA
HETATM    6  N4  UNL     1      -5.900  14.563 -19.266  1.00  0.00    -0.161 N
ATOM      7  H4  UNL     1      -6.254  14.412 -20.211  1.00  0.00     0.187 HD
HETATM    8  C4  UNL     1      -4.651  14.207 -18.839  1.00  0.00     0.700 A
ENDROOT
BRANCH   1   9
HETATM    9  C2  UNL     1      -3.508  14.406 -16.661  1.00  0.00     0.179 C
HETATM   10  C1  UNL     1      -2.732  15.363 -16.231  1.00  0.00     0.061 C
BRANCH   9  11
HETATM   11  S1  UNL     1      -3.170  12.765 -16.060  1.00  0.00     0.274 S
HETATM   12  O1  UNL     1      -2.455  11.968 -17.112  1.00  0.00    -0.199 OA
HETATM   13  O2  UNL     1      -2.316  12.850 -14.827  1.00  0.00    -0.199 OA
BRANCH  11  14
HETATM   14  N6  UNL     1      -4.652  11.973 -15.671  1.00  0.00    -0.323 N
ATOM     15  H62 UNL     1      -5.575  12.398 -15.764  1.00  0.00     0.169 HD
ATOM     16  H61 UNL     1      -4.460  11.028 -15.339  1.00  0.00     0.169 HD
ENDBRANCH  11  14
ENDBRANCH   9  11
ENDBRANCH   1   9
BRANCH   8  17
HETATM   17  N5  UNL     1      -3.791  13.609 -19.564  1.00  0.00    -0.233 N
ATOM     18  H52 UNL     1      -3.829  12.617 -19.798  1.00  0.00     0.174 HD
ATOM     19  H51 UNL     1      -2.936  13.959 -19.996  1.00  0.00     0.174 HD
ENDBRANCH   8  17
TORSDOF 4
ENDMDL