MODEL 2
REMARK VINA RESULT: -5.718786270      2.951      3.581
REMARK  3 active torsions:
REMARK  status: ('A' for Active; 'I' for Inactive)
REMARK    1  A    between atoms: N1_1  and  C1_4
REMARK    2  A    between atoms: C2_7  and  N3_8
REMARK       I    between atoms: N3_8  and  C3_10
REMARK    3  A    between atoms: C4_17  and  N7_18
ROOT
HETATM    1  C1  UNL     1      -2.913  13.183 -16.930  1.00  0.00     0.167 A
HETATM    2  N2  UNL     1      -3.367  13.777 -18.073  1.00  0.00    -0.172 N
ATOM      3  H2  UNL     1      -3.165  13.323 -18.964  1.00  0.00     0.186 HD
HETATM    4  C2  UNL     1      -4.061  14.923 -18.091  1.00  0.00     0.702 A
HETATM    5  N5  UNL     1      -4.332  15.530 -16.926  1.00  0.00    -0.130 N
ATOM      6  H5  UNL     1      -4.859  16.402 -16.915  1.00  0.00     0.205 HD
HETATM    7  N6  UNL     1      -3.916  14.996 -15.796  1.00  0.00    -0.263 N
ATOM      8  H6  UNL     1      -4.133  15.472 -14.921  1.00  0.00     0.189 HD
HETATM    9  C4  UNL     1      -3.205  13.826 -15.749  1.00  0.00     0.233 A
ENDROOT
BRANCH   4  10
HETATM   10  N3  UNL     1      -4.474  15.452 -19.218  1.00  0.00    -0.142 N
HETATM   11  C3  UNL     1      -4.869  16.795 -19.282  1.00  0.00     0.347 C
HETATM   12  N4  UNL     1      -4.094  17.835 -19.878  1.00  0.00    -0.039 NA
HETATM   13  O1  UNL     1      -5.992  17.137 -18.782  1.00  0.00    -0.250 OA
ATOM     14  H3  UNL     1      -4.508  14.877 -20.060  1.00  0.00     0.189 HD
ENDBRANCH   4  10
BRANCH   1  15
HETATM   15  N1  UNL     1      -2.267  12.085 -17.046  1.00  0.00    -0.382 N
ATOM     16  H12 UNL     1      -1.261  11.997 -17.189  1.00  0.00     0.157 HD
ATOM     17  H11 UNL     1      -2.795  11.215 -16.985  1.00  0.00     0.157 HD
ENDBRANCH   1  15
BRANCH   9  18
HETATM   18  N7  UNL     1      -2.800  13.322 -14.488  1.00  0.00    -0.092 N
HETATM   19  O2  UNL     1      -2.278  14.134 -13.677  1.00  0.00    -0.530 OA
HETATM   20  O3  UNL     1      -2.925  12.035 -14.066  1.00  0.00    -0.530 OA
ENDBRANCH   9  18
TORSDOF 3
ENDMDL