MODEL 3
REMARK VINA RESULT: -6.433485642      1.774      1.997
REMARK  6 active torsions:
REMARK  status: ('A' for Active; 'I' for Inactive)
REMARK    1  A    between atoms: N1_1  and  C1_5
REMARK    2  A    between atoms: C1_5  and  C2_6
REMARK    3  A    between atoms: C2_6  and  C3_7
REMARK       I    between atoms: C3_7  and  N2_9
REMARK    4  A    between atoms: N2_9  and  C4_11
REMARK    5  A    between atoms: C4_11  and  C5_12
REMARK    6  A    between atoms: C5_12  and  N3_13
ROOT
HETATM    1  N3  UNL     1      26.347  18.152  62.020  1.00  0.00    -0.358 N
ATOM      2  H3  UNL     1      25.343  17.977  62.053  1.00  0.00     0.166 HD
HETATM    3  C6  UNL     1      26.721  19.256  62.569  1.00  0.00     0.084 C
HETATM    4  C7  UNL     1      28.178  19.543  62.541  1.00  0.00     0.104 C
HETATM    5  C8  UNL     1      29.042  18.705  63.404  1.00  0.00     0.240 C
HETATM    6  N4  UNL     1      30.102  19.448  64.126  1.00  0.00    -0.073 N
ATOM      7  H41 UNL     1      30.983  19.465  63.612  1.00  0.00     0.277 HD
ATOM      8  H42 UNL     1      30.429  18.950  64.954  1.00  0.00     0.277 HD
HETATM    9  C9  UNL     1      29.632  20.740  64.428  1.00  0.00     0.259 C
HETATM   10  C10 UNL     1      30.023  21.347  65.768  1.00  0.00     0.260 C
HETATM   11  N5  UNL     1      29.143  22.536  65.833  1.00  0.00    -0.069 N
ATOM     12  H51 UNL     1      29.279  23.133  65.017  1.00  0.00     0.277 HD
ATOM     13  H52 UNL     1      29.452  23.177  66.564  1.00  0.00     0.277 HD
HETATM   14  C11 UNL     1      27.760  22.208  65.997  1.00  0.00     0.276 C
HETATM   15  C12 UNL     1      26.877  22.542  64.817  1.00  0.00     0.090 C
HETATM   16  N6  UNL     1      25.657  21.905  64.712  1.00  0.00    -0.343 N
ATOM     17  H6  UNL     1      24.827  22.481  64.856  1.00  0.00     0.167 HD
HETATM   18  C13 UNL     1      25.440  20.554  64.429  1.00  0.00     0.193 C
HETATM   19  N7  UNL     1      25.798  19.627  65.501  1.00  0.00    -0.063 NA
HETATM   20  N8  UNL     1      25.688  20.073  63.103  1.00  0.00    -0.320 N
ATOM     21  H8  UNL     1      24.995  20.371  62.415  1.00  0.00     0.169 HD
ENDROOT
BRANCH   1  22
HETATM   22  C5  UNL     1      27.097  17.157  61.386  1.00  0.00     0.082 C
BRANCH  22  23
HETATM   23  C4  UNL     1      26.443  16.768  60.074  1.00  0.00     0.167 C
BRANCH  23  24
HETATM   24  N2  UNL     1      25.526  15.670  60.230  1.00  0.00    -0.356 N
HETATM   25  C3  UNL     1      24.261  15.769  60.835  1.00  0.00     0.219 C
HETATM   26  O1  UNL     1      23.791  16.820  61.310  1.00  0.00    -0.274 OA
ATOM     27  H2  UNL     1      25.813  14.758  59.876  1.00  0.00     0.162 HD
BRANCH  25  28
HETATM   28  C2  UNL     1      23.428  14.522  60.909  1.00  0.00     0.130 C
BRANCH  28  29
HETATM   29  C1  UNL     1      23.742  13.845  62.221  1.00  0.00     0.238 C
BRANCH  29  30
HETATM   30  N1  UNL     1      24.851  12.926  62.054  1.00  0.00    -0.079 N
ATOM     31  H13 UNL     1      24.747  12.349  61.219  1.00  0.00     0.274 HD
ATOM     32  H12 UNL     1      25.711  13.409  61.795  1.00  0.00     0.274 HD
ATOM     33  H11 UNL     1      24.969  12.361  62.895  1.00  0.00     0.274 HD
ENDBRANCH  29  30
ENDBRANCH  28  29
ENDBRANCH  25  28
ENDBRANCH  23  24
ENDBRANCH  22  23
ENDBRANCH   1  22
TORSDOF 6
ENDMDL