MODEL 1
REMARK VINA RESULT: -7.913450659      0.000      0.000
REMARK  6 active torsions:
REMARK  status: ('A' for Active; 'I' for Inactive)
REMARK    1  A    between atoms: C1_2  and  C2_4
REMARK    2  A    between atoms: C3_5  and  N2_6
REMARK    3  A    between atoms: N2_6  and  N3_8
REMARK    4  A    between atoms: N3_8  and  C4_10
REMARK    5  A    between atoms: C6_12  and  C7_13
REMARK    6  A    between atoms: C12_25  and  N7_26
ROOT
HETATM    1  N3  UNL     1      26.299  18.296  61.602  1.00  0.00    -0.300 N
ATOM      2  H3  UNL     1      25.465  18.822  61.861  1.00  0.00     0.187 HD
ENDROOT
BRANCH   1   3
HETATM    3  N2  UNL     1      26.217  17.217  60.743  1.00  0.00    -0.300 N
ATOM      4  H2  UNL     1      26.722  17.269  59.858  1.00  0.00     0.186 HD
BRANCH   3   5
HETATM    5  C3  UNL     1      25.468  16.032  61.020  1.00  0.00     0.089 C
HETATM    6  C2  UNL     1      26.026  14.852  61.205  1.00  0.00     0.120 C
HETATM    7  N8  UNL     1      25.017  13.852  61.476  1.00  0.00    -0.382 N
HETATM    8  C13 UNL     1      23.879  14.626  62.002  1.00  0.00     0.159 C
ATOM      9  H8  UNL     1      25.079  12.844  61.335  1.00  0.00     0.160 HD
HETATM   10  C12 UNL     1      24.012  15.861  61.144  1.00  0.00     0.254 C
BRANCH   6  11
HETATM   11  C1  UNL     1      27.459  14.529  61.167  1.00  0.00     0.283 C
HETATM   12  N1  UNL     1      28.270  14.601  62.335  1.00  0.00    -0.056 NA
HETATM   13  O1  UNL     1      27.929  14.188  60.052  1.00  0.00    -0.269 OA
ENDBRANCH   6  11
BRANCH  10  14
HETATM   14  N7  UNL     1      23.366  17.007  61.748  1.00  0.00    -0.068 N
ATOM     15  H73 UNL     1      23.386  16.945  62.766  1.00  0.00     0.275 HD
ATOM     16  H72 UNL     1      23.925  17.850  61.624  1.00  0.00     0.275 HD
ATOM     17  H71 UNL     1      22.414  17.144  61.409  1.00  0.00     0.275 HD
ENDBRANCH  10  14
ENDBRANCH   3   5
ENDBRANCH   1   3
BRANCH   1  18
HETATM   18  C4  UNL     1      27.584  18.660  62.122  1.00  0.00     0.055 A
HETATM   19  C5  UNL     1      27.708  19.647  63.096  1.00  0.00     0.064 A
HETATM   20  C6  UNL     1      28.943  19.962  63.562  1.00  0.00     0.081 A
HETATM   21  N6  UNL     1      30.043  19.326  63.090  1.00  0.00    -0.320 N
HETATM   22  C10 UNL     1      29.988  18.369  62.153  1.00  0.00     0.248 A
ATOM     23  H6  UNL     1      30.955  19.588  63.464  1.00  0.00     0.169 HD
HETATM   24  O2  UNL     1      31.010  17.781  61.715  1.00  0.00    -0.268 OA
HETATM   25  C11 UNL     1      28.734  18.043  61.674  1.00  0.00     0.105 A
BRANCH  20  26
HETATM   26  C7  UNL     1      29.114  21.006  64.599  1.00  0.00     0.124 C
HETATM   27  N4  UNL     1      30.073  21.041  65.433  1.00  0.00    -0.373 N
HETATM   28  C8  UNL     1      29.959  22.200  66.330  1.00  0.00     0.141 C
ATOM     29  H4  UNL     1      30.825  20.354  65.476  1.00  0.00     0.161 HD
HETATM   30  C9  UNL     1      28.500  22.609  66.160  1.00  0.00     0.141 C
HETATM   31  N5  UNL     1      28.250  22.117  64.824  1.00  0.00    -0.373 N
ATOM     32  H5  UNL     1      27.575  22.496  64.160  1.00  0.00     0.161 HD
ENDBRANCH  20  26
ENDBRANCH   1  18
TORSDOF 6
ENDMDL