MODEL 4
REMARK VINA RESULT: -7.615527096      2.328      2.846
REMARK  7 active torsions:
REMARK  status: ('A' for Active; 'I' for Inactive)
REMARK    1  A    between atoms: C4_7  and  N3_8
REMARK    2  A    between atoms: N5_14  and  N6_16
REMARK    3  A    between atoms: N7_20  and  C7_22
REMARK    4  A    between atoms: C7_22  and  C8_23
REMARK    5  A    between atoms: C8_23  and  N8_24
REMARK       I    between atoms: N8_24  and  C9_26
REMARK    6  A    between atoms: C9_26  and  C10_28
REMARK    7  A    between atoms: C10_28  and  N9_29
ROOT
HETATM    1  C1  UNL     1      28.991  15.637  61.242  1.00  0.00     0.158 C
HETATM    2  N1  UNL     1      27.650  15.176  60.973  1.00  0.00    -0.332 N
HETATM    3  C2  UNL     1      27.355  14.187  60.130  1.00  0.00     0.184 A
HETATM    4  N2  UNL     1      26.024  13.994  60.098  1.00  0.00    -0.346 N
ATOM      5  H2  UNL     1      25.529  13.300  59.538  1.00  0.00     0.167 HD
HETATM    6  C3  UNL     1      25.467  14.884  60.940  1.00  0.00     0.122 A
HETATM    7  C4  UNL     1      24.112  14.977  61.163  1.00  0.00     0.131 C
HETATM    8  N4  UNL     1      23.500  15.751  62.098  1.00  0.00    -0.323 N
ATOM      9  H4  UNL     1      22.494  15.603  62.189  1.00  0.00     0.169 HD
HETATM   10  C5  UNL     1      24.017  16.683  62.923  1.00  0.00     0.166 C
HETATM   11  N5  UNL     1      23.198  17.103  63.815  1.00  0.00    -0.289 N
ATOM     12  H5  UNL     1      22.252  16.722  63.842  1.00  0.00     0.188 HD
HETATM   13  C6  UNL     1      25.293  17.193  62.879  1.00  0.00     0.149 C
HETATM   14  N7  UNL     1      25.422  18.362  63.380  1.00  0.00    -0.372 N
ATOM     15  H7  UNL     1      24.589  18.811  63.761  1.00  0.00     0.161 HD
HETATM   16  N10 UNL     1      26.417  16.630  62.384  1.00  0.00    -0.324 N
ATOM     17  H10 UNL     1      27.301  17.006  62.726  1.00  0.00     0.169 HD
HETATM   18  C11 UNL     1      26.500  15.627  61.490  1.00  0.00     0.140 A
ENDROOT
BRANCH  14  19
HETATM   19  C7  UNL     1      26.664  19.088  63.442  1.00  0.00     0.141 C
BRANCH  19  20
HETATM   20  C8  UNL     1      27.288  18.836  64.795  1.00  0.00     0.142 C
BRANCH  20  21
HETATM   21  N8  UNL     1      28.663  18.415  64.718  1.00  0.00    -0.358 N
HETATM   22  C9  UNL     1      29.049  17.049  64.712  1.00  0.00     0.243 C
HETATM   23  O1  UNL     1      28.153  16.169  64.775  1.00  0.00    -0.272 OA
ATOM     24  H8  UNL     1      29.390  19.128  64.666  1.00  0.00     0.162 HD
BRANCH  22  25
HETATM   25  C10 UNL     1      30.473  16.669  64.632  1.00  0.00     0.331 C
BRANCH  25  26
HETATM   26  N9  UNL     1      31.209  17.406  63.656  1.00  0.00    -0.071 N
ATOM     27  H93 UNL     1      30.698  17.445  62.774  1.00  0.00     0.274 HD
ATOM     28  H92 UNL     1      31.221  18.399  63.889  1.00  0.00     0.274 HD
ATOM     29  H91 UNL     1      32.156  17.060  63.509  1.00  0.00     0.274 HD
ENDBRANCH  25  26
ENDBRANCH  22  25
ENDBRANCH  20  21
ENDBRANCH  19  20
ENDBRANCH  14  19
BRANCH  11  30
HETATM   30  N6  UNL     1      23.572  18.067  64.749  1.00  0.00    -0.344 N
ATOM     31  H62 UNL     1      23.144  18.035  65.675  1.00  0.00     0.176 HD
ATOM     32  H61 UNL     1      24.254  18.791  64.523  1.00  0.00     0.176 HD
ENDBRANCH  11  30
BRANCH   7  33
HETATM   33  N3  UNL     1      23.364  14.259  60.408  1.00  0.00    -0.383 N
ATOM     34  H32 UNL     1      23.201  14.590  59.456  1.00  0.00     0.157 HD
ATOM     35  H31 UNL     1      22.988  13.408  60.825  1.00  0.00     0.157 HD
ENDBRANCH   7  33
TORSDOF 7
ENDMDL