MODEL 3
REMARK VINA RESULT: -7.142747026      2.644      7.297
REMARK  7 active torsions:
REMARK  status: ('A' for Active; 'I' for Inactive)
REMARK    1  A    between atoms: C2_2  and  C3_3
REMARK    2  A    between atoms: C4_6  and  N2_7
REMARK    3  A    between atoms: N2_7  and  C5_9
REMARK    4  A    between atoms: C5_9  and  C6_10
REMARK    5  A    between atoms: C6_10  and  N3_11
REMARK       I    between atoms: N3_11  and  C7_13
REMARK       I    between atoms: C7_13  and  N5_17
REMARK    6  A    between atoms: N5_17  and  N6_19
REMARK    7  A    between atoms: C10_26  and  N8_27
ROOT
HETATM    1  C3  UNL     1      25.295  19.838  64.455  1.00  0.00     0.118 A
HETATM    2  N1  UNL     1      25.526  19.097  63.317  1.00  0.00    -0.328 N
ATOM      3  H1  UNL     1      24.798  18.462  62.987  1.00  0.00     0.169 HD
HETATM    4  C4  UNL     1      26.667  19.180  62.634  1.00  0.00     0.106 A
HETATM    5  C8  UNL     1      27.669  20.027  63.052  1.00  0.00     0.098 A
HETATM    6  C9  UNL     1      27.448  20.773  64.189  1.00  0.00     0.136 A
HETATM    7  N7  UNL     1      28.405  21.628  64.629  1.00  0.00    -0.176 N
ATOM      8  H7  UNL     1      29.282  21.696  64.111  1.00  0.00     0.186 HD
HETATM    9  C10 UNL     1      28.237  22.389  65.723  1.00  0.00     0.681 A
HETATM   10  N9  UNL     1      27.072  22.273  66.378  1.00  0.00    -0.141 N
ATOM     11  H9  UNL     1      26.915  22.839  67.212  1.00  0.00     0.189 HD
HETATM   12  C11 UNL     1      26.086  21.419  65.959  1.00  0.00     0.348 A
HETATM   13  O1  UNL     1      25.029  21.370  66.617  1.00  0.00    -0.245 OA
HETATM   14  N10 UNL     1      26.260  20.661  64.866  1.00  0.00    -0.233 N
ENDROOT
BRANCH   4  15
HETATM   15  N2  UNL     1      26.888  18.482  61.560  1.00  0.00    -0.375 N
ATOM     16  H2  UNL     1      27.386  18.919  60.784  1.00  0.00     0.161 HD
BRANCH  15  17
HETATM   17  C5  UNL     1      26.457  17.119  61.425  1.00  0.00     0.141 C
BRANCH  17  18
HETATM   18  C6  UNL     1      27.039  16.467  60.192  1.00  0.00     0.157 C
BRANCH  18  19
HETATM   19  N3  UNL     1      26.278  15.354  59.734  1.00  0.00    -0.224 N
HETATM   20  C7  UNL     1      25.564  14.453  60.553  1.00  0.00     0.685 C
HETATM   21  N4  UNL     1      26.210  13.514  61.145  1.00  0.00    -0.234 N
HETATM   22  N5  UNL     1      24.164  14.545  60.748  1.00  0.00    -0.139 N
ATOM     23  H42 UNL     1      27.219  13.449  61.005  1.00  0.00     0.174 HD
ATOM     24  H41 UNL     1      25.694  12.864  61.737  1.00  0.00     0.174 HD
ATOM     25  H5  UNL     1      23.643  15.268  60.252  1.00  0.00     0.205 HD
ATOM     26  H3  UNL     1      26.247  15.194  58.727  1.00  0.00     0.177 HD
BRANCH  22  27
HETATM   27  N6  UNL     1      23.483  13.689  61.586  1.00  0.00    -0.331 N
ATOM     28  H62 UNL     1      23.138  14.061  62.471  1.00  0.00     0.177 HD
ATOM     29  H61 UNL     1      23.319  12.711  61.347  1.00  0.00     0.177 HD
ENDBRANCH  22  27
ENDBRANCH  18  19
ENDBRANCH  17  18
ENDBRANCH  15  17
ENDBRANCH   4  15
BRANCH   1  30
HETATM   30  C2  UNL     1      24.011  19.648  65.091  1.00  0.00     0.039 C
HETATM   31  C1  UNL     1      23.610  18.393  65.402  1.00  0.00     0.015 C
ENDBRANCH   1  30
BRANCH   9  32
HETATM   32  N8  UNL     1      29.137  23.205  66.154  1.00  0.00    -0.234 N
ATOM     33  H82 UNL     1      29.743  22.930  66.927  1.00  0.00     0.174 HD
ATOM     34  H81 UNL     1      29.280  24.134  65.756  1.00  0.00     0.174 HD
ENDBRANCH   9  32
TORSDOF 7
ENDMDL