MODEL 5
REMARK VINA RESULT: -7.052218448      1.812      7.005
REMARK  8 active torsions:
REMARK  status: ('A' for Active; 'I' for Inactive)
REMARK    1  A    between atoms: N1_1  and  C1_4
REMARK    2  A    between atoms: C2_7  and  N3_8
REMARK    3  A    between atoms: N4_11  and  C3_12
REMARK    4  A    between atoms: C3_12  and  C4_13
REMARK    5  A    between atoms: C4_13  and  C5_14
REMARK    6  A    between atoms: C5_14  and  C6_15
REMARK    7  A    between atoms: C8_20  and  C9_21
REMARK    8  A    between atoms: C9_21  and  N6_22
ROOT
HETATM    1  C4  UNL     1      27.777  17.287  62.049  1.00  0.00     0.024 C
ENDROOT
BRANCH   1   2
HETATM    2  C3  UNL     1      26.487  17.620  61.343  1.00  0.00     0.153 C
BRANCH   2   3
HETATM    3  N4  UNL     1      25.588  16.482  61.393  1.00  0.00    -0.132 N
HETATM    4  C2  UNL     1      25.665  15.456  60.526  1.00  0.00     0.696 A
HETATM    5  N2  UNL     1      24.817  14.387  60.564  1.00  0.00    -0.022 N
HETATM    6  C1  UNL     1      23.879  14.376  61.509  1.00  0.00     0.694 A
ATOM      7  H2  UNL     1      24.900  13.624  59.893  1.00  0.00     0.203 HD
HETATM    8  N8  UNL     1      23.768  15.388  62.401  1.00  0.00    -0.140 N
HETATM    9  C11 UNL     1      24.615  16.422  62.337  1.00  0.00     0.355 A
ATOM     10  H8  UNL     1      23.043  15.361  63.118  1.00  0.00     0.189 HD
HETATM   11  O3  UNL     1      24.536  17.375  63.149  1.00  0.00    -0.245 OA
BRANCH   4  12
HETATM   12  N3  UNL     1      26.560  15.424  59.599  1.00  0.00    -0.234 N
ATOM     13  H32 UNL     1      26.365  15.017  58.684  1.00  0.00     0.174 HD
ATOM     14  H31 UNL     1      27.463  15.831  59.844  1.00  0.00     0.174 HD
ENDBRANCH   4  12
BRANCH   6  15
HETATM   15  N1  UNL     1      23.035  13.400  61.616  1.00  0.00    -0.234 N
ATOM     16  H12 UNL     1      22.691  12.987  60.750  1.00  0.00     0.174 HD
ATOM     17  H11 UNL     1      22.726  13.058  62.526  1.00  0.00     0.174 HD
ENDBRANCH   6  15
ENDBRANCH   2   3
ENDBRANCH   1   2
BRANCH   1  18
HETATM   18  C5  UNL     1      27.845  18.039  63.365  1.00  0.00     0.036 C
BRANCH  18  19
HETATM   19  C6  UNL     1      27.835  19.535  63.027  1.00  0.00     0.176 C
HETATM   20  N5  UNL     1      29.141  20.031  63.434  1.00  0.00    -0.346 N
HETATM   21  C7  UNL     1      29.330  20.744  64.635  1.00  0.00     0.242 C
ATOM     22  H5  UNL     1      29.945  19.857  62.831  1.00  0.00     0.163 HD
HETATM   23  O1  UNL     1      30.368  21.433  64.868  1.00  0.00    -0.271 OA
HETATM   24  C8  UNL     1      28.296  20.703  65.674  1.00  0.00     0.202 C
HETATM   25  N7  UNL     1      26.980  20.366  65.205  1.00  0.00    -0.344 N
HETATM   26  C10 UNL     1      26.761  20.143  63.837  1.00  0.00     0.241 C
ATOM     27  H7  UNL     1      26.207  20.288  65.865  1.00  0.00     0.163 HD
HETATM   28  O2  UNL     1      25.682  20.449  63.300  1.00  0.00    -0.271 OA
BRANCH  24  29
HETATM   29  C9  UNL     1      28.166  22.082  66.341  1.00  0.00     0.264 C
BRANCH  29  30
HETATM   30  N6  UNL     1      27.803  23.056  65.323  1.00  0.00    -0.077 N
ATOM     31  H63 UNL     1      28.595  23.325  64.740  1.00  0.00     0.274 HD
ATOM     32  H62 UNL     1      27.218  22.655  64.590  1.00  0.00     0.274 HD
ATOM     33  H61 UNL     1      27.364  23.855  65.780  1.00  0.00     0.274 HD
ENDBRANCH  29  30
ENDBRANCH  24  29
ENDBRANCH  18  19
ENDBRANCH   1  18
TORSDOF 8
ENDMDL