MODEL 2
REMARK VINA RESULT: -7.243116910      2.816      4.675
REMARK  7 active torsions:
REMARK  status: ('A' for Active; 'I' for Inactive)
REMARK    1  A    between atoms: N1_1  and  N2_4
REMARK       I    between atoms: N2_4  and  C1_6
REMARK    2  A    between atoms: C1_6  and  C2_8
REMARK    3  A    between atoms: C2_8  and  N3_9
REMARK       I    between atoms: N3_9  and  C3_11
REMARK    4  A    between atoms: C3_11  and  C4_13
REMARK    5  A    between atoms: C4_13  and  N4_14
REMARK    6  A    between atoms: C4_13  and  C6_25
REMARK       I    between atoms: N5_16  and  C5_18
REMARK       I    between atoms: C5_18  and  N6_20
REMARK    7  A    between atoms: N6_20  and  N7_22
ROOT
HETATM    1  C4  UNL     1      27.584  19.128  62.629  1.00  0.00     0.129 C
ENDROOT
BRANCH   1   2
HETATM    2  C3  UNL     1      26.272  18.674  62.968  1.00  0.00     0.271 C
HETATM    3  N3  UNL     1      26.036  17.225  62.861  1.00  0.00    -0.347 N
ATOM      4  H3  UNL     1      26.792  16.616  62.550  1.00  0.00     0.163 HD
HETATM    5  O2  UNL     1      25.315  19.308  63.343  1.00  0.00    -0.266 OA
BRANCH   3   6
HETATM    6  C2  UNL     1      24.751  16.652  63.189  1.00  0.00     0.227 C
BRANCH   6   7
HETATM    7  C1  UNL     1      24.052  16.140  61.999  1.00  0.00     0.253 C
HETATM    8  N2  UNL     1      24.112  14.764  61.703  1.00  0.00    -0.275 N
ATOM      9  H2  UNL     1      24.635  14.136  62.312  1.00  0.00     0.189 HD
HETATM   10  O1  UNL     1      23.391  16.907  61.223  1.00  0.00    -0.270 OA
BRANCH   8  11
HETATM   11  N1  UNL     1      23.465  14.260  60.590  1.00  0.00    -0.343 N
ATOM     12  H12 UNL     1      22.448  14.187  60.603  1.00  0.00     0.176 HD
ATOM     13  H11 UNL     1      23.999  13.967  59.772  1.00  0.00     0.176 HD
ENDBRANCH   8  11
ENDBRANCH   6   7
ENDBRANCH   3   6
ENDBRANCH   1   2
BRANCH   1  14
HETATM   14  N4  UNL     1      27.857  18.960  61.404  1.00  0.00    -0.291 N
HETATM   15  N5  UNL     1      27.571  18.933  60.154  1.00  0.00    -0.250 N
HETATM   16  C5  UNL     1      27.188  17.671  59.524  1.00  0.00     0.352 C
ATOM     17  H5  UNL     1      27.612  19.789  59.602  1.00  0.00     0.192 HD
HETATM   18  O3  UNL     1      27.136  16.613  60.194  1.00  0.00    -0.244 OA
HETATM   19  N6  UNL     1      26.875  17.664  58.137  1.00  0.00    -0.257 N
ATOM     20  H6  UNL     1      26.923  18.538  57.613  1.00  0.00     0.191 HD
ATOM     21  H4  UNL     1      28.844  18.706  61.421  1.00  0.00     0.187 HD
BRANCH  19  22
HETATM   22  N7  UNL     1      26.510  16.511  57.483  1.00  0.00    -0.341 N
ATOM     23  H72 UNL     1      25.622  16.077  57.736  1.00  0.00     0.177 HD
ATOM     24  H71 UNL     1      27.099  16.092  56.763  1.00  0.00     0.177 HD
ENDBRANCH  19  22
ENDBRANCH   1  14
BRANCH   1  25
HETATM   25  C6  UNL     1      28.598  19.645  63.524  1.00  0.00     0.039 A
HETATM   26  C7  UNL     1      29.648  18.760  63.891  1.00  0.00     0.018 A
HETATM   27  C8  UNL     1      30.604  19.077  64.805  1.00  0.00     0.018 A
HETATM   28  C9  UNL     1      30.548  20.315  65.402  1.00  0.00     0.089 A
HETATM   29  N8  UNL     1      29.569  21.154  65.066  1.00  0.00    -0.354 N
HETATM   30  C10 UNL     1      28.593  20.842  64.136  1.00  0.00     0.129 A
ATOM     31  H8  UNL     1      29.537  22.069  65.515  1.00  0.00     0.166 HD
HETATM   32  N9  UNL     1      27.733  21.922  63.878  1.00  0.00    -0.082 NA
ENDBRANCH   1  25
TORSDOF 7
ENDMDL