MODEL 4
REMARK VINA RESULT: -6.885502691      4.976      7.782
REMARK  10 active torsions:
REMARK  status: ('A' for Active; 'I' for Inactive)
REMARK    1  A    between atoms: N1_1  and  C1_4
REMARK    2  A    between atoms: N3_7  and  O1_8
REMARK    3  A    between atoms: C5_13  and  C6_14
REMARK       I    between atoms: C6_14  and  N4_16
REMARK    4  A    between atoms: N4_16  and  C7_18
REMARK    5  A    between atoms: C7_18  and  O3_19
REMARK    6  A    between atoms: C7_18  and  C8_21
REMARK    7  A    between atoms: C8_21  and  N5_22
REMARK    8  A    between atoms: C8_21  and  C9_26
REMARK    9  A    between atoms: C9_26  and  N6_27
REMARK   10  A    between atoms: C9_26  and  N7_31
ROOT
HETATM    1  C6  UNL     1      28.461  16.706  63.259  1.00  0.00     0.253 C
HETATM    2  O2  UNL     1      27.916  16.054  64.205  1.00  0.00    -0.268 OA
HETATM    3  N4  UNL     1      27.634  17.227  62.257  1.00  0.00    -0.329 N
ATOM      4  H4  UNL     1      28.085  17.749  61.505  1.00  0.00     0.165 HD
ENDROOT
BRANCH   1   5
HETATM    5  C5  UNL     1      29.906  16.854  63.301  1.00  0.00     0.034 A
HETATM    6  C4  UNL     1      30.662  16.887  62.151  1.00  0.00     0.019 A
HETATM    7  C3  UNL     1      32.035  17.026  62.170  1.00  0.00     0.037 A
HETATM    8  C2  UNL     1      32.711  17.143  63.364  1.00  0.00     0.109 A
HETATM    9  N3  UNL     1      34.065  17.281  63.392  1.00  0.00    -0.147 N
HETATM   10  C11 UNL     1      31.967  17.112  64.524  1.00  0.00     0.081 A
HETATM   11  N2  UNL     1      34.654  17.387  64.565  1.00  0.00    -0.105 N
HETATM   12  C1  UNL     1      33.974  17.363  65.726  1.00  0.00     0.693 A
ATOM     13  H2  UNL     1      35.668  17.491  64.595  1.00  0.00     0.208 HD
HETATM   14  N8  UNL     1      32.635  17.227  65.709  1.00  0.00    -0.188 N
ATOM     15  H8  UNL     1      32.117  17.210  66.587  1.00  0.00     0.184 HD
HETATM   16  C10 UNL     1      30.595  16.971  64.490  1.00  0.00     0.049 A
BRANCH   9  17
HETATM   17  O1  UNL     1      34.721  17.301  62.196  1.00  0.00    -0.267 OA
ATOM     18  H1  UNL     1      35.580  17.681  62.061  1.00  0.00     0.247 HD
ENDBRANCH   9  17
BRANCH  12  19
HETATM   19  N1  UNL     1      34.538  17.466  66.884  1.00  0.00    -0.233 N
ATOM     20  H12 UNL     1      34.175  18.182  67.513  1.00  0.00     0.174 HD
ATOM     21  H11 UNL     1      35.312  16.875  67.187  1.00  0.00     0.174 HD
ENDBRANCH  12  19
ENDBRANCH   1   5
BRANCH   3  22
HETATM   22  C7  UNL     1      26.213  17.092  62.197  1.00  0.00     0.255 C
BRANCH  22  23
HETATM   23  O3  UNL     1      25.589  18.336  62.035  1.00  0.00    -0.374 OA
ATOM     24  H3  UNL     1      25.258  18.666  62.861  1.00  0.00     0.212 HD
ENDBRANCH  22  23
BRANCH  22  25
HETATM   25  C8  UNL     1      25.751  16.173  61.090  1.00  0.00     0.289 C
BRANCH  25  26
HETATM   26  N5  UNL     1      25.962  16.762  59.785  1.00  0.00    -0.067 N
ATOM     27  H53 UNL     1      25.606  17.717  59.745  1.00  0.00     0.275 HD
ATOM     28  H52 UNL     1      26.950  16.953  59.619  1.00  0.00     0.275 HD
ATOM     29  H51 UNL     1      25.565  16.185  59.044  1.00  0.00     0.275 HD
ENDBRANCH  25  26
BRANCH  25  30
HETATM   30  C9  UNL     1      24.311  15.802  61.203  1.00  0.00     0.412 C
BRANCH  30  31
HETATM   31  N6  UNL     1      23.839  15.786  62.575  1.00  0.00    -0.048 N
ATOM     32  H63 UNL     1      24.621  15.781  63.230  1.00  0.00     0.276 HD
ATOM     33  H62 UNL     1      23.418  16.680  62.827  1.00  0.00     0.276 HD
ATOM     34  H61 UNL     1      23.200  15.014  62.765  1.00  0.00     0.276 HD
ENDBRANCH  30  31
BRANCH  30  35
HETATM   35  N7  UNL     1      23.529  16.807  60.505  1.00  0.00    -0.048 N
ATOM     36  H73 UNL     1      23.756  17.757  60.800  1.00  0.00     0.276 HD
ATOM     37  H72 UNL     1      23.793  16.901  59.525  1.00  0.00     0.276 HD
ATOM     38  H71 UNL     1      22.541  16.582  60.627  1.00  0.00     0.276 HD
ENDBRANCH  30  35
ENDBRANCH  25  30
ENDBRANCH  22  25
ENDBRANCH   3  22
TORSDOF 10
ENDMDL