MODEL 2
REMARK VINA RESULT: -6.958926891      2.596      3.970
REMARK  8 active torsions:
REMARK  status: ('A' for Active; 'I' for Inactive)
REMARK    1  A    between atoms: N1_1  and  C1_4
REMARK    2  A    between atoms: C2_7  and  N3_8
REMARK    3  A    between atoms: N4_10  and  N5_12
REMARK    4  A    between atoms: N5_12  and  C3_13
REMARK    5  A    between atoms: N5_12  and  C4_15
REMARK    6  A    between atoms: C6_20  and  S1_21
REMARK    7  A    between atoms: S1_21  and  N7_24
REMARK    8  A    between atoms: N7_24  and  N8_26
ROOT
HETATM    1  C1  UNL     1      23.866  16.900  63.147  1.00  0.00     0.679 A
HETATM    2  N2  UNL     1      25.014  17.597  63.051  1.00  0.00    -0.174 N
ATOM      3  H2  UNL     1      25.237  18.350  63.701  1.00  0.00     0.186 HD
HETATM    4  C2  UNL     1      25.848  17.254  62.058  1.00  0.00     0.164 A
HETATM    5  C6  UNL     1      25.570  16.224  61.145  1.00  0.00     0.170 A
HETATM    6  C7  UNL     1      24.388  15.546  61.288  1.00  0.00     0.142 A
HETATM    7  N9  UNL     1      24.058  14.598  60.503  1.00  0.00    -0.384 N
ATOM      8  H91 UNL     1      23.178  14.094  60.609  1.00  0.00     0.157 HD
ATOM      9  H92 UNL     1      24.682  14.327  59.742  1.00  0.00     0.157 HD
HETATM   10  N10 UNL     1      23.550  15.910  62.308  1.00  0.00    -0.176 N
ATOM     11  H10 UNL     1      22.666  15.415  62.429  1.00  0.00     0.186 HD
ENDROOT
BRANCH   4  12
HETATM   12  N3  UNL     1      27.091  17.953  61.889  1.00  0.00    -0.269 N
HETATM   13  N4  UNL     1      27.908  18.057  62.856  1.00  0.00    -0.235 N
ATOM     14  H4  UNL     1      27.710  17.653  63.772  1.00  0.00     0.208 HD
ATOM     15  H3  UNL     1      27.320  18.370  60.987  1.00  0.00     0.190 HD
BRANCH  13  16
HETATM   16  N5  UNL     1      29.090  18.754  62.599  1.00  0.00    -0.220 N
BRANCH  16  17
HETATM   17  C3  UNL     1      29.212  20.081  63.040  1.00  0.00     0.374 C
HETATM   18  O1  UNL     1      28.228  20.842  63.013  1.00  0.00    -0.282 OA
ENDBRANCH  16  17
BRANCH  16  19
HETATM   19  C4  UNL     1      30.135  18.050  61.880  1.00  0.00     0.336 A
HETATM   20  C5  UNL     1      31.392  17.666  62.551  1.00  0.00     0.291 A
HETATM   21  N6  UNL     1      30.365  16.664  62.395  1.00  0.00    -0.047 N
ATOM     22  H62 UNL     1      29.865  16.040  63.029  1.00  0.00     0.279 HD
ATOM     23  H61 UNL     1      30.326  15.729  61.989  1.00  0.00     0.279 HD
ENDBRANCH  16  19
ENDBRANCH  13  16
ENDBRANCH   4  12
BRANCH   5  24
HETATM   24  S1  UNL     1      26.737  15.887  59.913  1.00  0.00     0.283 S
HETATM   25  O2  UNL     1      28.100  15.789  60.624  1.00  0.00    -0.199 OA
HETATM   26  O3  UNL     1      26.562  14.592  59.216  1.00  0.00    -0.199 OA
BRANCH  24  27
HETATM   27  N7  UNL     1      26.887  17.238  58.830  1.00  0.00    -0.229 N
ATOM     28  H7  UNL     1      27.289  18.147  59.058  1.00  0.00     0.199 HD
BRANCH  27  29
HETATM   29  N8  UNL     1      26.365  16.866  57.606  1.00  0.00    -0.336 N
ATOM     30  H82 UNL     1      26.690  16.080  57.043  1.00  0.00     0.177 HD
ATOM     31  H81 UNL     1      25.610  17.512  57.374  1.00  0.00     0.177 HD
ENDBRANCH  27  29
ENDBRANCH  24  27
ENDBRANCH   5  24
BRANCH   1  32
HETATM   32  N1  UNL     1      23.064  17.228  64.101  1.00  0.00    -0.234 N
ATOM     33  H12 UNL     1      22.392  17.984  63.974  1.00  0.00     0.174 HD
ATOM     34  H11 UNL     1      23.139  16.697  64.969  1.00  0.00     0.174 HD
ENDBRANCH   1  32
TORSDOF 8
ENDMDL