MODEL 2
REMARK VINA RESULT: -7.587738074      1.358      1.598
REMARK  7 active torsions:
REMARK  status: ('A' for Active; 'I' for Inactive)
REMARK    1  A    between atoms: N1_1  and  C1_4
REMARK    2  A    between atoms: C2_7  and  N3_8
REMARK    3  A    between atoms: N5_18  and  C6_19
REMARK    4  A    between atoms: C6_19  and  O3_20
REMARK    5  A    between atoms: O3_20  and  C7_21
REMARK    6  A    between atoms: C7_21  and  C8_22
REMARK    7  A    between atoms: C8_22  and  N6_23
ROOT
HETATM    1  C1  UNL     1      24.048  16.679  63.122  1.00  0.00     0.679 A
HETATM    2  N2  UNL     1      23.673  15.814  62.167  1.00  0.00    -0.176 N
ATOM      3  H2  UNL     1      22.679  15.629  62.032  1.00  0.00     0.186 HD
HETATM    4  C2  UNL     1      24.559  15.186  61.385  1.00  0.00     0.134 A
HETATM    5  C3  UNL     1      25.887  15.460  61.596  1.00  0.00     0.121 A
HETATM    6  C4  UNL     1      26.823  14.812  60.830  1.00  0.00     0.267 A
HETATM    7  O1  UNL     1      26.442  13.995  59.932  1.00  0.00    -0.267 OA
HETATM    8  N4  UNL     1      28.109  15.081  61.076  1.00  0.00    -0.274 N
ATOM      9  H4  UNL     1      28.826  14.612  60.521  1.00  0.00     0.173 HD
HETATM   10  C5  UNL     1      28.489  15.948  62.028  1.00  0.00     0.332 A
HETATM   11  O2  UNL     1      29.725  16.131  62.181  1.00  0.00    -0.246 OA
HETATM   12  N5  UNL     1      27.596  16.621  62.818  1.00  0.00    -0.262 N
HETATM   13  C10 UNL     1      26.303  16.360  62.586  1.00  0.00     0.148 A
HETATM   14  N9  UNL     1      25.350  16.935  63.313  1.00  0.00    -0.175 N
ATOM     15  H9  UNL     1      25.619  17.594  64.044  1.00  0.00     0.186 HD
ENDROOT
BRANCH  12  16
HETATM   16  C6  UNL     1      28.133  17.488  63.806  1.00  0.00     0.305 C
BRANCH  16  17
HETATM   17  O3  UNL     1      27.664  18.768  63.673  1.00  0.00    -0.370 OA
BRANCH  17  18
HETATM   18  C7  UNL     1      28.089  19.647  64.622  1.00  0.00     0.189 C
BRANCH  18  19
HETATM   19  C8  UNL     1      27.065  20.754  64.874  1.00  0.00     0.148 C
BRANCH  19  20
HETATM   20  N6  UNL     1      25.798  20.214  65.244  1.00  0.00    -0.365 N
HETATM   21  C9  UNL     1      24.735  20.596  64.656  1.00  0.00     0.197 C
HETATM   22  N7  UNL     1      24.796  21.557  63.630  1.00  0.00    -0.067 NA
HETATM   23  N8  UNL     1      23.490  20.056  65.031  1.00  0.00    -0.067 NA
ATOM     24  H6  UNL     1      25.743  19.516  65.987  1.00  0.00     0.161 HD
ENDBRANCH  19  20
ENDBRANCH  18  19
ENDBRANCH  17  18
ENDBRANCH  16  17
ENDBRANCH  12  16
BRANCH   4  25
HETATM   25  N3  UNL     1      24.218  14.356  60.468  1.00  0.00    -0.384 N
ATOM     26  H32 UNL     1      23.403  13.758  60.604  1.00  0.00     0.157 HD
ATOM     27  H31 UNL     1      24.728  14.257  59.590  1.00  0.00     0.157 HD
ENDBRANCH   4  25
BRANCH   1  28
HETATM   28  N1  UNL     1      23.166  17.277  63.870  1.00  0.00    -0.234 N
ATOM     29  H12 UNL     1      22.247  17.494  63.481  1.00  0.00     0.174 HD
ATOM     30  H11 UNL     1      23.379  17.530  64.834  1.00  0.00     0.174 HD
ENDBRANCH   1  28
TORSDOF 7
ENDMDL