MODEL 4
REMARK VINA RESULT: -7.519231067      0.631      2.151
REMARK  9 active torsions:
REMARK  status: ('A' for Active; 'I' for Inactive)
REMARK    1  A    between atoms: N1_1  and  C1_4
REMARK    2  A    between atoms: C3_11  and  N4_12
REMARK    3  A    between atoms: N4_12  and  C4_14
REMARK    4  A    between atoms: C4_14  and  C5_15
REMARK    5  A    between atoms: C5_15  and  O2_16
REMARK    6  A    between atoms: C5_15  and  C6_18
REMARK    7  A    between atoms: C6_18  and  N5_19
REMARK    8  A    between atoms: C6_18  and  C7_23
REMARK    9  A    between atoms: C7_23  and  C8_24
ROOT
HETATM    1  N4  UNL     1      26.838  18.113  62.163  1.00  0.00    -0.223 N
ATOM      2  H4  UNL     1      25.893  17.730  62.170  1.00  0.00     0.177 HD
ENDROOT
BRANCH   1   3
HETATM    3  C3  UNL     1      26.957  19.237  62.721  1.00  0.00     0.685 C
HETATM    4  N3  UNL     1      25.831  19.717  63.298  1.00  0.00    -0.141 N
HETATM    5  C2  UNL     1      25.626  20.805  64.068  1.00  0.00     0.340 C
ATOM      6  H3  UNL     1      24.994  19.162  63.120  1.00  0.00     0.189 HD
HETATM    7  N2  UNL     1      26.571  21.575  64.679  1.00  0.00    -0.290 N
HETATM    8  O1  UNL     1      24.419  21.152  64.245  1.00  0.00    -0.246 OA
HETATM    9  C1  UNL     1      27.919  21.537  64.524  1.00  0.00     0.173 C
ATOM     10  H2  UNL     1      26.220  22.270  65.338  1.00  0.00     0.172 HD
HETATM   11  C11 UNL     1      28.584  20.896  63.500  1.00  0.00     0.303 C
HETATM   12  N8  UNL     1      28.141  19.876  62.720  1.00  0.00    -0.153 N
HETATM   13  O3  UNL     1      29.727  21.315  63.276  1.00  0.00    -0.263 OA
ATOM     14  H8  UNL     1      28.810  19.544  62.025  1.00  0.00     0.187 HD
BRANCH   9  15
HETATM   15  N1  UNL     1      28.625  22.153  65.412  1.00  0.00    -0.381 N
ATOM     16  H12 UNL     1      29.637  22.026  65.391  1.00  0.00     0.157 HD
ATOM     17  H11 UNL     1      28.119  22.732  66.083  1.00  0.00     0.157 HD
ENDBRANCH   9  15
ENDBRANCH   1   3
BRANCH   1  18
HETATM   18  C4  UNL     1      27.801  17.301  61.532  1.00  0.00     0.171 C
BRANCH  18  19
HETATM   19  C5  UNL     1      27.624  17.441  60.015  1.00  0.00     0.167 C
BRANCH  19  20
HETATM   20  O2  UNL     1      27.508  18.772  59.726  1.00  0.00    -0.392 OA
ATOM     21  H2  UNL     1      28.258  19.024  59.201  1.00  0.00     0.210 HD
ENDBRANCH  19  20
BRANCH  19  22
HETATM   22  C6  UNL     1      26.511  16.610  59.505  1.00  0.00     0.219 C
BRANCH  22  23
HETATM   23  N5  UNL     1      26.267  16.926  58.081  1.00  0.00    -0.072 N
ATOM     24  H53 UNL     1      26.459  17.904  57.866  1.00  0.00     0.274 HD
ATOM     25  H52 UNL     1      26.964  16.501  57.469  1.00  0.00     0.274 HD
ATOM     26  H51 UNL     1      25.317  16.655  57.828  1.00  0.00     0.274 HD
ENDBRANCH  22  23
BRANCH  22  27
HETATM   27  C7  UNL     1      26.631  15.132  59.670  1.00  0.00     0.094 C
BRANCH  27  28
HETATM   28  C8  UNL     1      25.670  14.510  60.590  1.00  0.00     0.027 A
HETATM   29  C9  UNL     1      25.896  13.591  61.598  1.00  0.00     0.114 A
HETATM   30  N6  UNL     1      24.728  13.310  62.171  1.00  0.00    -0.360 N
HETATM   31  C10 UNL     1      23.749  14.005  61.584  1.00  0.00     0.180 A
ATOM     32  H6  UNL     1      24.600  12.659  62.945  1.00  0.00     0.166 HD
HETATM   33  N7  UNL     1      24.323  14.736  60.622  1.00  0.00    -0.355 N
ATOM     34  H7  UNL     1      23.824  15.372  59.999  1.00  0.00     0.166 HD
ENDBRANCH  27  28
ENDBRANCH  22  27
ENDBRANCH  19  22
ENDBRANCH  18  19
ENDBRANCH   1  18
TORSDOF 9
ENDMDL