MODEL 4
REMARK VINA RESULT: -6.749038194      2.482      3.784
REMARK  7 active torsions:
REMARK  status: ('A' for Active; 'I' for Inactive)
REMARK    1  A    between atoms: C3_4  and  O1_5
REMARK    2  A    between atoms: O1_5  and  C4_6
REMARK    3  A    between atoms: C4_6  and  C5_7
REMARK    4  A    between atoms: C5_7  and  O2_8
REMARK    5  A    between atoms: O2_8  and  C6_9
REMARK    6  A    between atoms: C6_9  and  N2_10
REMARK    7  A    between atoms: C9_22  and  N7_23
ROOT
HETATM    1  C4  UNL     1      25.421  18.195  64.312  1.00  0.00     0.194 C
ENDROOT
BRANCH   1   2
HETATM    2  O1  UNL     1      24.487  17.855  63.347  1.00  0.00    -0.380 OA
BRANCH   2   3
HETATM    3  C3  UNL     1      25.001  17.063  62.335  1.00  0.00     0.177 C
HETATM    4  C2  UNL     1      25.956  16.021  62.819  1.00  0.00     0.158 C
HETATM    5  N1  UNL     1      25.661  14.883  61.972  1.00  0.00    -0.371 N
HETATM    6  C1  UNL     1      26.616  13.868  61.537  1.00  0.00     0.151 C
HETATM    7  C10 UNL     1      24.289  14.929  61.644  1.00  0.00     0.106 C
HETATM    8  C9  UNL     1      23.834  16.345  61.688  1.00  0.00     0.280 C
HETATM    9  N8  UNL     1      23.593  13.869  61.357  1.00  0.00    -0.387 N
ATOM     10  H82 UNL     1      23.905  12.898  61.326  1.00  0.00     0.157 HD
ATOM     11  H81 UNL     1      22.601  13.902  61.119  1.00  0.00     0.157 HD
BRANCH   8  12
HETATM   12  N7  UNL     1      23.674  16.870  60.340  1.00  0.00    -0.066 N
ATOM     13  H73 UNL     1      24.443  17.478  60.061  1.00  0.00     0.275 HD
ATOM     14  H72 UNL     1      23.796  16.156  59.621  1.00  0.00     0.275 HD
ATOM     15  H71 UNL     1      22.766  17.331  60.288  1.00  0.00     0.275 HD
ENDBRANCH   8  12
ENDBRANCH   2   3
ENDBRANCH   1   2
BRANCH   1  16
HETATM   16  C5  UNL     1      25.277  19.677  64.576  1.00  0.00     0.196 C
BRANCH  16  17
HETATM   17  O2  UNL     1      25.751  20.353  63.456  1.00  0.00    -0.368 OA
BRANCH  17  18
HETATM   18  C6  UNL     1      27.128  20.153  63.356  1.00  0.00     0.319 C
BRANCH  18  19
HETATM   19  N2  UNL     1      27.863  21.098  64.154  1.00  0.00    -0.202 N
HETATM   20  N3  UNL     1      27.317  22.351  64.440  1.00  0.00     0.001 NA
HETATM   21  N4  UNL     1      27.551  22.747  65.751  1.00  0.00    -0.116 N
HETATM   22  C7  UNL     1      28.821  22.481  66.327  1.00  0.00     0.693 C
ATOM     23  H4  UNL     1      26.825  23.220  66.289  1.00  0.00     0.203 HD
HETATM   24  N5  UNL     1      29.174  23.187  67.344  1.00  0.00    -0.233 N
HETATM   25  N6  UNL     1      29.658  21.454  65.773  1.00  0.00    -0.139 N
ATOM     26  H52 UNL     1      28.579  23.916  67.738  1.00  0.00     0.174 HD
ATOM     27  H51 UNL     1      30.086  22.995  67.759  1.00  0.00     0.174 HD
HETATM   28  C8  UNL     1      29.144  20.750  64.648  1.00  0.00     0.355 C
ATOM     29  H6  UNL     1      30.575  21.241  66.165  1.00  0.00     0.189 HD
HETATM   30  O3  UNL     1      29.849  19.839  64.129  1.00  0.00    -0.245 OA
ENDBRANCH  18  19
ENDBRANCH  17  18
ENDBRANCH  16  17
ENDBRANCH   1  16
TORSDOF 7
ENDMDL