MODEL 1
REMARK VINA RESULT: -7.020612187      0.000      0.000
REMARK  6 active torsions:
REMARK  status: ('A' for Active; 'I' for Inactive)
REMARK    1  A    between atoms: C2_5  and  N3_6
REMARK    2  A    between atoms: N3_6  and  C3_8
REMARK    3  A    between atoms: C3_8  and  C4_9
REMARK    4  A    between atoms: C4_9  and  C5_10
REMARK    5  A    between atoms: C5_10  and  N4_11
REMARK    6  A    between atoms: N4_11  and  C6_13
ROOT
HETATM    1  N3  UNL     1      27.512  17.312  64.787  1.00  0.00    -0.371 N
ATOM      2  H3  UNL     1      28.235  17.050  65.456  1.00  0.00     0.161 HD
ENDROOT
BRANCH   1   3
HETATM    3  C2  UNL     1      26.816  18.340  65.045  1.00  0.00     0.173 C
HETATM    4  N2  UNL     1      25.615  18.157  65.664  1.00  0.00    -0.312 N
HETATM    5  C1  UNL     1      24.505  18.915  65.510  1.00  0.00     0.198 C
ATOM      6  H2  UNL     1      25.547  17.369  66.308  1.00  0.00     0.170 HD
HETATM    7  N1  UNL     1      23.361  18.451  66.216  1.00  0.00    -0.063 NA
HETATM    8  N8  UNL     1      24.369  20.055  64.766  1.00  0.00    -0.282 N
HETATM    9  C11 UNL     1      25.323  20.816  64.195  1.00  0.00     0.329 C
ATOM     10  H8  UNL     1      23.410  20.373  64.624  1.00  0.00     0.173 HD
HETATM   11  N7  UNL     1      26.634  20.634  64.179  1.00  0.00    -0.272 N
HETATM   12  O2  UNL     1      24.856  21.820  63.609  1.00  0.00    -0.247 OA
HETATM   13  C10 UNL     1      27.314  19.577  64.663  1.00  0.00     0.293 C
ATOM     14  H7  UNL     1      27.190  21.377  63.755  1.00  0.00     0.174 HD
HETATM   15  O1  UNL     1      28.537  19.697  64.790  1.00  0.00    -0.264 OA
ENDBRANCH   1   3
BRANCH   1  16
HETATM   16  C3  UNL     1      27.357  16.500  63.632  1.00  0.00     0.126 C
BRANCH  16  17
HETATM   17  C4  UNL     1      28.756  16.211  63.100  1.00  0.00     0.064 C
BRANCH  17  18
HETATM   18  C5  UNL     1      28.558  15.899  61.628  1.00  0.00     0.059 C
BRANCH  18  19
HETATM   19  N4  UNL     1      27.577  14.930  61.364  1.00  0.00    -0.374 N
ATOM     20  H4  UNL     1      27.338  14.238  62.073  1.00  0.00     0.160 HD
BRANCH  19  21
HETATM   21  C6  UNL     1      26.926  14.918  60.122  1.00  0.00     0.309 C
HETATM   22  C7  UNL     1      26.680  16.335  59.585  1.00  0.00     0.286 C
HETATM   23  N5  UNL     1      25.324  16.748  59.874  1.00  0.00    -0.070 N
HETATM   24  C8  UNL     1      24.801  16.231  61.101  1.00  0.00     0.260 C
ATOM     25  H52 UNL     1      25.249  17.766  59.855  1.00  0.00     0.277 HD
ATOM     26  H51 UNL     1      24.706  16.514  59.097  1.00  0.00     0.277 HD
HETATM   27  C9  UNL     1      24.737  14.733  61.067  1.00  0.00     0.262 C
HETATM   28  N6  UNL     1      25.673  14.172  60.110  1.00  0.00    -0.051 N
ATOM     29  H62 UNL     1      25.272  14.119  59.174  1.00  0.00     0.279 HD
ATOM     30  H61 UNL     1      25.824  13.175  60.267  1.00  0.00     0.279 HD
ENDBRANCH  19  21
ENDBRANCH  18  19
ENDBRANCH  17  18
ENDBRANCH  16  17
ENDBRANCH   1  16
TORSDOF 6
ENDMDL