MODEL 3
REMARK VINA RESULT: -7.046563580      0.909      2.021
REMARK  9 active torsions:
REMARK  status: ('A' for Active; 'I' for Inactive)
REMARK    1  A    between atoms: C2_2  and  O1_3
REMARK    2  A    between atoms: C2_2  and  O2_7
REMARK    3  A    between atoms: O1_3  and  N1_4
REMARK    4  A    between atoms: O2_7  and  C3_8
REMARK    5  A    between atoms: C3_8  and  N2_9
REMARK    6  A    between atoms: C7_13  and  C8_14
REMARK    7  A    between atoms: C8_14  and  C9_15
REMARK    8  A    between atoms: C10_18  and  N4_19
REMARK    9  A    between atoms: C11_24  and  N6_25
ROOT
HETATM    1  C8  UNL     1      26.926  17.140  60.462  1.00  0.00     0.136 C
ENDROOT
BRANCH   1   2
HETATM    2  C7  UNL     1      28.068  17.493  61.360  1.00  0.00     0.033 A
HETATM    3  C6  UNL     1      28.884  16.491  61.788  1.00  0.00     0.028 A
HETATM    4  C5  UNL     1      29.932  16.815  62.612  1.00  0.00     0.021 A
HETATM    5  C4  UNL     1      30.098  18.144  62.960  1.00  0.00     0.118 A
HETATM    6  N2  UNL     1      29.295  19.129  62.542  1.00  0.00    -0.257 N
HETATM    7  N8  UNL     1      28.288  18.758  61.740  1.00  0.00    -0.297 N
ATOM      8  H8  UNL     1      27.653  19.480  61.399  1.00  0.00     0.187 HD
BRANCH   6   9
HETATM    9  C3  UNL     1      29.453  20.515  62.915  1.00  0.00     0.253 C
BRANCH   9  10
HETATM   10  O2  UNL     1      28.316  21.217  63.135  1.00  0.00    -0.312 OA
BRANCH  10  11
HETATM   11  C2  UNL     1      27.665  21.109  64.323  1.00  0.00     0.291 C
HETATM   12  C1  UNL     1      28.636  20.993  65.504  1.00  0.00     0.073 C
BRANCH  11  13
HETATM   13  O1  UNL     1      26.788  20.017  64.366  1.00  0.00    -0.255 OA
BRANCH  13  14
HETATM   14  N1  UNL     1      25.615  20.281  63.788  1.00  0.00    -0.308 N
ATOM     15  H12 UNL     1      24.934  19.556  63.561  1.00  0.00     0.184 HD
ATOM     16  H11 UNL     1      25.486  21.275  63.603  1.00  0.00     0.184 HD
ENDBRANCH  13  14
ENDBRANCH  11  13
ENDBRANCH  10  11
ENDBRANCH   9  10
ENDBRANCH   6   9
ENDBRANCH   1   2
BRANCH   1  17
HETATM   17  C9  UNL     1      25.792  16.586  61.247  1.00  0.00     0.119 A
HETATM   18  N3  UNL     1      25.610  15.249  61.190  1.00  0.00    -0.179 N
HETATM   19  C10 UNL     1      24.584  14.733  61.896  1.00  0.00     0.691 A
ATOM     20  H3  UNL     1      26.224  14.653  60.634  1.00  0.00     0.185 HD
HETATM   21  N5  UNL     1      23.788  15.511  62.618  1.00  0.00    -0.023 N
HETATM   22  C11 UNL     1      23.987  16.845  62.662  1.00  0.00     0.691 A
ATOM     23  H5  UNL     1      23.018  15.098  63.144  1.00  0.00     0.203 HD
HETATM   24  N7  UNL     1      24.991  17.379  61.974  1.00  0.00    -0.179 N
ATOM     25  H7  UNL     1      25.151  18.387  61.999  1.00  0.00     0.185 HD
BRANCH  19  26
HETATM   26  N4  UNL     1      24.347  13.462  61.891  1.00  0.00    -0.234 N
ATOM     27  H42 UNL     1      25.120  12.832  61.677  1.00  0.00     0.174 HD
ATOM     28  H41 UNL     1      23.415  13.102  62.094  1.00  0.00     0.174 HD
ENDBRANCH  19  26
BRANCH  22  29
HETATM   29  N6  UNL     1      23.189  17.544  63.373  1.00  0.00    -0.234 N
ATOM     30  H62 UNL     1      23.391  18.506  63.644  1.00  0.00     0.174 HD
ATOM     31  H61 UNL     1      22.317  17.110  63.674  1.00  0.00     0.174 HD
ENDBRANCH  22  29
ENDBRANCH   1  17
TORSDOF 9
ENDMDL