MODEL 3
REMARK VINA RESULT: -6.463573791      2.570      6.028
REMARK  9 active torsions:
REMARK  status: ('A' for Active; 'I' for Inactive)
REMARK    1  A    between atoms: N1_2  and  C2_4
REMARK    2  A    between atoms: C3_7  and  N3_8
REMARK    3  A    between atoms: N3_8  and  C4_10
REMARK    4  A    between atoms: C4_10  and  C5_11
REMARK    5  A    between atoms: C5_11  and  C6_12
REMARK    6  A    between atoms: C6_12  and  O1_13
REMARK    7  A    between atoms: N6_23  and  C10_24
REMARK    8  A    between atoms: C10_24  and  C11_25
REMARK    9  A    between atoms: C11_25  and  O3_26
ROOT
HETATM    1  C2  UNL     1      24.540  16.063  62.716  1.00  0.00     0.147 A
HETATM    2  N2  UNL     1      25.844  15.748  62.445  1.00  0.00    -0.175 N
ATOM      3  H2  UNL     1      26.038  14.902  61.909  1.00  0.00     0.186 HD
HETATM    4  C3  UNL     1      26.866  16.490  62.845  1.00  0.00     0.681 A
HETATM    5  N4  UNL     1      26.580  17.598  63.548  1.00  0.00    -0.174 N
ATOM      6  H4  UNL     1      27.359  18.177  63.862  1.00  0.00     0.186 HD
HETATM    7  C7  UNL     1      25.340  17.994  63.866  1.00  0.00     0.158 A
HETATM    8  C8  UNL     1      24.280  17.207  63.441  1.00  0.00     0.126 A
HETATM    9  N5  UNL     1      23.132  17.787  63.868  1.00  0.00    -0.302 N
ATOM     10  H5  UNL     1      22.187  17.439  63.708  1.00  0.00     0.171 HD
HETATM   11  C9  UNL     1      23.467  18.917  64.548  1.00  0.00     0.328 A
HETATM   12  O2  UNL     1      22.599  19.666  65.063  1.00  0.00    -0.246 OA
HETATM   13  N6  UNL     1      24.799  19.023  64.536  1.00  0.00    -0.281 N
ENDROOT
BRANCH   4  14
HETATM   14  N3  UNL     1      28.106  16.169  62.573  1.00  0.00    -0.226 N
ATOM     15  H3  UNL     1      28.339  15.613  61.750  1.00  0.00     0.177 HD
BRANCH  14  16
HETATM   16  C4  UNL     1      29.126  16.624  63.474  1.00  0.00     0.140 C
BRANCH  16  17
HETATM   17  C5  UNL     1      30.331  17.018  62.614  1.00  0.00     0.046 C
BRANCH  17  18
HETATM   18  C6  UNL     1      30.206  18.492  62.335  1.00  0.00     0.165 C
BRANCH  18  19
HETATM   19  O1  UNL     1      29.405  18.661  61.205  1.00  0.00    -0.401 OA
ATOM     20  H1  UNL     1      29.305  19.591  61.045  1.00  0.00     0.209 HD
ENDBRANCH  18  19
ENDBRANCH  17  18
ENDBRANCH  16  17
ENDBRANCH  14  16
ENDBRANCH   4  14
BRANCH   1  21
HETATM   21  N1  UNL     1      23.685  15.259  62.268  1.00  0.00    -0.378 N
HETATM   22  C1  UNL     1      23.650  13.872  62.065  1.00  0.00     0.147 C
ATOM     23  H1  UNL     1      22.819  15.721  61.988  1.00  0.00     0.160 HD
ENDBRANCH   1  21
BRANCH  13  24
HETATM   24  C10 UNL     1      25.552  20.090  65.153  1.00  0.00     0.161 C
BRANCH  24  25
HETATM   25  C11 UNL     1      25.935  21.163  64.159  1.00  0.00     0.184 C
BRANCH  25  26
HETATM   26  O3  UNL     1      24.873  21.950  63.791  1.00  0.00    -0.399 OA
ATOM     27  H3  UNL     1      24.637  22.584  64.458  1.00  0.00     0.209 HD
ENDBRANCH  25  26
ENDBRANCH  24  25
ENDBRANCH  13  24
TORSDOF 9
ENDMDL