MODEL 3
REMARK VINA RESULT: -6.608833177      2.188      3.584
REMARK  8 active torsions:
REMARK  status: ('A' for Active; 'I' for Inactive)
REMARK    1  A    between atoms: C1_4  and  N2_5
REMARK    2  A    between atoms: N2_5  and  N3_6
REMARK    3  A    between atoms: N2_5  and  C2_9
REMARK    4  A    between atoms: C2_9  and  C3_10
REMARK    5  A    between atoms: C4_13  and  N5_14
REMARK    6  A    between atoms: C6_20  and  N7_21
REMARK    7  A    between atoms: N7_21  and  C7_23
REMARK    8  A    between atoms: C7_23  and  C8_24
ROOT
HETATM    1  C3  UNL     1      26.668  16.438  60.450  1.00  0.00     0.075 A
HETATM    2  N4  UNL     1      26.799  17.123  59.308  1.00  0.00    -0.192 N
ATOM      3  H4  UNL     1      26.296  16.801  58.481  1.00  0.00     0.184 HD
HETATM    4  C4  UNL     1      27.570  18.221  59.211  1.00  0.00     0.676 A
HETATM    5  N6  UNL     1      28.246  18.672  60.285  1.00  0.00    -0.186 N
ATOM      6  H6  UNL     1      28.829  19.505  60.206  1.00  0.00     0.184 HD
HETATM    7  C5  UNL     1      28.155  18.025  61.466  1.00  0.00     0.121 A
HETATM    8  C6  UNL     1      28.852  18.483  62.587  1.00  0.00     0.132 A
HETATM    9  N9  UNL     1      28.735  17.810  63.747  1.00  0.00    -0.337 N
ATOM     10  H9  UNL     1      29.239  18.133  64.574  1.00  0.00     0.168 HD
HETATM   11  C9  UNL     1      27.956  16.711  63.822  1.00  0.00     0.182 A
HETATM   12  N10 UNL     1      27.279  16.256  62.753  1.00  0.00    -0.349 N
ATOM     13  H10 UNL     1      26.698  15.423  62.841  1.00  0.00     0.167 HD
HETATM   14  C10 UNL     1      27.362  16.900  61.551  1.00  0.00     0.089 A
ENDROOT
BRANCH   1  15
HETATM   15  C2  UNL     1      25.848  15.237  60.627  1.00  0.00     0.209 C
BRANCH  15  16
HETATM   16  N2  UNL     1      24.474  15.486  60.935  1.00  0.00    -0.289 N
BRANCH  16  17
HETATM   17  C1  UNL     1      23.804  14.458  61.680  1.00  0.00     0.193 C
HETATM   18  N1  UNL     1      24.460  13.389  61.960  1.00  0.00    -0.394 N
ATOM     19  H12 UNL     1      25.428  13.291  61.655  1.00  0.00     0.156 HD
ATOM     20  H11 UNL     1      23.984  12.660  62.489  1.00  0.00     0.156 HD
ENDBRANCH  16  17
BRANCH  16  21
HETATM   21  N3  UNL     1      23.740  16.594  60.595  1.00  0.00    -0.342 N
ATOM     22  H32 UNL     1      22.754  16.621  60.336  1.00  0.00     0.177 HD
ATOM     23  H31 UNL     1      24.223  17.492  60.600  1.00  0.00     0.177 HD
ENDBRANCH  16  21
ENDBRANCH  15  16
ENDBRANCH   1  15
BRANCH   4  24
HETATM   24  N5  UNL     1      27.680  18.872  58.078  1.00  0.00    -0.234 N
ATOM     25  H52 UNL     1      27.075  18.607  57.300  1.00  0.00     0.174 HD
ATOM     26  H51 UNL     1      28.355  19.629  57.970  1.00  0.00     0.174 HD
ENDBRANCH   4  24
BRANCH   8  27
HETATM   27  N7  UNL     1      29.565  19.525  62.433  1.00  0.00    -0.366 N
ATOM     28  H7  UNL     1      30.050  19.627  61.542  1.00  0.00     0.161 HD
BRANCH  27  29
HETATM   29  C7  UNL     1      29.750  20.569  63.397  1.00  0.00     0.220 C
BRANCH  29  30
HETATM   30  C8  UNL     1      28.533  20.917  64.137  1.00  0.00     0.248 C
HETATM   31  N8  UNL     1      28.362  20.434  65.458  1.00  0.00    -0.061 NA
HETATM   32  O1  UNL     1      27.628  21.632  63.647  1.00  0.00    -0.275 OA
ENDBRANCH  29  30
ENDBRANCH  27  29
ENDBRANCH   8  27
TORSDOF 8
ENDMDL