MODEL 5
REMARK VINA RESULT: -6.960590608      2.141      3.902
REMARK  8 active torsions:
REMARK  status: ('A' for Active; 'I' for Inactive)
REMARK    1  A    between atoms: O1_2  and  C2_3
REMARK    2  A    between atoms: C2_3  and  N1_4
REMARK    3  A    between atoms: C5_8  and  N3_9
REMARK    4  A    between atoms: N3_9  and  C6_11
REMARK    5  A    between atoms: C6_11  and  C7_12
REMARK    6  A    between atoms: C7_12  and  N4_13
REMARK    7  A    between atoms: N4_13  and  C8_15
REMARK    8  A    between atoms: C9_20  and  N7_21
ROOT
HETATM    1  C6  UNL     1      27.081  15.058  59.845  1.00  0.00     0.141 C
ENDROOT
BRANCH   1   2
HETATM    2  N3  UNL     1      28.178  15.432  60.714  1.00  0.00    -0.375 N
ATOM      3  H3  UNL     1      29.127  15.096  60.549  1.00  0.00     0.161 HD
BRANCH   2   4
HETATM    4  C5  UNL     1      27.903  16.207  61.705  1.00  0.00     0.108 A
HETATM    5  C4  UNL     1      27.253  17.392  61.456  1.00  0.00     0.094 A
HETATM    6  C3  UNL     1      26.959  18.215  62.515  1.00  0.00     0.131 A
HETATM    7  N1  UNL     1      27.290  17.896  63.807  1.00  0.00    -0.242 N
HETATM    8  N2  UNL     1      26.290  19.454  62.332  1.00  0.00    -0.082 NA
HETATM    9  C10 UNL     1      27.919  16.739  64.002  1.00  0.00     0.335 A
HETATM   10  N9  UNL     1      28.217  15.917  62.980  1.00  0.00    -0.294 N
HETATM   11  O2  UNL     1      28.248  16.398  65.155  1.00  0.00    -0.246 OA
ATOM     12  H9  UNL     1      28.699  15.040  63.179  1.00  0.00     0.172 HD
BRANCH   7  13
HETATM   13  C2  UNL     1      26.990  18.785  64.887  1.00  0.00     0.238 C
BRANCH  13  14
HETATM   14  O1  UNL     1      25.774  18.628  65.476  1.00  0.00    -0.351 OA
HETATM   15  C1  UNL     1      25.065  19.778  65.744  1.00  0.00     0.210 C
ENDBRANCH  13  14
ENDBRANCH   7  13
ENDBRANCH   2   4
ENDBRANCH   1   2
BRANCH   1  16
HETATM   16  C7  UNL     1      26.249  13.948  60.449  1.00  0.00     0.157 C
BRANCH  16  17
HETATM   17  N4  UNL     1      24.856  14.307  60.469  1.00  0.00    -0.223 N
ATOM     18  H4  UNL     1      24.194  13.704  59.978  1.00  0.00     0.177 HD
BRANCH  17  19
HETATM   19  C8  UNL     1      24.400  15.350  61.073  1.00  0.00     0.707 A
HETATM   20  N5  UNL     1      23.945  16.514  60.578  1.00  0.00    -0.117 N
HETATM   21  N6  UNL     1      23.574  17.311  61.560  1.00  0.00    -0.118 N
ATOM     22  H5  UNL     1      23.894  16.747  59.587  1.00  0.00     0.206 HD
HETATM   23  C9  UNL     1      23.785  16.661  62.739  1.00  0.00     0.705 A
ATOM     24  H6  UNL     1      23.194  18.252  61.455  1.00  0.00     0.206 HD
HETATM   25  N8  UNL     1      24.297  15.452  62.405  1.00  0.00    -0.020 N
ATOM     26  H8  UNL     1      24.564  14.726  63.069  1.00  0.00     0.203 HD
BRANCH  23  27
HETATM   27  N7  UNL     1      23.554  17.092  63.913  1.00  0.00    -0.233 N
ATOM     28  H72 UNL     1      23.583  16.553  64.778  1.00  0.00     0.174 HD
ATOM     29  H71 UNL     1      23.303  18.042  64.187  1.00  0.00     0.174 HD
ENDBRANCH  23  27
ENDBRANCH  17  19
ENDBRANCH  16  17
ENDBRANCH   1  16
TORSDOF 8
ENDMDL