MODEL 1
REMARK VINA RESULT: -7.391112488      0.000      0.000
REMARK  8 active torsions:
REMARK  status: ('A' for Active; 'I' for Inactive)
REMARK    1  A    between atoms: N1_1  and  C1_4
REMARK    2  A    between atoms: N4_16  and  C6_17
REMARK    3  A    between atoms: C6_17  and  C7_18
REMARK    4  A    between atoms: C7_18  and  C8_19
REMARK    5  A    between atoms: C8_19  and  C9_20
REMARK    6  A    between atoms: C9_20  and  C10_21
REMARK    7  A    between atoms: C10_21  and  N5_22
REMARK    8  A    between atoms: C10_21  and  N6_26
ROOT
HETATM    1  C1  UNL     1      25.333  17.846  63.761  1.00  0.00     0.680 A
HETATM    2  N2  UNL     1      25.242  19.182  63.909  1.00  0.00    -0.155 N
ATOM      3  H2  UNL     1      24.370  19.596  64.241  1.00  0.00     0.187 HD
HETATM    4  C2  UNL     1      26.302  19.986  63.617  1.00  0.00     0.279 A
HETATM    5  O1  UNL     1      26.231  21.237  63.749  1.00  0.00    -0.266 OA
HETATM    6  C3  UNL     1      27.452  19.369  63.171  1.00  0.00     0.145 A
HETATM    7  C4  UNL     1      28.550  20.146  62.867  1.00  0.00     0.269 A
HETATM    8  O2  UNL     1      28.455  21.390  63.007  1.00  0.00    -0.267 OA
HETATM    9  N3  UNL     1      29.678  19.537  62.433  1.00  0.00    -0.274 N
ATOM     10  H3  UNL     1      30.493  20.108  62.207  1.00  0.00     0.173 HD
HETATM   11  C5  UNL     1      29.757  18.211  62.291  1.00  0.00     0.331 A
HETATM   12  O3  UNL     1      30.798  17.638  61.889  1.00  0.00    -0.246 OA
HETATM   13  N4  UNL     1      28.677  17.439  62.588  1.00  0.00    -0.284 N
HETATM   14  C11 UNL     1      27.524  17.974  63.025  1.00  0.00     0.148 A
HETATM   15  N7  UNL     1      26.447  17.239  63.328  1.00  0.00    -0.175 N
ATOM     16  H7  UNL     1      26.475  16.224  63.231  1.00  0.00     0.186 HD
ENDROOT
BRANCH  13  17
HETATM   17  C6  UNL     1      28.826  16.010  62.414  1.00  0.00     0.135 C
BRANCH  17  18
HETATM   18  C7  UNL     1      28.205  15.595  61.090  1.00  0.00     0.020 C
BRANCH  18  19
HETATM   19  C8  UNL     1      27.334  14.397  61.203  1.00  0.00     0.005 C
BRANCH  19  20
HETATM   20  C9  UNL     1      26.176  14.392  60.242  1.00  0.00     0.062 C
BRANCH  20  21
HETATM   21  C10 UNL     1      24.972  15.062  60.867  1.00  0.00     0.378 C
BRANCH  21  22
HETATM   22  N5  UNL     1      24.815  16.387  60.323  1.00  0.00    -0.051 N
ATOM     23  H53 UNL     1      25.062  16.428  59.334  1.00  0.00     0.276 HD
ATOM     24  H52 UNL     1      23.835  16.655  60.241  1.00  0.00     0.276 HD
ATOM     25  H51 UNL     1      25.349  17.053  60.881  1.00  0.00     0.276 HD
ENDBRANCH  21  22
BRANCH  21  26
HETATM   26  N6  UNL     1      23.751  14.337  60.641  1.00  0.00    -0.051 N
ATOM     27  H63 UNL     1      23.799  13.804  59.772  1.00  0.00     0.276 HD
ATOM     28  H62 UNL     1      23.656  13.567  61.302  1.00  0.00     0.276 HD
ATOM     29  H61 UNL     1      22.926  14.937  60.657  1.00  0.00     0.276 HD
ENDBRANCH  21  26
ENDBRANCH  20  21
ENDBRANCH  19  20
ENDBRANCH  18  19
ENDBRANCH  17  18
ENDBRANCH  13  17
BRANCH   1  30
HETATM   30  N1  UNL     1      24.326  17.125  64.043  1.00  0.00    -0.234 N
ATOM     31  H12 UNL     1      23.396  17.521  63.905  1.00  0.00     0.174 HD
ATOM     32  H11 UNL     1      24.478  16.180  64.395  1.00  0.00     0.174 HD
ENDBRANCH   1  30
TORSDOF 8
ENDMDL