MODEL 3
REMARK VINA RESULT: -7.050022691      1.311      2.330
REMARK  9 active torsions:
REMARK  status: ('A' for Active; 'I' for Inactive)
REMARK    1  A    between atoms: O1_2  and  C2_3
REMARK    2  A    between atoms: N1_5  and  C4_6
REMARK    3  A    between atoms: C4_6  and  C5_7
REMARK    4  A    between atoms: C5_7  and  C6_8
REMARK    5  A    between atoms: C6_8  and  N2_9
REMARK    6  A    between atoms: N2_9  and  C7_11
REMARK    7  A    between atoms: C8_14  and  N4_15
REMARK    8  A    between atoms: C9_20  and  N6_21
REMARK    9  A    between atoms: C11_27  and  N8_28
ROOT
HETATM    1  N2  UNL     1      25.696  16.767  59.807  1.00  0.00    -0.225 N
ATOM      2  H2  UNL     1      25.187  17.061  58.973  1.00  0.00     0.177 HD
ENDROOT
BRANCH   1   3
HETATM    3  C6  UNL     1      27.113  16.882  59.765  1.00  0.00     0.140 C
BRANCH   3   4
HETATM    4  C5  UNL     1      27.526  18.318  60.073  1.00  0.00     0.050 C
BRANCH   4   5
HETATM    5  C4  UNL     1      28.574  18.227  61.154  1.00  0.00     0.274 C
BRANCH   5   6
HETATM    6  N1  UNL     1      27.995  18.263  62.460  1.00  0.00     0.097 N
HETATM    7  C3  UNL     1      27.432  19.532  62.799  1.00  0.00     0.332 C
HETATM    8  C2  UNL     1      28.435  20.478  63.380  1.00  0.00     0.290 C
HETATM    9  O2  UNL     1      29.133  19.899  64.459  1.00  0.00    -0.325 OA
HETATM   10  C11 UNL     1      29.842  18.824  63.908  1.00  0.00     0.349 C
HETATM   11  C10 UNL     1      28.816  17.781  63.521  1.00  0.00     0.333 C
BRANCH   8  12
HETATM   12  O1  UNL     1      27.832  21.651  63.802  1.00  0.00    -0.364 OA
HETATM   13  C1  UNL     1      26.863  21.326  64.739  1.00  0.00     0.204 C
ENDBRANCH   8  12
BRANCH  10  14
HETATM   14  N8  UNL     1      30.801  18.315  64.864  1.00  0.00    -0.051 N
ATOM     15  H83 UNL     1      31.161  17.405  64.577  1.00  0.00     0.277 HD
ATOM     16  H82 UNL     1      31.670  18.848  64.835  1.00  0.00     0.277 HD
ATOM     17  H81 UNL     1      30.419  18.281  65.809  1.00  0.00     0.277 HD
ENDBRANCH  10  14
ENDBRANCH   5   6
ENDBRANCH   4   5
ENDBRANCH   3   4
ENDBRANCH   1   3
BRANCH   1  18
HETATM   18  C7  UNL     1      24.994  16.331  60.785  1.00  0.00     0.707 A
HETATM   19  N3  UNL     1      24.551  17.208  61.697  1.00  0.00    -0.022 N
HETATM   20  C8  UNL     1      23.804  16.751  62.743  1.00  0.00     0.705 A
ATOM     21  H3  UNL     1      24.769  18.200  61.611  1.00  0.00     0.203 HD
HETATM   22  N5  UNL     1      23.523  15.442  62.851  1.00  0.00    -0.022 N
HETATM   23  C9  UNL     1      23.956  14.544  61.948  1.00  0.00     0.705 A
ATOM     24  H5  UNL     1      22.965  15.119  63.640  1.00  0.00     0.203 HD
HETATM   25  N7  UNL     1      24.690  15.018  60.926  1.00  0.00    -0.022 N
ATOM     26  H7  UNL     1      25.032  14.360  60.226  1.00  0.00     0.203 HD
BRANCH  20  27
HETATM   27  N4  UNL     1      23.374  17.580  63.623  1.00  0.00    -0.234 N
ATOM     28  H42 UNL     1      23.842  18.476  63.759  1.00  0.00     0.174 HD
ATOM     29  H41 UNL     1      22.558  17.337  64.187  1.00  0.00     0.174 HD
ENDBRANCH  20  27
BRANCH  23  30
HETATM   30  N6  UNL     1      23.682  13.272  62.055  1.00  0.00    -0.234 N
ATOM     31  H62 UNL     1      22.767  12.951  62.372  1.00  0.00     0.174 HD
ATOM     32  H61 UNL     1      24.368  12.552  61.826  1.00  0.00     0.174 HD
ENDBRANCH  23  30
ENDBRANCH   1  18
TORSDOF 9
ENDMDL