MODEL 3
REMARK VINA RESULT: -6.553872112      2.864      4.108
REMARK  6 active torsions:
REMARK  status: ('A' for Active; 'I' for Inactive)
REMARK    1  A    between atoms: N3_4  and  C2_6
REMARK    2  A    between atoms: C2_6  and  C3_7
REMARK    3  A    between atoms: C3_7  and  C4_8
REMARK    4  A    between atoms: C4_8  and  N4_9
REMARK    5  A    between atoms: C8_17  and  S1_18
REMARK    6  A    between atoms: S1_18  and  N7_19
ROOT
HETATM    1  N4  UNL     1      24.945  17.503  62.868  1.00  0.00    -0.376 N
ATOM      2  H4  UNL     1      25.730  17.604  62.225  1.00  0.00     0.161 HD
HETATM    3  C5  UNL     1      24.874  18.359  63.797  1.00  0.00     0.106 A
HETATM    4  C6  UNL     1      23.911  18.421  64.771  1.00  0.00     0.093 A
HETATM    5  C7  UNL     1      23.931  19.404  65.742  1.00  0.00     0.121 A
HETATM    6  N5  UNL     1      22.936  19.461  66.741  1.00  0.00    -0.083 NA
HETATM    7  N6  UNL     1      24.935  20.313  65.704  1.00  0.00    -0.320 N
ATOM      8  H6  UNL     1      24.968  21.047  66.411  1.00  0.00     0.169 HD
HETATM    9  C8  UNL     1      25.890  20.271  64.757  1.00  0.00     0.226 A
HETATM   10  N8  UNL     1      25.840  19.313  63.842  1.00  0.00    -0.318 N
ATOM     11  H8  UNL     1      26.570  19.290  63.130  1.00  0.00     0.169 HD
ENDROOT
BRANCH   1  12
HETATM   12  C4  UNL     1      24.063  16.416  62.612  1.00  0.00     0.123 C
BRANCH  12  13
HETATM   13  C3  UNL     1      24.032  16.167  61.110  1.00  0.00     0.039 C
BRANCH  13  14
HETATM   14  C2  UNL     1      25.430  15.793  60.695  1.00  0.00     0.123 C
BRANCH  14  15
HETATM   15  N3  UNL     1      25.953  16.670  59.670  1.00  0.00    -0.367 N
HETATM   16  C1  UNL     1      27.006  17.349  59.920  1.00  0.00     0.196 C
HETATM   17  N1  UNL     1      27.655  17.256  61.170  1.00  0.00    -0.067 NA
HETATM   18  N2  UNL     1      27.524  18.207  58.926  1.00  0.00    -0.067 NA
ATOM     19  H3  UNL     1      25.489  16.744  58.765  1.00  0.00     0.161 HD
ENDBRANCH  14  15
ENDBRANCH  13  14
ENDBRANCH  12  13
ENDBRANCH   1  12
BRANCH   9  20
HETATM   20  S1  UNL     1      27.174  21.488  64.765  1.00  0.00     0.289 S
HETATM   21  O1  UNL     1      28.024  21.332  63.520  1.00  0.00    -0.198 OA
HETATM   22  O2  UNL     1      28.053  21.159  65.938  1.00  0.00    -0.198 OA
BRANCH  20  23
HETATM   23  N7  UNL     1      26.499  23.057  64.886  1.00  0.00    -0.322 N
ATOM     24  H72 UNL     1      26.915  23.892  64.472  1.00  0.00     0.169 HD
ATOM     25  H71 UNL     1      25.635  23.028  65.426  1.00  0.00     0.169 HD
ENDBRANCH  20  23
ENDBRANCH   9  20
TORSDOF 6
ENDMDL