MODEL 1
REMARK VINA RESULT: -6.851944167      0.000      0.000
REMARK  8 active torsions:
REMARK  status: ('A' for Active; 'I' for Inactive)
REMARK    1  A    between atoms: N1_1  and  C1_4
REMARK    2  A    between atoms: N5_19  and  C7_20
REMARK    3  A    between atoms: C7_20  and  C8_21
REMARK    4  A    between atoms: C8_21  and  C9_22
REMARK    5  A    between atoms: C9_22  and  C10_23
REMARK    6  A    between atoms: C10_23  and  N6_24
REMARK    7  A    between atoms: C10_23  and  C11_28
REMARK    8  A    between atoms: C11_28  and  N7_29
ROOT
HETATM    1  C1  UNL     1      23.921  14.292  61.911  1.00  0.00     0.679 A
HETATM    2  N2  UNL     1      23.623  15.364  62.666  1.00  0.00    -0.154 N
ATOM      3  H2  UNL     1      22.761  15.357  63.211  1.00  0.00     0.187 HD
HETATM    4  C2  UNL     1      24.432  16.462  62.728  1.00  0.00     0.289 A
HETATM    5  O1  UNL     1      24.136  17.437  63.429  1.00  0.00    -0.265 OA
HETATM    6  C3  UNL     1      25.584  16.440  61.983  1.00  0.00     0.141 A
HETATM    7  C4  UNL     1      25.871  15.301  61.201  1.00  0.00     0.149 A
HETATM    8  N3  UNL     1      25.043  14.246  61.172  1.00  0.00    -0.184 N
ATOM      9  H3  UNL     1      25.260  13.428  60.603  1.00  0.00     0.184 HD
HETATM   10  C5  UNL     1      27.013  15.234  60.439  1.00  0.00     0.279 A
HETATM   11  O2  UNL     1      27.272  14.219  59.740  1.00  0.00    -0.265 OA
HETATM   12  N4  UNL     1      27.853  16.306  60.468  1.00  0.00    -0.273 N
ATOM     13  H4  UNL     1      28.706  16.278  59.910  1.00  0.00     0.173 HD
HETATM   14  C6  UNL     1      27.602  17.379  61.193  1.00  0.00     0.330 A
HETATM   15  O3  UNL     1      28.372  18.364  61.221  1.00  0.00    -0.246 OA
HETATM   16  N5  UNL     1      26.462  17.458  61.959  1.00  0.00    -0.292 N
ENDROOT
BRANCH  16  17
HETATM   17  C7  UNL     1      26.270  18.673  62.717  1.00  0.00     0.134 C
BRANCH  17  18
HETATM   18  C8  UNL     1      27.030  18.681  64.024  1.00  0.00     0.022 C
BRANCH  18  19
HETATM   19  C9  UNL     1      26.928  20.032  64.714  1.00  0.00     0.036 C
BRANCH  19  20
HETATM   20  C10 UNL     1      27.834  21.052  64.100  1.00  0.00     0.208 C
BRANCH  20  21
HETATM   21  N6  UNL     1      27.906  22.170  65.054  1.00  0.00    -0.073 N
ATOM     22  H63 UNL     1      27.011  22.384  65.495  1.00  0.00     0.274 HD
ATOM     23  H62 UNL     1      28.415  21.941  65.909  1.00  0.00     0.274 HD
ATOM     24  H61 UNL     1      28.304  22.958  64.543  1.00  0.00     0.274 HD
ENDBRANCH  20  21
BRANCH  20  25
HETATM   25  C11 UNL     1      29.267  20.540  63.975  1.00  0.00     0.262 C
BRANCH  25  26
HETATM   26  N7  UNL     1      29.706  20.615  62.600  1.00  0.00    -0.077 N
ATOM     27  H73 UNL     1      29.084  21.192  62.033  1.00  0.00     0.274 HD
ATOM     28  H72 UNL     1      30.556  21.170  62.502  1.00  0.00     0.274 HD
ATOM     29  H71 UNL     1      29.815  19.677  62.214  1.00  0.00     0.274 HD
ENDBRANCH  25  26
ENDBRANCH  20  25
ENDBRANCH  19  20
ENDBRANCH  18  19
ENDBRANCH  17  18
ENDBRANCH  16  17
BRANCH   1  30
HETATM   30  N1  UNL     1      23.080  13.298  61.924  1.00  0.00    -0.234 N
ATOM     31  H12 UNL     1      22.164  13.386  62.362  1.00  0.00     0.174 HD
ATOM     32  H11 UNL     1      23.375  12.428  61.480  1.00  0.00     0.174 HD
ENDBRANCH   1  30
TORSDOF 8
ENDMDL