MODEL 4
REMARK VINA RESULT: -6.939987018      2.052      5.252
REMARK  7 active torsions:
REMARK  status: ('A' for Active; 'I' for Inactive)
REMARK    1  A    between atoms: N3_4  and  C2_6
REMARK    2  A    between atoms: C2_6  and  C3_7
REMARK    3  A    between atoms: C3_7  and  N4_8
REMARK    4  A    between atoms: N4_8  and  C4_10
REMARK    5  A    between atoms: C4_10  and  C5_11
REMARK    6  A    between atoms: C6_14  and  N6_15
REMARK    7  A    between atoms: N6_15  and  C7_17
ROOT
HETATM    1  C5  UNL     1      29.893  18.730  62.369  1.00  0.00     0.194 A
HETATM    2  N5  UNL     1      28.659  18.843  61.652  1.00  0.00    -0.347 N
ATOM      3  H5  UNL     1      28.229  19.733  61.398  1.00  0.00     0.163 HD
HETATM    4  C6  UNL     1      28.149  17.683  61.362  1.00  0.00     0.184 A
HETATM    5  N9  UNL     1      29.007  16.647  61.885  1.00  0.00    -0.297 N
ATOM      6  H9  UNL     1      28.856  15.641  61.806  1.00  0.00     0.172 HD
HETATM    7  C11 UNL     1      30.098  17.286  62.529  1.00  0.00     0.248 A
HETATM    8  O1  UNL     1      31.051  16.742  63.120  1.00  0.00    -0.271 OA
ENDROOT
BRANCH   1   9
HETATM    9  C4  UNL     1      29.747  19.413  63.708  1.00  0.00     0.153 C
BRANCH   9  10
HETATM   10  N4  UNL     1      29.063  20.663  63.555  1.00  0.00    -0.398 N
ATOM     11  H4  UNL     1      28.963  21.118  62.647  1.00  0.00     0.158 HD
BRANCH  10  12
HETATM   12  C3  UNL     1      28.538  21.226  64.735  1.00  0.00     0.075 C
BRANCH  12  13
HETATM   13  C2  UNL     1      27.071  21.463  64.800  1.00  0.00     0.166 C
BRANCH  13  14
HETATM   14  N3  UNL     1      26.448  20.169  64.986  1.00  0.00    -0.362 N
HETATM   15  C1  UNL     1      25.928  19.474  64.039  1.00  0.00     0.197 C
HETATM   16  N1  UNL     1      25.896  19.886  62.678  1.00  0.00    -0.067 NA
HETATM   17  N2  UNL     1      25.363  18.228  64.410  1.00  0.00    -0.067 NA
ATOM     18  H3  UNL     1      26.420  19.784  65.931  1.00  0.00     0.162 HD
ENDBRANCH  13  14
ENDBRANCH  12  13
ENDBRANCH  10  12
ENDBRANCH   9  10
ENDBRANCH   1   9
BRANCH   4  19
HETATM   19  N6  UNL     1      26.949  17.555  60.660  1.00  0.00    -0.313 N
ATOM     20  H6  UNL     1      26.794  18.234  59.914  1.00  0.00     0.170 HD
BRANCH  19  21
HETATM   21  C7  UNL     1      26.032  16.707  60.829  1.00  0.00     0.123 A
HETATM   22  C8  UNL     1      26.134  15.445  60.311  1.00  0.00     0.136 A
HETATM   23  N7  UNL     1      25.124  14.547  60.497  1.00  0.00    -0.371 N
HETATM   24  C9  UNL     1      24.004  14.857  61.183  1.00  0.00     0.104 A
ATOM     25  H7  UNL     1      25.218  13.611  60.103  1.00  0.00     0.164 HD
HETATM   26  C10 UNL     1      23.942  16.146  61.690  1.00  0.00     0.106 A
HETATM   27  N8  UNL     1      24.906  17.054  61.533  1.00  0.00    -0.350 N
ATOM     28  H8  UNL     1      24.808  17.989  61.928  1.00  0.00     0.166 HD
ENDBRANCH  19  21
ENDBRANCH   4  19
TORSDOF 7
ENDMDL