MODEL 2
REMARK VINA RESULT: -8.092780595      2.194      2.210
REMARK  4 active torsions:
REMARK  status: ('A' for Active; 'I' for Inactive)
REMARK    1  A    between atoms: C1_2  and  C2_4
REMARK    2  A    between atoms: C4_11  and  C5_12
REMARK    3  A    between atoms: C5_12  and  C6_13
REMARK    4  A    between atoms: N4_14  and  C7_16
ROOT
HETATM    1  C6  UNL     1      26.974  17.441  59.672  1.00  0.00     0.069 C
HETATM    2  N4  UNL     1      25.860  16.668  59.804  1.00  0.00    -0.350 N
ATOM      3  H4  UNL     1      25.262  16.851  58.997  1.00  0.00     0.166 HD
ENDROOT
BRANCH   1   4
HETATM    4  C5  UNL     1      27.956  17.522  60.837  1.00  0.00     0.104 C
BRANCH   4   5
HETATM    5  C4  UNL     1      27.317  18.132  62.026  1.00  0.00     0.050 A
HETATM    6  C2  UNL     1      27.163  17.594  63.275  1.00  0.00     0.125 A
HETATM    7  N2  UNL     1      26.468  18.500  64.013  1.00  0.00    -0.303 N
HETATM    8  C3  UNL     1      26.196  19.571  63.264  1.00  0.00     0.325 A
ATOM      9  H2  UNL     1      26.197  18.380  64.989  1.00  0.00     0.171 HD
HETATM   10  O2  UNL     1      25.574  20.628  63.571  1.00  0.00    -0.247 OA
HETATM   11  N3  UNL     1      26.712  19.350  62.054  1.00  0.00    -0.310 N
ATOM     12  H3  UNL     1      26.660  19.997  61.268  1.00  0.00     0.170 HD
BRANCH   6  13
HETATM   13  C1  UNL     1      27.625  16.330  63.798  1.00  0.00     0.283 C
HETATM   14  N1  UNL     1      27.120  15.115  63.327  1.00  0.00    -0.056 NA
HETATM   15  O1  UNL     1      28.507  16.326  64.697  1.00  0.00    -0.269 OA
ENDBRANCH   6  13
ENDBRANCH   4   5
ENDBRANCH   1   4
BRANCH   2  16
HETATM   16  C7  UNL     1      25.279  15.827  60.517  1.00  0.00     0.189 A
HETATM   17  N5  UNL     1      25.480  14.500  60.579  1.00  0.00    -0.277 N
HETATM   18  N6  UNL     1      24.786  13.693  61.394  1.00  0.00    -0.250 N
ATOM     19  H5  UNL     1      26.192  14.087  59.977  1.00  0.00     0.189 HD
HETATM   20  C8  UNL     1      23.835  14.157  62.214  1.00  0.00     0.341 A
ATOM     21  H6  UNL     1      24.990  12.693  61.390  1.00  0.00     0.192 HD
HETATM   22  O3  UNL     1      23.190  13.381  62.978  1.00  0.00    -0.245 OA
HETATM   23  N7  UNL     1      23.592  15.477  62.196  1.00  0.00    -0.271 N
HETATM   24  C9  UNL     1      24.269  16.299  61.392  1.00  0.00     0.294 A
ATOM     25  H7  UNL     1      22.872  15.859  62.809  1.00  0.00     0.174 HD
HETATM   26  O4  UNL     1      24.031  17.530  61.385  1.00  0.00    -0.264 OA
ENDBRANCH   2  16
TORSDOF 4
ENDMDL