MODEL 3
REMARK VINA RESULT: -6.594105282      1.978      5.375
REMARK  8 active torsions:
REMARK  status: ('A' for Active; 'I' for Inactive)
REMARK       I    between atoms: C1_2  and  N2_4
REMARK    1  A    between atoms: N2_4  and  C2_6
REMARK    2  A    between atoms: C3_9  and  N4_10
REMARK    3  A    between atoms: N4_10  and  C4_12
REMARK    4  A    between atoms: C4_12  and  C5_13
REMARK    5  A    between atoms: C5_13  and  O2_14
REMARK    6  A    between atoms: O2_14  and  C6_15
REMARK    7  A    between atoms: C6_15  and  C7_16
REMARK    8  A    between atoms: C7_16  and  O3_17
ROOT
HETATM    1  C2  UNL     1      25.962  18.905  64.075  1.00  0.00     0.155 A
HETATM    2  N3  UNL     1      26.006  18.198  62.934  1.00  0.00    -0.174 N
ATOM      3  H3  UNL     1      25.319  17.462  62.773  1.00  0.00     0.186 HD
HETATM    4  C3  UNL     1      26.952  18.450  61.988  1.00  0.00     0.681 A
HETATM    5  N5  UNL     1      27.849  19.413  62.197  1.00  0.00    -0.174 N
ATOM      6  H5  UNL     1      28.555  19.595  61.484  1.00  0.00     0.186 HD
HETATM    7  C8  UNL     1      27.852  20.152  63.320  1.00  0.00     0.155 A
HETATM    8  N6  UNL     1      28.626  21.155  63.763  1.00  0.00    -0.292 N
ATOM      9  H6  UNL     1      29.418  21.552  63.258  1.00  0.00     0.172 HD
HETATM   10  C9  UNL     1      28.199  21.560  64.982  1.00  0.00     0.326 A
HETATM   11  O4  UNL     1      28.715  22.486  65.669  1.00  0.00    -0.247 OA
HETATM   12  N7  UNL     1      27.144  20.778  65.272  1.00  0.00    -0.302 N
ATOM     13  H7  UNL     1      26.600  20.842  66.133  1.00  0.00     0.171 HD
HETATM   14  C10 UNL     1      26.899  19.908  64.288  1.00  0.00     0.126 A
ENDROOT
BRANCH   4  15
HETATM   15  N4  UNL     1      26.916  17.731  60.942  1.00  0.00    -0.224 N
ATOM     16  H4  UNL     1      26.335  18.036  60.160  1.00  0.00     0.177 HD
BRANCH  15  17
HETATM   17  C4  UNL     1      27.680  16.473  60.807  1.00  0.00     0.164 C
BRANCH  17  18
HETATM   18  C5  UNL     1      26.713  15.328  60.732  1.00  0.00     0.188 C
BRANCH  18  19
HETATM   19  O2  UNL     1      25.974  15.148  61.805  1.00  0.00    -0.387 OA
BRANCH  19  20
HETATM   20  C6  UNL     1      24.674  15.128  61.972  1.00  0.00     0.193 C
BRANCH  20  21
HETATM   21  C7  UNL     1      23.741  15.886  61.099  1.00  0.00     0.190 C
BRANCH  21  22
HETATM   22  O3  UNL     1      23.741  17.265  61.313  1.00  0.00    -0.399 OA
ATOM     23  H3  UNL     1      23.720  17.522  62.228  1.00  0.00     0.209 HD
ENDBRANCH  21  22
ENDBRANCH  20  21
ENDBRANCH  19  20
ENDBRANCH  18  19
ENDBRANCH  17  18
ENDBRANCH  15  17
ENDBRANCH   4  15
BRANCH   1  24
HETATM   24  N2  UNL     1      25.090  18.705  64.995  1.00  0.00    -0.295 N
HETATM   25  C1  UNL     1      23.707  18.794  64.706  1.00  0.00     0.334 C
HETATM   26  N1  UNL     1      22.950  19.913  65.127  1.00  0.00    -0.040 NA
HETATM   27  O1  UNL     1      23.126  17.883  64.072  1.00  0.00    -0.251 OA
ATOM     28  H2  UNL     1      25.396  18.480  65.942  1.00  0.00     0.172 HD
ENDBRANCH   1  24
TORSDOF 8
ENDMDL