MODEL 3
REMARK VINA RESULT: -6.611715688      2.576      5.589
REMARK  6 active torsions:
REMARK  status: ('A' for Active; 'I' for Inactive)
REMARK    1  A    between atoms: N3_4  and  C2_6
REMARK    2  A    between atoms: C2_6  and  C3_7
REMARK    3  A    between atoms: C3_7  and  C4_8
REMARK    4  A    between atoms: C4_8  and  C5_9
REMARK    5  A    between atoms: N7_23  and  C12_24
REMARK    6  A    between atoms: C12_24  and  O2_25
ROOT
HETATM    1  C5  UNL     1      27.200  19.293  64.418  1.00  0.00     0.175 C
HETATM    2  C6  UNL     1      26.322  19.714  63.265  1.00  0.00     0.240 C
HETATM    3  O1  UNL     1      25.576  20.727  63.333  1.00  0.00    -0.271 OA
HETATM    4  N4  UNL     1      26.290  18.992  62.041  1.00  0.00    -0.355 N
ATOM      5  H4  UNL     1      26.167  19.518  61.175  1.00  0.00     0.162 HD
HETATM    6  C7  UNL     1      26.424  17.551  61.953  1.00  0.00     0.166 C
HETATM    7  C8  UNL     1      27.715  17.137  61.273  1.00  0.00     0.075 C
HETATM    8  N5  UNL     1      28.508  16.433  62.199  1.00  0.00    -0.399 N
ATOM      9  H5  UNL     1      28.092  15.791  62.874  1.00  0.00     0.158 HD
HETATM   10  C9  UNL     1      29.910  16.650  62.159  1.00  0.00     0.138 C
HETATM   11  C10 UNL     1      30.388  18.030  62.359  1.00  0.00     0.135 C
HETATM   12  N6  UNL     1      30.619  18.436  63.703  1.00  0.00    -0.405 N
ATOM     13  H6  UNL     1      31.550  18.690  64.035  1.00  0.00     0.154 HD
HETATM   14  C11 UNL     1      29.480  18.469  64.561  1.00  0.00     0.238 C
HETATM   15  N7  UNL     1      28.570  19.481  64.154  1.00  0.00    -0.364 N
ENDROOT
BRANCH   1  16
HETATM   16  C4  UNL     1      26.642  19.925  65.637  1.00  0.00     0.036 C
BRANCH  16  17
HETATM   17  C3  UNL     1      26.380  19.029  66.788  1.00  0.00     0.022 C
BRANCH  17  18
HETATM   18  C2  UNL     1      24.855  18.883  66.906  1.00  0.00     0.122 C
BRANCH  18  19
HETATM   19  N3  UNL     1      24.352  18.110  65.786  1.00  0.00    -0.367 N
HETATM   20  C1  UNL     1      23.454  18.546  64.976  1.00  0.00     0.196 C
HETATM   21  N1  UNL     1      22.891  19.845  65.140  1.00  0.00    -0.067 NA
HETATM   22  N2  UNL     1      23.038  17.709  63.920  1.00  0.00    -0.067 NA
ATOM     23  H3  UNL     1      24.730  17.175  65.633  1.00  0.00     0.161 HD
ENDBRANCH  18  19
ENDBRANCH  17  18
ENDBRANCH  16  17
ENDBRANCH   1  16
BRANCH  15  24
HETATM   24  C12 UNL     1      29.045  20.813  64.139  1.00  0.00     0.287 C
BRANCH  24  25
HETATM   25  O2  UNL     1      29.231  21.196  62.789  1.00  0.00    -0.382 OA
ATOM     26  H2  UNL     1      29.423  22.127  62.772  1.00  0.00     0.211 HD
ENDBRANCH  24  25
ENDBRANCH  15  24
TORSDOF 6
ENDMDL