MODEL 2
REMARK VINA RESULT: -6.710691153      2.308      3.051
REMARK  8 active torsions:
REMARK  status: ('A' for Active; 'I' for Inactive)
REMARK    1  A    between atoms: N1_1  and  C1_5
REMARK    2  A    between atoms: C1_5  and  C2_6
REMARK    3  A    between atoms: C1_5  and  N6_22
REMARK    4  A    between atoms: C2_6  and  C3_7
REMARK    5  A    between atoms: C3_7  and  C4_8
REMARK    6  A    between atoms: C4_8  and  N2_9
REMARK    7  A    between atoms: N2_9  and  C5_11
REMARK    8  A    between atoms: N6_22  and  C8_24
ROOT
HETATM    1  C3  UNL     1      27.885  15.853  62.180  1.00  0.00     0.024 C
ENDROOT
BRANCH   1   2
HETATM    2  C2  UNL     1      27.492  16.374  60.813  1.00  0.00     0.055 C
BRANCH   2   3
HETATM    3  C1  UNL     1      26.218  15.633  60.338  1.00  0.00     0.278 C
BRANCH   3   4
HETATM    4  N1  UNL     1      26.569  14.944  59.140  1.00  0.00    -0.059 N
ATOM      5  H13 UNL     1      26.298  15.443  58.293  1.00  0.00     0.276 HD
ATOM      6  H12 UNL     1      27.573  14.929  58.963  1.00  0.00     0.276 HD
ATOM      7  H11 UNL     1      26.158  14.013  59.207  1.00  0.00     0.276 HD
ENDBRANCH   3   4
BRANCH   3   8
HETATM    8  N6  UNL     1      25.129  16.527  60.230  1.00  0.00    -0.382 N
ATOM      9  H6  UNL     1      25.168  17.362  59.645  1.00  0.00     0.156 HD
BRANCH   8  10
HETATM   10  C8  UNL     1      23.985  16.190  60.983  1.00  0.00     0.189 A
HETATM   11  C9  UNL     1      23.823  14.758  61.337  1.00  0.00     0.157 A
HETATM   12  N7  UNL     1      23.879  15.208  62.738  1.00  0.00    -0.357 N
HETATM   13  C10 UNL     1      23.981  16.586  62.413  1.00  0.00     0.241 A
ATOM     14  H7  UNL     1      23.853  14.707  63.626  1.00  0.00     0.162 HD
HETATM   15  O3  UNL     1      24.046  17.718  62.972  1.00  0.00    -0.271 OA
ENDBRANCH   8  10
ENDBRANCH   3   8
ENDBRANCH   2   3
ENDBRANCH   1   2
BRANCH   1  16
HETATM   16  C4  UNL     1      27.506  16.862  63.239  1.00  0.00     0.138 C
BRANCH  16  17
HETATM   17  N2  UNL     1      27.296  18.167  62.654  1.00  0.00    -0.226 N
ATOM     18  H2  UNL     1      27.259  18.215  61.636  1.00  0.00     0.177 HD
BRANCH  17  19
HETATM   19  C5  UNL     1      27.152  19.265  63.290  1.00  0.00     0.686 A
HETATM   20  N3  UNL     1      25.919  19.734  63.524  1.00  0.00    -0.141 N
HETATM   21  C6  UNL     1      25.687  20.890  64.189  1.00  0.00     0.342 A
ATOM     22  H3  UNL     1      25.121  19.197  63.186  1.00  0.00     0.189 HD
HETATM   23  O1  UNL     1      24.521  21.319  64.401  1.00  0.00    -0.246 OA
HETATM   24  N4  UNL     1      26.733  21.604  64.640  1.00  0.00    -0.260 N
HETATM   25  C7  UNL     1      27.982  21.156  64.418  1.00  0.00     0.342 A
ATOM     26  H4  UNL     1      26.581  22.477  65.146  1.00  0.00     0.175 HD
HETATM   27  O2  UNL     1      28.934  21.860  64.859  1.00  0.00    -0.246 OA
HETATM   28  N5  UNL     1      28.183  19.987  63.744  1.00  0.00    -0.141 N
ATOM     29  H5  UNL     1      29.135  19.658  63.584  1.00  0.00     0.189 HD
ENDBRANCH  17  19
ENDBRANCH  16  17
ENDBRANCH   1  16
TORSDOF 8
ENDMDL