MODEL 2
REMARK VINA RESULT: -7.085504363      1.072      1.507
REMARK  5 active torsions:
REMARK  status: ('A' for Active; 'I' for Inactive)
REMARK       I    between atoms: C1_4  and  N3_6
REMARK       I    between atoms: N3_6  and  C2_8
REMARK       I    between atoms: C2_8  and  N7_22
REMARK       I    between atoms: N4_9  and  C3_11
REMARK    1  A    between atoms: C3_11  and  C4_13
REMARK    2  A    between atoms: C4_13  and  N5_14
REMARK    3  A    between atoms: N7_22  and  N8_24
REMARK    4  A    between atoms: C9_26  and  C10_27
REMARK    5  A    between atoms: C10_27  and  N9_28
ROOT
HETATM    1  N1  UNL     1      24.216  17.864  67.459  1.00  0.00    -0.373 N
ATOM      2  H11 UNL     1      24.311  16.851  67.386  1.00  0.00     0.158 HD
ATOM      3  H12 UNL     1      24.493  18.281  68.349  1.00  0.00     0.158 HD
HETATM    4  C1  UNL     1      23.777  18.628  66.527  1.00  0.00     0.200 C
HETATM    5  N2  UNL     1      23.645  20.036  66.628  1.00  0.00    -0.063 NA
HETATM    6  N3  UNL     1      23.383  18.036  65.263  1.00  0.00    -0.162 N
ATOM      7  H3  UNL     1      22.487  17.555  65.185  1.00  0.00     0.187 HD
HETATM    8  C2  UNL     1      24.233  18.122  64.141  1.00  0.00     0.702 C
HETATM    9  N4  UNL     1      25.262  18.862  64.210  1.00  0.00    -0.153 N
ATOM     10  H4  UNL     1      25.400  19.350  65.095  1.00  0.00     0.187 HD
HETATM   11  C3  UNL     1      26.236  19.095  63.224  1.00  0.00     0.275 C
HETATM   12  O1  UNL     1      26.030  20.080  62.465  1.00  0.00    -0.266 OA
HETATM   13  N7  UNL     1      23.962  17.425  62.953  1.00  0.00    -0.132 N
ATOM     14  H7  UNL     1      23.826  17.987  62.113  1.00  0.00     0.205 HD
ENDROOT
BRANCH  13  15
HETATM   15  N8  UNL     1      23.863  16.059  62.807  1.00  0.00    -0.300 N
HETATM   16  C9  UNL     1      23.926  15.347  61.780  1.00  0.00     0.107 C
ATOM     17  H8  UNL     1      23.714  15.546  63.676  1.00  0.00     0.186 HD
BRANCH  16  18
HETATM   18  C10 UNL     1      23.780  13.851  61.930  1.00  0.00     0.275 C
BRANCH  18  19
HETATM   19  N9  UNL     1      22.989  13.627  63.124  1.00  0.00    -0.075 N
ATOM     20  H93 UNL     1      22.016  13.918  63.023  1.00  0.00     0.274 HD
ATOM     21  H92 UNL     1      22.808  12.640  63.309  1.00  0.00     0.274 HD
ATOM     22  H91 UNL     1      23.472  14.098  63.889  1.00  0.00     0.274 HD
ENDBRANCH  18  19
ENDBRANCH  16  18
ENDBRANCH  13  15
BRANCH  11  23
HETATM   23  C4  UNL     1      27.449  18.272  63.040  1.00  0.00     0.165 C
BRANCH  23  24
HETATM   24  N5  UNL     1      27.190  17.109  62.303  1.00  0.00    -0.362 N
HETATM   25  C5  UNL     1      27.305  15.848  62.884  1.00  0.00     0.091 C
HETATM   26  C6  UNL     1      27.415  14.704  61.898  1.00  0.00     0.277 C
HETATM   27  N6  UNL     1      28.073  15.195  60.719  1.00  0.00    -0.069 N
HETATM   28  C7  UNL     1      27.216  16.151  60.044  1.00  0.00     0.252 C
ATOM     29  H62 UNL     1      28.994  15.583  60.926  1.00  0.00     0.277 HD
ATOM     30  H61 UNL     1      28.368  14.439  60.101  1.00  0.00     0.277 HD
HETATM   31  C8  UNL     1      26.719  17.224  60.973  1.00  0.00     0.155 C
ENDBRANCH  23  24
ENDBRANCH  11  23
TORSDOF 5
ENDMDL