MODEL 3
REMARK VINA RESULT: -6.933437464      2.470      6.469
REMARK  10 active torsions:
REMARK  status: ('A' for Active; 'I' for Inactive)
REMARK    1  A    between atoms: N2_7  and  N3_8
REMARK    2  A    between atoms: N3_8  and  C4_10
REMARK    3  A    between atoms: C5_13  and  N5_14
REMARK    4  A    between atoms: N5_14  and  C6_16
REMARK    5  A    between atoms: C6_16  and  C7_17
REMARK    6  A    between atoms: C7_17  and  O2_18
REMARK    7  A    between atoms: C8_22  and  N7_23
REMARK    8  A    between atoms: N7_23  and  C9_25
REMARK    9  A    between atoms: C9_25  and  C10_26
REMARK   10  A    between atoms: C10_26  and  O3_27
ROOT
HETATM    1  C4  UNL     1      26.291  17.183  61.043  1.00  0.00     0.726 A
HETATM    2  N4  UNL     1      27.606  17.436  60.922  1.00  0.00    -0.020 N
ATOM      3  H4  UNL     1      28.153  16.934  60.223  1.00  0.00     0.203 HD
HETATM    4  C5  UNL     1      28.206  18.340  61.709  1.00  0.00     0.707 A
HETATM    5  N6  UNL     1      27.466  18.995  62.626  1.00  0.00    -0.022 N
ATOM      6  H6  UNL     1      27.922  19.684  63.224  1.00  0.00     0.203 HD
HETATM    7  C8  UNL     1      26.151  18.774  62.781  1.00  0.00     0.707 A
HETATM    8  N8  UNL     1      25.582  17.860  61.976  1.00  0.00    -0.020 N
ATOM      9  H8  UNL     1      24.584  17.672  62.071  1.00  0.00     0.203 HD
ENDROOT
BRANCH   1  10
HETATM   10  N3  UNL     1      25.711  16.313  60.287  1.00  0.00    -0.125 N
ATOM     11  H3  UNL     1      25.635  16.482  59.284  1.00  0.00     0.206 HD
BRANCH  10  12
HETATM   12  N2  UNL     1      25.189  15.153  60.831  1.00  0.00    -0.227 N
HETATM   13  C1  UNL     1      25.923  14.022  61.347  1.00  0.00     0.337 C
HETATM   14  O1  UNL     1      27.131  13.748  61.117  1.00  0.00    -0.245 OA
HETATM   15  N1  UNL     1      25.056  13.252  62.170  1.00  0.00    -0.340 N
HETATM   16  C2  UNL     1      23.862  14.053  62.353  1.00  0.00     0.146 C
ATOM     17  H1  UNL     1      25.239  12.325  62.555  1.00  0.00     0.164 HD
HETATM   18  C3  UNL     1      23.795  14.791  61.016  1.00  0.00     0.174 C
ENDBRANCH  10  12
ENDBRANCH   1  10
BRANCH   4  19
HETATM   19  N5  UNL     1      29.461  18.615  61.630  1.00  0.00    -0.223 N
ATOM     20  H5  UNL     1      29.860  19.028  60.787  1.00  0.00     0.177 HD
BRANCH  19  21
HETATM   21  C6  UNL     1      30.285  18.315  62.782  1.00  0.00     0.164 C
BRANCH  21  22
HETATM   22  C7  UNL     1      31.054  17.033  62.452  1.00  0.00     0.184 C
BRANCH  22  23
HETATM   23  O2  UNL     1      32.222  17.385  61.778  1.00  0.00    -0.399 OA
ATOM     24  H2  UNL     1      32.036  17.403  60.846  1.00  0.00     0.209 HD
ENDBRANCH  22  23
ENDBRANCH  21  22
ENDBRANCH  19  21
ENDBRANCH   4  19
BRANCH   7  25
HETATM   25  N7  UNL     1      25.433  19.370  63.630  1.00  0.00    -0.223 N
ATOM     26  H7  UNL     1      24.428  19.334  63.460  1.00  0.00     0.177 HD
BRANCH  25  27
HETATM   27  C9  UNL     1      25.836  20.089  64.796  1.00  0.00     0.164 C
BRANCH  27  28
HETATM   28  C10 UNL     1      25.799  21.595  64.592  1.00  0.00     0.184 C
BRANCH  28  29
HETATM   29  O3  UNL     1      24.802  21.960  63.696  1.00  0.00    -0.399 OA
ATOM     30  H3  UNL     1      23.987  22.152  64.144  1.00  0.00     0.209 HD
ENDBRANCH  28  29
ENDBRANCH  27  28
ENDBRANCH  25  27
ENDBRANCH   7  25
TORSDOF 10
ENDMDL