MODEL 2
REMARK VINA RESULT: -5.528511325      3.047      5.310
REMARK  12 active torsions:
REMARK  status: ('A' for Active; 'I' for Inactive)
REMARK    1  A    between atoms: C4_4  and  C5_5
REMARK    2  A    between atoms: C5_5  and  N1_6
REMARK    3  A    between atoms: C6_10  and  N2_11
REMARK    4  A    between atoms: C7_15  and  O1_16
REMARK    5  A    between atoms: C8_18  and  O2_19
REMARK    6  A    between atoms: N3_22  and  C10_23
REMARK    7  A    between atoms: N3_22  and  C12_29
REMARK    8  A    between atoms: C10_23  and  C11_24
REMARK    9  A    between atoms: C11_24  and  N4_25
REMARK   10  A    between atoms: C12_29  and  C13_30
REMARK   11  A    between atoms: C13_30  and  C14_31
REMARK   12  A    between atoms: C14_31  and  N5_32
ROOT
HETATM    1  C1  UNL     1      23.365  13.672  61.878  1.00  0.00     0.027 C
HETATM    2  C2  UNL     1      24.153  14.523  62.213  1.00  0.00    -0.026 C
HETATM    3  C3  UNL     1      25.065  15.525  62.618  1.00  0.00    -0.011 C
HETATM    4  C4  UNL     1      25.855  16.390  62.989  1.00  0.00    -0.021 C
ENDROOT
BRANCH   4   5
HETATM    5  C5  UNL     1      26.817  17.399  63.463  1.00  0.00     0.381 C
HETATM    6  C6  UNL     1      26.072  18.657  63.855  1.00  0.00     0.292 C
HETATM    7  C7  UNL     1      27.095  19.534  64.574  1.00  0.00     0.184 C
HETATM    8  C8  UNL     1      28.272  19.805  63.649  1.00  0.00     0.175 C
HETATM    9  C9  UNL     1      28.109  19.062  62.343  1.00  0.00     0.276 C
HETATM   10  N3  UNL     1      27.898  17.630  62.529  1.00  0.00    -0.015 N
BRANCH   5  11
HETATM   11  N1  UNL     1      27.319  16.892  64.757  1.00  0.00    -0.031 N
ATOM     12  H13 UNL     1      27.124  15.903  64.913  1.00  0.00     0.278 HD
ATOM     13  H12 UNL     1      28.335  16.825  64.804  1.00  0.00     0.278 HD
ATOM     14  H11 UNL     1      26.917  17.506  65.466  1.00  0.00     0.278 HD
ENDBRANCH   5  11
BRANCH   6  15
HETATM   15  N2  UNL     1      25.053  18.259  64.801  1.00  0.00    -0.067 N
ATOM     16  H23 UNL     1      24.843  17.261  64.771  1.00  0.00     0.275 HD
ATOM     17  H22 UNL     1      25.368  18.295  65.771  1.00  0.00     0.275 HD
ATOM     18  H21 UNL     1      24.239  18.847  64.620  1.00  0.00     0.275 HD
ENDBRANCH   6  15
BRANCH   7  19
HETATM   19  O1  UNL     1      26.541  20.684  65.104  1.00  0.00    -0.391 OA
ATOM     20  H1  UNL     1      26.883  21.477  64.707  1.00  0.00     0.210 HD
ENDBRANCH   7  19
BRANCH   8  21
HETATM   21  O2  UNL     1      28.243  21.165  63.346  1.00  0.00    -0.391 OA
ATOM     22  H2  UNL     1      27.392  21.490  63.617  1.00  0.00     0.210 HD
ENDBRANCH   8  21
BRANCH  10  23
HETATM   23  C10 UNL     1      27.833  16.928  61.302  1.00  0.00     0.269 C
BRANCH  23  24
HETATM   24  C11 UNL     1      27.343  17.635  60.084  1.00  0.00     0.257 C
BRANCH  24  25
HETATM   25  N4  UNL     1      26.285  16.968  59.363  1.00  0.00    -0.078 N
ATOM     26  H43 UNL     1      26.388  17.132  58.361  1.00  0.00     0.274 HD
ATOM     27  H42 UNL     1      26.422  15.958  59.395  1.00  0.00     0.274 HD
ATOM     28  H41 UNL     1      25.337  17.202  59.659  1.00  0.00     0.274 HD
ENDBRANCH  24  25
ENDBRANCH  23  24
ENDBRANCH  10  23
BRANCH  10  29
HETATM   29  C12 UNL     1      29.086  17.178  63.236  1.00  0.00     0.243 C
BRANCH  29  30
HETATM   30  C13 UNL     1      30.081  16.377  62.508  1.00  0.00     0.055 C
BRANCH  30  31
HETATM   31  C14 UNL     1      31.363  17.251  62.499  1.00  0.00     0.231 C
BRANCH  31  32
HETATM   32  N5  UNL     1      31.726  17.561  63.847  1.00  0.00    -0.079 N
ATOM     33  H53 UNL     1      31.541  16.788  64.487  1.00  0.00     0.274 HD
ATOM     34  H52 UNL     1      32.737  17.613  63.975  1.00  0.00     0.274 HD
ATOM     35  H51 UNL     1      31.254  18.419  64.130  1.00  0.00     0.274 HD
ENDBRANCH  31  32
ENDBRANCH  30  31
ENDBRANCH  29  30
ENDBRANCH  10  29
ENDBRANCH   4   5
TORSDOF 12
ENDMDL