MODEL 5
REMARK VINA RESULT: -6.259639745      2.756      5.322
REMARK  9 active torsions:
REMARK  status: ('A' for Active; 'I' for Inactive)
REMARK    1  A    between atoms: N1_1  and  C1_5
REMARK    2  A    between atoms: C1_5  and  C2_6
REMARK    3  A    between atoms: C2_6  and  C3_7
REMARK    4  A    between atoms: C3_7  and  C4_8
REMARK    5  A    between atoms: C4_8  and  N2_9
REMARK    6  A    between atoms: C4_8  and  C5_13
REMARK    7  A    between atoms: C5_13  and  N3_14
REMARK    8  A    between atoms: C5_13  and  N4_18
REMARK    9  A    between atoms: C5_13  and  N5_22
ROOT
HETATM    1  C5  UNL     1      26.665  17.942  61.764  1.00  0.00     0.388 C
ENDROOT
BRANCH   1   2
HETATM    2  C4  UNL     1      26.107  16.623  61.264  1.00  0.00     0.269 C
BRANCH   2   3
HETATM    3  C3  UNL     1      24.632  16.625  61.672  1.00  0.00     0.041 C
BRANCH   3   4
HETATM    4  C2  UNL     1      23.914  15.393  61.185  1.00  0.00     0.029 C
BRANCH   4   5
HETATM    5  C1  UNL     1      24.385  14.253  62.083  1.00  0.00     0.229 C
BRANCH   5   6
HETATM    6  N1  UNL     1      23.334  13.768  62.945  1.00  0.00    -0.079 N
ATOM      7  H13 UNL     1      23.717  13.294  63.763  1.00  0.00     0.274 HD
ATOM      8  H12 UNL     1      22.856  14.539  63.414  1.00  0.00     0.274 HD
ATOM      9  H11 UNL     1      22.673  13.171  62.449  1.00  0.00     0.274 HD
ENDBRANCH   5   6
ENDBRANCH   4   5
ENDBRANCH   3   4
ENDBRANCH   2   3
BRANCH   2  10
HETATM   10  N2  UNL     1      26.156  16.490  59.840  1.00  0.00    -0.069 N
ATOM     11  H23 UNL     1      26.457  15.564  59.537  1.00  0.00     0.275 HD
ATOM     12  H22 UNL     1      25.232  16.478  59.409  1.00  0.00     0.275 HD
ATOM     13  H21 UNL     1      26.752  17.237  59.484  1.00  0.00     0.275 HD
ENDBRANCH   2  10
ENDBRANCH   1   2
BRANCH   1  14
HETATM   14  N3  UNL     1      27.219  18.605  60.583  1.00  0.00    -0.024 N
ATOM     15  H33 UNL     1      27.636  17.963  59.909  1.00  0.00     0.279 HD
ATOM     16  H32 UNL     1      26.510  18.991  59.959  1.00  0.00     0.279 HD
ATOM     17  H31 UNL     1      27.871  19.302  60.943  1.00  0.00     0.279 HD
ENDBRANCH   1  14
BRANCH   1  18
HETATM   18  N4  UNL     1      25.595  18.810  62.235  1.00  0.00    -0.024 N
ATOM     19  H43 UNL     1      24.959  19.069  61.480  1.00  0.00     0.279 HD
ATOM     20  H42 UNL     1      24.934  18.308  62.827  1.00  0.00     0.279 HD
ATOM     21  H41 UNL     1      25.976  19.631  62.706  1.00  0.00     0.279 HD
ENDBRANCH   1  18
BRANCH   1  22
HETATM   22  N5  UNL     1      27.624  17.830  62.796  1.00  0.00    -0.320 N
HETATM   23  C6  UNL     1      27.775  18.871  63.713  1.00  0.00     0.164 C
HETATM   24  C7  UNL     1      28.990  19.713  63.575  1.00  0.00     0.256 C
HETATM   25  O1  UNL     1      29.135  20.600  64.468  1.00  0.00    -0.267 OA
HETATM   26  N6  UNL     1      29.961  19.593  62.553  1.00  0.00    -0.355 N
HETATM   27  C8  UNL     1      30.549  18.331  62.142  1.00  0.00     0.142 C
ATOM     28  H6  UNL     1      30.265  20.442  62.077  1.00  0.00     0.162 HD
HETATM   29  C9  UNL     1      31.240  17.630  63.252  1.00  0.00     0.142 C
HETATM   30  N7  UNL     1      30.514  16.594  63.923  1.00  0.00    -0.358 N
HETATM   31  C10 UNL     1      29.127  16.481  64.132  1.00  0.00     0.235 C
ATOM     32  H7  UNL     1      31.079  15.835  64.301  1.00  0.00     0.162 HD
HETATM   33  O2  UNL     1      28.725  16.312  65.342  1.00  0.00    -0.272 OA
HETATM   34  C11 UNL     1      28.059  16.530  63.126  1.00  0.00     0.229 C
ENDBRANCH   1  22
TORSDOF 9
ENDMDL