MODEL 1
REMARK VINA RESULT: -6.625251505      0.000      0.000
REMARK  9 active torsions:
REMARK  status: ('A' for Active; 'I' for Inactive)
REMARK    1  A    between atoms: N1_1  and  C1_4
REMARK    2  A    between atoms: C4_11  and  C5_12
REMARK    3  A    between atoms: C5_12  and  O1_13
REMARK    4  A    between atoms: N4_17  and  C8_18
REMARK    5  A    between atoms: C8_18  and  C9_19
REMARK    6  A    between atoms: C9_19  and  C10_20
REMARK       I    between atoms: C10_20  and  N5_22
REMARK    7  A    between atoms: N5_22  and  C11_24
REMARK    8  A    between atoms: C11_24  and  C12_25
REMARK    9  A    between atoms: C12_25  and  N6_26
ROOT
HETATM    1  C5  UNL     1      27.162  16.254  62.300  1.00  0.00     0.176 C
HETATM    2  C6  UNL     1      28.464  15.517  62.026  1.00  0.00     0.079 C
HETATM    3  C7  UNL     1      29.412  16.696  62.183  1.00  0.00     0.114 C
HETATM    4  N4  UNL     1      28.777  17.537  63.128  1.00  0.00    -0.231 NA
HETATM    5  N7  UNL     1      27.534  17.031  63.442  1.00  0.00    -0.121 NA
ENDROOT
BRANCH   1   6
HETATM    6  C4  UNL     1      25.971  15.470  62.340  1.00  0.00     0.053 A
HETATM    7  C1  UNL     1      24.686  15.963  62.568  1.00  0.00     0.111 A
HETATM    8  N2  UNL     1      23.614  15.162  62.590  1.00  0.00    -0.338 N
HETATM    9  C2  UNL     1      23.732  13.852  62.395  1.00  0.00     0.181 A
ATOM     10  H2  UNL     1      22.691  15.563  62.760  1.00  0.00     0.168 HD
HETATM   11  N3  UNL     1      24.925  13.325  62.174  1.00  0.00    -0.361 N
HETATM   12  C3  UNL     1      26.018  14.098  62.144  1.00  0.00     0.104 A
ATOM     13  H3  UNL     1      25.013  12.320  62.025  1.00  0.00     0.166 HD
BRANCH   7  14
HETATM   14  N1  UNL     1      24.533  17.202  62.757  1.00  0.00    -0.385 N
ATOM     15  H12 UNL     1      24.034  17.515  63.590  1.00  0.00     0.157 HD
ATOM     16  H11 UNL     1      24.911  17.861  62.076  1.00  0.00     0.157 HD
ENDBRANCH   7  14
ENDBRANCH   1   6
BRANCH   1  17
HETATM   17  O1  UNL     1      27.074  17.197  61.244  1.00  0.00    -0.368 OA
ATOM     18  H1  UNL     1      27.591  17.965  61.460  1.00  0.00     0.212 HD
ENDBRANCH   1  17
BRANCH   4  19
HETATM   19  C8  UNL     1      29.560  18.025  64.207  1.00  0.00     0.119 C
BRANCH  19  20
HETATM   20  C9  UNL     1      29.886  19.497  64.075  1.00  0.00     0.118 C
BRANCH  20  21
HETATM   21  C10 UNL     1      28.673  20.315  63.879  1.00  0.00     0.218 C
HETATM   22  O2  UNL     1      28.705  21.263  63.071  1.00  0.00    -0.274 OA
HETATM   23  N5  UNL     1      27.504  20.027  64.593  1.00  0.00    -0.359 N
ATOM     24  H5  UNL     1      27.512  19.246  65.248  1.00  0.00     0.162 HD
BRANCH  23  25
HETATM   25  C11 UNL     1      26.298  20.783  64.442  1.00  0.00     0.150 C
BRANCH  25  26
HETATM   26  C12 UNL     1      26.170  21.882  65.445  1.00  0.00     0.249 C
BRANCH  26  27
HETATM   27  N6  UNL     1      26.785  23.082  64.859  1.00  0.00    -0.078 N
ATOM     28  H63 UNL     1      27.701  22.900  64.447  1.00  0.00     0.274 HD
ATOM     29  H62 UNL     1      26.318  23.394  64.007  1.00  0.00     0.274 HD
ATOM     30  H61 UNL     1      26.810  23.797  65.587  1.00  0.00     0.274 HD
ENDBRANCH  26  27
ENDBRANCH  25  26
ENDBRANCH  23  25
ENDBRANCH  20  21
ENDBRANCH  19  20
ENDBRANCH   4  19
TORSDOF 9
ENDMDL