MODEL 3
REMARK VINA RESULT: -7.696077775      1.630      2.252
REMARK  5 active torsions:
REMARK  status: ('A' for Active; 'I' for Inactive)
REMARK    1  A    between atoms: N3_4  and  C2_6
REMARK    2  A    between atoms: C2_6  and  C3_7
REMARK    3  A    between atoms: C3_7  and  C4_8
REMARK    4  A    between atoms: C4_8  and  C5_9
REMARK    5  A    between atoms: C5_9  and  C6_10
ROOT
HETATM    1  C6  UNL     1      28.751  16.455  62.766  1.00  0.00     0.175 C
HETATM    2  N4  UNL     1      27.465  16.938  63.067  1.00  0.00    -0.363 N
ATOM      3  H4  UNL     1      26.764  16.300  62.688  1.00  0.00     0.161 HD
HETATM    4  C7  UNL     1      26.813  18.026  63.728  1.00  0.00     0.142 C
HETATM    5  N5  UNL     1      25.550  17.670  64.276  1.00  0.00    -0.081 NA
HETATM    6  C8  UNL     1      27.131  19.271  63.927  1.00  0.00     0.105 A
HETATM    7  N6  UNL     1      26.119  19.847  64.629  1.00  0.00    -0.314 N
ATOM      8  H6  UNL     1      25.313  19.277  64.887  1.00  0.00     0.169 HD
HETATM    9  C9  UNL     1      26.144  21.144  64.996  1.00  0.00     0.314 A
HETATM   10  O1  UNL     1      25.180  21.632  65.646  1.00  0.00    -0.262 OA
HETATM   11  C10 UNL     1      27.226  21.922  64.653  1.00  0.00     0.314 A
HETATM   12  O2  UNL     1      27.298  23.151  64.978  1.00  0.00    -0.262 OA
HETATM   13  N7  UNL     1      28.239  21.410  63.971  1.00  0.00    -0.316 N
ATOM     14  H7  UNL     1      29.041  21.989  63.720  1.00  0.00     0.169 HD
HETATM   15  C11 UNL     1      28.193  20.099  63.611  1.00  0.00     0.081 A
HETATM   16  C12 UNL     1      29.309  19.921  62.963  1.00  0.00     0.123 C
HETATM   17  N8  UNL     1      29.955  18.848  62.295  1.00  0.00    -0.333 N
ATOM     18  H8  UNL     1      30.718  19.139  61.684  1.00  0.00     0.168 HD
HETATM   19  C13 UNL     1      29.737  17.448  62.317  1.00  0.00     0.244 C
HETATM   20  O3  UNL     1      30.709  16.859  61.773  1.00  0.00    -0.271 OA
ENDROOT
BRANCH   1  21
HETATM   21  C5  UNL     1      28.740  15.343  61.759  1.00  0.00     0.035 C
BRANCH  21  22
HETATM   22  C4  UNL     1      27.502  14.518  61.730  1.00  0.00     0.004 C
BRANCH  22  23
HETATM   23  C3  UNL     1      27.002  14.536  60.279  1.00  0.00     0.020 C
BRANCH  23  24
HETATM   24  C2  UNL     1      26.085  15.717  60.068  1.00  0.00     0.122 C
BRANCH  24  25
HETATM   25  N3  UNL     1      26.476  16.469  58.915  1.00  0.00    -0.367 N
HETATM   26  C1  UNL     1      27.076  17.594  58.918  1.00  0.00     0.196 C
HETATM   27  N1  UNL     1      27.425  18.223  60.126  1.00  0.00    -0.067 NA
HETATM   28  N2  UNL     1      27.387  18.198  57.670  1.00  0.00    -0.067 NA
ATOM     29  H3  UNL     1      26.252  16.067  58.005  1.00  0.00     0.161 HD
ENDBRANCH  24  25
ENDBRANCH  23  24
ENDBRANCH  22  23
ENDBRANCH  21  22
ENDBRANCH   1  21
TORSDOF 5
ENDMDL