MODEL 1
REMARK VINA RESULT: -7.777331163      0.000      0.000
REMARK  7 active torsions:
REMARK  status: ('A' for Active; 'I' for Inactive)
REMARK       I    between atoms: C1_4  and  N3_6
REMARK    1  A    between atoms: N3_6  and  C2_8
REMARK    2  A    between atoms: C2_8  and  C3_9
REMARK    3  A    between atoms: C3_9  and  N4_10
REMARK    4  A    between atoms: N4_10  and  C4_13
REMARK    5  A    between atoms: C4_13  and  C5_14
REMARK       I    between atoms: C5_14  and  N5_16
REMARK    6  A    between atoms: N5_16  and  C6_18
REMARK    7  A    between atoms: C12_32  and  O4_33
ROOT
HETATM    1  C6  UNL     1      27.656  18.248  61.737  1.00  0.00     0.176 C
HETATM    2  C7  UNL     1      26.444  18.469  62.569  1.00  0.00     0.156 C
HETATM    3  N6  UNL     1      26.055  19.822  62.794  1.00  0.00    -0.351 N
ATOM      4  H6  UNL     1      26.024  20.449  61.989  1.00  0.00     0.162 HD
HETATM    5  C8  UNL     1      25.709  20.358  64.065  1.00  0.00     0.309 C
HETATM    6  O2  UNL     1      24.891  21.312  64.091  1.00  0.00    -0.262 OA
HETATM    7  C9  UNL     1      26.239  19.868  65.318  1.00  0.00     0.309 C
HETATM    8  O3  UNL     1      25.588  20.221  66.367  1.00  0.00    -0.262 OA
HETATM    9  N7  UNL     1      27.357  19.067  65.524  1.00  0.00    -0.351 N
ATOM     10  H7  UNL     1      27.199  18.221  66.070  1.00  0.00     0.162 HD
HETATM   11  C10 UNL     1      28.712  19.270  65.069  1.00  0.00     0.142 C
HETATM   12  C11 UNL     1      28.940  20.439  64.190  1.00  0.00     0.141 C
HETATM   13  N8  UNL     1      29.102  20.142  62.783  1.00  0.00    -0.371 N
ATOM     14  H8  UNL     1      29.448  20.925  62.229  1.00  0.00     0.161 HD
HETATM   15  C12 UNL     1      28.873  18.993  62.054  1.00  0.00     0.136 C
ENDROOT
BRANCH   1  16
HETATM   16  N5  UNL     1      27.894  16.796  61.731  1.00  0.00    -0.346 N
HETATM   17  C5  UNL     1      27.371  15.939  60.729  1.00  0.00     0.244 C
HETATM   18  O1  UNL     1      26.676  16.407  59.788  1.00  0.00    -0.272 OA
ATOM     19  H5  UNL     1      28.458  16.389  62.478  1.00  0.00     0.163 HD
BRANCH  17  20
HETATM   20  C4  UNL     1      27.651  14.504  60.809  1.00  0.00     0.334 C
BRANCH  20  21
HETATM   21  N4  UNL     1      26.435  13.740  60.894  1.00  0.00    -0.065 N
ATOM     22  H42 UNL     1      26.609  12.752  60.714  1.00  0.00     0.277 HD
ATOM     23  H41 UNL     1      25.818  13.945  60.108  1.00  0.00     0.277 HD
BRANCH  21  24
HETATM   24  C3  UNL     1      25.740  13.928  62.172  1.00  0.00     0.252 C
BRANCH  24  25
HETATM   25  C2  UNL     1      24.273  14.161  61.755  1.00  0.00     0.150 C
BRANCH  25  26
HETATM   26  N3  UNL     1      23.723  15.182  62.616  1.00  0.00    -0.363 N
HETATM   27  C1  UNL     1      23.679  16.518  62.113  1.00  0.00     0.181 C
HETATM   28  N1  UNL     1      23.807  16.770  60.868  1.00  0.00    -0.374 N
HETATM   29  N2  UNL     1      23.498  17.579  63.047  1.00  0.00    -0.064 NA
ATOM     30  H12 UNL     1      23.776  17.724  60.509  1.00  0.00     0.158 HD
ATOM     31  H11 UNL     1      23.937  16.010  60.199  1.00  0.00     0.158 HD
ATOM     32  H3  UNL     1      23.379  14.958  63.550  1.00  0.00     0.162 HD
ENDBRANCH  25  26
ENDBRANCH  24  25
ENDBRANCH  21  24
ENDBRANCH  20  21
ENDBRANCH  17  20
ENDBRANCH   1  16
BRANCH  15  33
HETATM   33  O4  UNL     1      29.916  18.426  61.519  1.00  0.00    -0.348 OA
ATOM     34  H4  UNL     1      30.654  19.025  61.500  1.00  0.00     0.219 HD
ENDBRANCH  15  33
TORSDOF 7
ENDMDL