MODEL 1
REMARK VINA RESULT: -7.278874193      0.000      0.000
REMARK  7 active torsions:
REMARK  status: ('A' for Active; 'I' for Inactive)
REMARK    1  A    between atoms: N1_1  and  N2_4
REMARK       I    between atoms: N2_4  and  C1_6
REMARK       I    between atoms: C1_6  and  N3_8
REMARK    2  A    between atoms: N3_8  and  C2_10
REMARK    3  A    between atoms: C2_10  and  C3_11
REMARK    4  A    between atoms: C3_11  and  N4_12
REMARK       I    between atoms: N4_12  and  C4_14
REMARK       I    between atoms: C4_14  and  N5_16
REMARK    5  A    between atoms: N5_16  and  N6_18
REMARK    6  A    between atoms: N6_18  and  C5_19
REMARK    7  A    between atoms: C5_19  and  C6_20
REMARK       I    between atoms: C6_20  and  N7_22
ROOT
HETATM    1  N4  UNL     1      28.471  18.180  62.684  1.00  0.00    -0.341 N
ATOM      2  H4  UNL     1      29.166  17.957  63.397  1.00  0.00     0.164 HD
HETATM    3  C4  UNL     1      27.854  19.485  62.640  1.00  0.00     0.331 C
HETATM    4  O2  UNL     1      27.007  19.699  61.732  1.00  0.00    -0.246 OA
HETATM    5  N5  UNL     1      28.247  20.421  63.620  1.00  0.00    -0.255 N
ATOM      6  H5  UNL     1      28.943  20.108  64.296  1.00  0.00     0.187 HD
ENDROOT
BRANCH   1   7
HETATM    7  C3  UNL     1      28.092  17.206  61.708  1.00  0.00     0.144 C
BRANCH   7   8
HETATM    8  C2  UNL     1      27.432  16.019  62.365  1.00  0.00     0.144 C
BRANCH   8   9
HETATM    9  N3  UNL     1      26.003  16.097  62.115  1.00  0.00    -0.340 N
HETATM   10  C1  UNL     1      25.127  16.787  62.982  1.00  0.00     0.334 C
HETATM   11  N2  UNL     1      23.744  16.843  62.703  1.00  0.00    -0.258 N
HETATM   12  O1  UNL     1      25.590  17.356  64.009  1.00  0.00    -0.246 OA
ATOM     13  H2  UNL     1      23.383  16.378  61.870  1.00  0.00     0.191 HD
ATOM     14  H3  UNL     1      25.621  15.640  61.287  1.00  0.00     0.164 HD
BRANCH  11  15
HETATM   15  N1  UNL     1      22.871  17.515  63.535  1.00  0.00    -0.341 N
ATOM     16  H12 UNL     1      23.143  17.658  64.508  1.00  0.00     0.177 HD
ATOM     17  H11 UNL     1      21.975  17.863  63.193  1.00  0.00     0.177 HD
ENDBRANCH  11  15
ENDBRANCH   8   9
ENDBRANCH   7   8
ENDBRANCH   1   7
BRANCH   5  18
HETATM   18  N6  UNL     1      27.795  21.701  63.757  1.00  0.00    -0.128 NA
BRANCH  18  19
HETATM   19  C5  UNL     1      27.031  21.936  64.924  1.00  0.00     0.238 C
BRANCH  19  20
HETATM   20  C6  UNL     1      25.707  21.206  64.850  1.00  0.00     0.243 C
HETATM   21  O3  UNL     1      25.033  21.308  63.794  1.00  0.00    -0.271 OA
HETATM   22  N7  UNL     1      25.310  20.454  65.966  1.00  0.00    -0.278 N
HETATM   23  C7  UNL     1      26.145  20.391  67.132  1.00  0.00     0.155 C
HETATM   24  C10 UNL     1      24.058  19.762  65.901  1.00  0.00     0.318 C
HETATM   25  C8  UNL     1      25.797  19.330  68.116  1.00  0.00     0.143 C
HETATM   26  N8  UNL     1      25.020  18.235  67.561  1.00  0.00    -0.351 N
HETATM   27  C9  UNL     1      23.902  18.585  66.744  1.00  0.00     0.309 C
ATOM     28  H8  UNL     1      25.262  17.262  67.746  1.00  0.00     0.162 HD
HETATM   29  O4  UNL     1      22.862  17.880  66.790  1.00  0.00    -0.262 OA
HETATM   30  O5  UNL     1      23.111  20.121  65.160  1.00  0.00    -0.262 OA
ENDBRANCH  19  20
ENDBRANCH  18  19
ENDBRANCH   5  18
TORSDOF 7
ENDMDL