MODEL 4
REMARK VINA RESULT: -7.293657467      2.135      4.082
REMARK  6 active torsions:
REMARK  status: ('A' for Active; 'I' for Inactive)
REMARK       I    between atoms: N5_14  and  C4_16
REMARK       I    between atoms: C4_16  and  N6_18
REMARK    1  A    between atoms: N6_18  and  C5_20
REMARK    2  A    between atoms: C5_20  and  C6_21
REMARK       I    between atoms: C6_21  and  N7_23
REMARK    3  A    between atoms: N7_23  and  C7_24
REMARK    4  A    between atoms: C7_24  and  C8_25
REMARK       I    between atoms: C8_25  and  N8_27
REMARK    5  A    between atoms: N8_27  and  C9_29
REMARK    6  A    between atoms: C9_29  and  C10_30
ROOT
HETATM    1  N1  UNL     1      23.872  17.584  64.112  1.00  0.00    -0.382 N
ATOM      2  H11 UNL     1      24.283  18.433  64.501  1.00  0.00     0.157 HD
ATOM      3  H12 UNL     1      23.151  17.059  64.607  1.00  0.00     0.157 HD
HETATM    4  C1  UNL     1      24.271  17.148  62.981  1.00  0.00     0.149 A
HETATM    5  N2  UNL     1      23.719  16.011  62.460  1.00  0.00    -0.291 N
ATOM      6  H2  UNL     1      23.001  15.506  62.978  1.00  0.00     0.172 HD
HETATM    7  C2  UNL     1      24.123  15.566  61.274  1.00  0.00     0.340 A
HETATM    8  O1  UNL     1      23.631  14.531  60.781  1.00  0.00    -0.245 OA
HETATM    9  N3  UNL     1      25.082  16.250  60.595  1.00  0.00    -0.250 N
ATOM     10  H3  UNL     1      25.388  15.904  59.685  1.00  0.00     0.192 HD
HETATM   11  N4  UNL     1      25.619  17.335  61.076  1.00  0.00    -0.278 N
ATOM     12  H4  UNL     1      26.335  17.811  60.526  1.00  0.00     0.189 HD
HETATM   13  C3  UNL     1      25.260  17.869  62.302  1.00  0.00     0.168 A
HETATM   14  N5  UNL     1      25.821  18.875  62.693  1.00  0.00    -0.291 N
ATOM     15  H5  UNL     1      26.455  19.087  61.923  1.00  0.00     0.172 HD
HETATM   16  C4  UNL     1      26.073  19.838  63.539  1.00  0.00     0.322 C
HETATM   17  O2  UNL     1      25.609  21.028  63.348  1.00  0.00    -0.247 OA
HETATM   18  N6  UNL     1      26.875  19.638  64.719  1.00  0.00    -0.333 N
ATOM     19  H6  UNL     1      27.260  18.719  64.935  1.00  0.00     0.164 HD
ENDROOT
BRANCH  18  20
HETATM   20  C5  UNL     1      27.121  20.744  65.576  1.00  0.00     0.243 C
BRANCH  20  21
HETATM   21  C6  UNL     1      28.320  21.556  65.070  1.00  0.00     0.309 C
HETATM   22  O3  UNL     1      28.542  22.648  65.613  1.00  0.00    -0.255 OA
HETATM   23  N7  UNL     1      29.027  20.972  64.052  1.00  0.00    -0.377 NA
BRANCH  23  24
HETATM   24  C7  UNL     1      29.715  20.402  63.061  1.00  0.00     0.260 C
BRANCH  24  25
HETATM   25  C8  UNL     1      29.804  18.903  63.253  1.00  0.00     0.270 C
HETATM   26  O4  UNL     1      29.908  18.484  64.391  1.00  0.00    -0.266 OA
HETATM   27  N8  UNL     1      29.763  18.080  62.110  1.00  0.00    -0.347 N
ATOM     28  H8  UNL     1      29.637  18.445  61.166  1.00  0.00     0.163 HD
BRANCH  27  29
HETATM   29  C9  UNL     1      29.920  16.632  62.407  1.00  0.00     0.222 C
BRANCH  29  30
HETATM   30  C10 UNL     1      28.479  16.048  62.243  1.00  0.00     0.248 C
HETATM   31  N9  UNL     1      27.715  15.985  63.415  1.00  0.00    -0.061 NA
HETATM   32  O5  UNL     1      28.184  15.713  61.117  1.00  0.00    -0.275 OA
ENDBRANCH  29  30
ENDBRANCH  27  29
ENDBRANCH  24  25
ENDBRANCH  23  24
ENDBRANCH  20  21
ENDBRANCH  18  20
TORSDOF 6
ENDMDL