MODEL 5
REMARK VINA RESULT: -7.005438648      1.834      4.551
REMARK  8 active torsions:
REMARK  status: ('A' for Active; 'I' for Inactive)
REMARK    1  A    between atoms: N1_1  and  C1_5
REMARK    2  A    between atoms: C1_5  and  C2_6
REMARK    3  A    between atoms: C3_9  and  O1_10
REMARK    4  A    between atoms: C4_12  and  C5_13
REMARK    5  A    between atoms: C5_13  and  C6_14
REMARK    6  A    between atoms: C6_14  and  C7_15
REMARK    7  A    between atoms: C7_15  and  N3_16
REMARK    8  A    between atoms: C9_23  and  O2_24
ROOT
HETATM    1  C2  UNL     1      28.733  17.567  63.476  1.00  0.00     0.201 C
HETATM    2  N2  UNL     1      27.829  17.728  62.297  1.00  0.00    -0.358 N
ATOM      3  H2  UNL     1      28.247  17.712  61.366  1.00  0.00     0.162 HD
HETATM    4  C3  UNL     1      26.415  17.906  62.398  1.00  0.00     0.135 C
HETATM    5  C4  UNL     1      25.347  17.098  62.898  1.00  0.00     0.158 C
HETATM    6  N6  UNL     1      24.520  17.417  64.018  1.00  0.00    -0.358 N
ATOM      7  H6  UNL     1      23.916  16.618  64.213  1.00  0.00     0.162 HD
HETATM    8  C9  UNL     1      24.242  18.403  64.924  1.00  0.00     0.151 C
HETATM    9  C10 UNL     1      24.770  19.031  66.126  1.00  0.00     0.140 C
HETATM   10  N7  UNL     1      25.540  18.351  67.109  1.00  0.00    -0.379 N
ATOM     11  H7  UNL     1      25.148  17.757  67.838  1.00  0.00     0.160 HD
HETATM   12  C11 UNL     1      27.024  18.627  66.929  1.00  0.00     0.245 C
HETATM   13  N8  UNL     1      27.306  18.320  65.568  1.00  0.00    -0.343 N
ATOM     14  H8  UNL     1      26.848  19.035  65.003  1.00  0.00     0.164 HD
HETATM   15  C12 UNL     1      27.922  17.485  64.715  1.00  0.00     0.243 C
HETATM   16  O3  UNL     1      27.856  16.216  64.924  1.00  0.00    -0.271 OA
ENDROOT
BRANCH   5  17
HETATM   17  C5  UNL     1      24.413  16.639  61.754  1.00  0.00     0.035 C
BRANCH  17  18
HETATM   18  C6  UNL     1      23.791  15.323  61.916  1.00  0.00     0.022 C
BRANCH  18  19
HETATM   19  C7  UNL     1      24.880  14.232  62.063  1.00  0.00     0.122 C
BRANCH  19  20
HETATM   20  N3  UNL     1      25.629  14.140  60.834  1.00  0.00    -0.367 N
HETATM   21  C8  UNL     1      26.907  14.222  60.869  1.00  0.00     0.196 C
HETATM   22  N4  UNL     1      27.618  14.127  59.649  1.00  0.00    -0.067 NA
HETATM   23  N5  UNL     1      27.598  14.401  62.097  1.00  0.00    -0.067 NA
ATOM     24  H3  UNL     1      25.146  14.010  59.945  1.00  0.00     0.161 HD
ENDBRANCH  19  20
ENDBRANCH  18  19
ENDBRANCH  17  18
ENDBRANCH   5  17
BRANCH   4  25
HETATM   25  O1  UNL     1      26.034  19.056  61.928  1.00  0.00    -0.348 OA
ATOM     26  H1  UNL     1      26.582  19.767  62.239  1.00  0.00     0.219 HD
ENDBRANCH   4  25
BRANCH   8  27
HETATM   27  O2  UNL     1      23.099  19.008  64.617  1.00  0.00    -0.345 OA
ATOM     28  H2  UNL     1      23.223  19.950  64.576  1.00  0.00     0.219 HD
ENDBRANCH   8  27
BRANCH   1  29
HETATM   29  C1  UNL     1      29.803  18.635  63.464  1.00  0.00     0.264 C
BRANCH  29  30
HETATM   30  N1  UNL     1      29.885  19.313  62.213  1.00  0.00    -0.077 N
ATOM     31  H13 UNL     1      30.245  18.696  61.484  1.00  0.00     0.274 HD
ATOM     32  H12 UNL     1      28.957  19.494  61.832  1.00  0.00     0.274 HD
ATOM     33  H11 UNL     1      30.433  20.172  62.268  1.00  0.00     0.274 HD
ENDBRANCH  29  30
ENDBRANCH   1  29
TORSDOF 8
ENDMDL