MODEL 5
REMARK VINA RESULT: -6.827216358      2.343      5.710
REMARK  6 active torsions:
REMARK  status: ('A' for Active; 'I' for Inactive)
REMARK    1  A    between atoms: N3_4  and  C2_6
REMARK    2  A    between atoms: C2_6  and  C3_7
REMARK    3  A    between atoms: C3_7  and  C4_8
REMARK    4  A    between atoms: C4_8  and  C5_9
REMARK    5  A    between atoms: C7_14  and  C8_15
REMARK    6  A    between atoms: C8_15  and  N5_16
ROOT
HETATM    1  C5  UNL     1      29.084  18.674  62.644  1.00  0.00     0.176 C
HETATM    2  N4  UNL     1      28.282  18.701  61.422  1.00  0.00    -0.346 N
ATOM      3  H4  UNL     1      28.494  19.450  60.763  1.00  0.00     0.163 HD
HETATM    4  C6  UNL     1      27.264  17.826  61.051  1.00  0.00     0.242 C
HETATM    5  O1  UNL     1      27.392  17.237  59.908  1.00  0.00    -0.271 OA
HETATM    6  C7  UNL     1      26.035  17.474  61.800  1.00  0.00     0.194 C
HETATM    7  N8  UNL     1      25.467  18.512  62.595  1.00  0.00    -0.345 N
ATOM      8  H8  UNL     1      24.450  18.584  62.555  1.00  0.00     0.163 HD
HETATM    9  C10 UNL     1      26.099  19.445  63.422  1.00  0.00     0.236 C
HETATM   10  O2  UNL     1      25.930  20.700  63.195  1.00  0.00    -0.272 OA
HETATM   11  C11 UNL     1      26.986  19.172  64.588  1.00  0.00     0.225 C
HETATM   12  N9  UNL     1      28.108  20.073  64.480  1.00  0.00    -0.351 N
ATOM     13  H9  UNL     1      28.279  20.769  65.207  1.00  0.00     0.163 HD
HETATM   14  C12 UNL     1      28.966  19.987  63.366  1.00  0.00     0.240 C
HETATM   15  O3  UNL     1      29.636  20.985  62.963  1.00  0.00    -0.271 OA
ENDROOT
BRANCH   1  16
HETATM   16  C4  UNL     1      30.536  18.488  62.261  1.00  0.00     0.036 C
BRANCH  16  17
HETATM   17  C3  UNL     1      31.084  17.132  62.530  1.00  0.00     0.022 C
BRANCH  17  18
HETATM   18  C2  UNL     1      32.573  17.169  62.546  1.00  0.00     0.122 C
BRANCH  18  19
HETATM   19  N3  UNL     1      33.102  17.235  63.916  1.00  0.00    -0.367 N
HETATM   20  C1  UNL     1      34.377  17.355  64.038  1.00  0.00     0.196 C
HETATM   21  N1  UNL     1      34.957  17.425  65.348  1.00  0.00    -0.067 NA
HETATM   22  N2  UNL     1      35.247  17.422  62.917  1.00  0.00    -0.067 NA
ATOM     23  H3  UNL     1      32.488  17.188  64.729  1.00  0.00     0.161 HD
ENDBRANCH  18  19
ENDBRANCH  17  18
ENDBRANCH  16  17
ENDBRANCH   1  16
BRANCH   6  24
HETATM   24  C8  UNL     1      26.210  16.185  62.606  1.00  0.00     0.156 C
BRANCH  24  25
HETATM   25  N5  UNL     1      24.915  15.524  62.781  1.00  0.00    -0.364 N
HETATM   26  C9  UNL     1      24.802  14.329  62.309  1.00  0.00     0.197 C
HETATM   27  N6  UNL     1      23.568  13.594  62.430  1.00  0.00    -0.067 NA
HETATM   28  N7  UNL     1      25.854  13.659  61.646  1.00  0.00    -0.067 NA
ATOM     29  H5  UNL     1      24.139  15.987  63.254  1.00  0.00     0.161 HD
ENDBRANCH  24  25
ENDBRANCH   6  24
TORSDOF 6
ENDMDL