MODEL 4
REMARK VINA RESULT: -7.229084056      2.128      3.722
REMARK  8 active torsions:
REMARK  status: ('A' for Active; 'I' for Inactive)
REMARK    1  A    between atoms: N1_1  and  N2_4
REMARK       I    between atoms: N2_4  and  C1_6
REMARK       I    between atoms: C1_6  and  N3_8
REMARK    2  A    between atoms: N3_8  and  C2_10
REMARK    3  A    between atoms: C2_10  and  C3_11
REMARK       I    between atoms: C3_11  and  N4_13
REMARK    4  A    between atoms: N4_13  and  C4_15
REMARK    5  A    between atoms: C4_15  and  C5_16
REMARK       I    between atoms: C5_16  and  N5_18
REMARK    6  A    between atoms: N5_18  and  C6_20
REMARK    7  A    between atoms: C8_27  and  N8_28
REMARK    8  A    between atoms: N8_28  and  C9_30
ROOT
HETATM    1  C5  UNL     1      24.835  14.859  61.755  1.00  0.00     0.253 C
HETATM    2  O3  UNL     1      23.866  14.432  62.421  1.00  0.00    -0.271 OA
HETATM    3  N5  UNL     1      24.744  16.255  61.398  1.00  0.00    -0.158 N
ATOM      4  H5  UNL     1      24.496  16.514  60.443  1.00  0.00     0.187 HD
ENDROOT
BRANCH   1   5
HETATM    5  C4  UNL     1      26.006  14.053  61.337  1.00  0.00     0.226 C
BRANCH   5   6
HETATM    6  N4  UNL     1      27.183  14.353  62.105  1.00  0.00    -0.351 N
HETATM    7  C3  UNL     1      28.055  15.384  61.680  1.00  0.00     0.235 C
HETATM    8  O2  UNL     1      27.726  16.024  60.610  1.00  0.00    -0.272 OA
ATOM      9  H4  UNL     1      27.388  13.826  62.953  1.00  0.00     0.163 HD
BRANCH   7  10
HETATM   10  C2  UNL     1      29.301  15.794  62.349  1.00  0.00     0.227 C
BRANCH  10  11
HETATM   11  N3  UNL     1      29.221  16.982  63.140  1.00  0.00    -0.333 N
HETATM   12  C1  UNL     1      29.577  18.227  62.582  1.00  0.00     0.334 C
HETATM   13  N2  UNL     1      29.509  19.392  63.371  1.00  0.00    -0.258 N
HETATM   14  O1  UNL     1      29.952  18.297  61.396  1.00  0.00    -0.246 OA
ATOM     15  H2  UNL     1      29.203  19.343  64.343  1.00  0.00     0.191 HD
ATOM     16  H3  UNL     1      28.907  16.929  64.108  1.00  0.00     0.164 HD
BRANCH  13  17
HETATM   17  N1  UNL     1      29.867  20.616  62.797  1.00  0.00    -0.341 N
ATOM     18  H12 UNL     1      29.626  20.807  61.824  1.00  0.00     0.177 HD
ATOM     19  H11 UNL     1      30.365  21.299  63.369  1.00  0.00     0.177 HD
ENDBRANCH  13  17
ENDBRANCH  10  11
ENDBRANCH   7  10
ENDBRANCH   5   6
ENDBRANCH   1   5
BRANCH   3  20
HETATM   20  C6  UNL     1      24.969  17.165  62.257  1.00  0.00     0.703 A
HETATM   21  N6  UNL     1      25.771  18.187  61.892  1.00  0.00    -0.140 N
HETATM   22  C7  UNL     1      26.020  19.155  62.780  1.00  0.00     0.352 A
ATOM     23  H6  UNL     1      26.180  18.219  60.958  1.00  0.00     0.189 HD
HETATM   24  O4  UNL     1      26.762  20.126  62.484  1.00  0.00    -0.246 OA
HETATM   25  N7  UNL     1      25.488  19.123  64.015  1.00  0.00    -0.140 N
HETATM   26  C8  UNL     1      24.686  18.111  64.394  1.00  0.00     0.703 A
ATOM     27  H7  UNL     1      25.696  19.875  64.672  1.00  0.00     0.189 HD
HETATM   28  N9  UNL     1      24.434  17.139  63.507  1.00  0.00    -0.021 N
ATOM     29  H9  UNL     1      23.829  16.363  63.774  1.00  0.00     0.203 HD
BRANCH  26  30
HETATM   30  N8  UNL     1      24.159  18.055  65.578  1.00  0.00    -0.167 N
ATOM     31  H8  UNL     1      24.222  17.186  66.110  1.00  0.00     0.186 HD
BRANCH  30  32
HETATM   32  C9  UNL     1      23.502  19.166  66.149  1.00  0.00     0.368 C
HETATM   33  O5  UNL     1      22.793  19.896  65.427  1.00  0.00    -0.283 OA
ENDBRANCH  30  32
ENDBRANCH  26  30
ENDBRANCH   3  20
TORSDOF 8
ENDMDL