MODEL 4
REMARK VINA RESULT: -7.341879233      2.191      4.906
REMARK  6 active torsions:
REMARK  status: ('A' for Active; 'I' for Inactive)
REMARK    1  A    between atoms: N3_4  and  C2_6
REMARK    2  A    between atoms: C2_6  and  C3_7
REMARK    3  A    between atoms: C3_7  and  C4_8
REMARK    4  A    between atoms: C4_8  and  C5_9
REMARK    5  A    between atoms: C9_19  and  C10_20
REMARK    6  A    between atoms: C10_20  and  N6_21
ROOT
HETATM    1  C5  UNL     1      28.439  17.942  61.884  1.00  0.00     0.176 C
HETATM    2  N4  UNL     1      28.429  19.353  62.261  1.00  0.00    -0.346 N
ATOM      3  H4  UNL     1      27.673  19.955  61.935  1.00  0.00     0.163 HD
HETATM    4  C6  UNL     1      29.450  19.896  63.068  1.00  0.00     0.236 C
HETATM    5  O1  UNL     1      29.687  21.123  62.987  1.00  0.00    -0.272 OA
HETATM    6  C7  UNL     1      30.222  19.057  63.987  1.00  0.00     0.225 C
HETATM    7  N5  UNL     1      29.525  18.759  65.222  1.00  0.00    -0.350 N
ATOM      8  H5  UNL     1      30.079  18.308  65.949  1.00  0.00     0.163 HD
HETATM    9  C8  UNL     1      28.191  19.012  65.540  1.00  0.00     0.242 C
HETATM   10  O2  UNL     1      27.962  19.662  66.624  1.00  0.00    -0.271 OA
HETATM   11  C9  UNL     1      26.988  18.613  64.766  1.00  0.00     0.194 C
HETATM   12  N9  UNL     1      27.142  17.387  64.044  1.00  0.00    -0.344 N
ATOM     13  H9  UNL     1      26.487  16.641  64.278  1.00  0.00     0.163 HD
HETATM   14  C12 UNL     1      28.087  17.090  63.050  1.00  0.00     0.241 C
HETATM   15  O3  UNL     1      28.704  15.985  63.158  1.00  0.00    -0.271 OA
ENDROOT
BRANCH   1  16
HETATM   16  C4  UNL     1      27.453  17.668  60.783  1.00  0.00     0.036 C
BRANCH  16  17
HETATM   17  C3  UNL     1      27.296  16.200  60.501  1.00  0.00     0.022 C
BRANCH  17  18
HETATM   18  C2  UNL     1      25.868  15.741  60.430  1.00  0.00     0.122 C
BRANCH  18  19
HETATM   19  N3  UNL     1      24.984  16.686  61.090  1.00  0.00    -0.367 N
HETATM   20  C1  UNL     1      24.119  16.317  61.974  1.00  0.00     0.196 C
HETATM   21  N1  UNL     1      23.272  17.260  62.599  1.00  0.00    -0.067 NA
HETATM   22  N2  UNL     1      24.048  14.933  62.293  1.00  0.00    -0.067 NA
ATOM     23  H3  UNL     1      25.049  17.674  60.847  1.00  0.00     0.161 HD
ENDBRANCH  18  19
ENDBRANCH  17  18
ENDBRANCH  16  17
ENDBRANCH   1  16
BRANCH  11  24
HETATM   24  C10 UNL     1      25.814  18.455  65.752  1.00  0.00     0.156 C
BRANCH  24  25
HETATM   25  N6  UNL     1      24.557  18.616  65.093  1.00  0.00    -0.364 N
HETATM   26  C11 UNL     1      23.791  19.590  65.467  1.00  0.00     0.197 C
HETATM   27  N7  UNL     1      24.158  20.495  66.502  1.00  0.00    -0.067 NA
HETATM   28  N8  UNL     1      22.517  19.805  64.848  1.00  0.00    -0.067 NA
ATOM     29  H6  UNL     1      24.270  17.980  64.348  1.00  0.00     0.161 HD
ENDBRANCH  24  25
ENDBRANCH  11  24
TORSDOF 6
ENDMDL