MODEL 5
REMARK VINA RESULT: -7.082642131      4.339      6.850
REMARK  7 active torsions:
REMARK  status: ('A' for Active; 'I' for Inactive)
REMARK       I    between atoms: C1_4  and  N3_6
REMARK    1  A    between atoms: N3_6  and  C2_8
REMARK    2  A    between atoms: C2_8  and  C3_9
REMARK    3  A    between atoms: C3_9  and  C4_10
REMARK    4  A    between atoms: C4_10  and  N4_11
REMARK       I    between atoms: C5_13  and  N6_15
REMARK    5  A    between atoms: N6_15  and  S1_17
REMARK    6  A    between atoms: S1_17  and  N7_20
REMARK    7  A    between atoms: N7_20  and  C6_22
ROOT
HETATM    1  N4  UNL     1      23.825  18.538  66.608  1.00  0.00    -0.364 N
ATOM      2  H4  UNL     1      22.834  18.557  66.845  1.00  0.00     0.162 HD
HETATM    3  C5  UNL     1      24.207  18.469  65.383  1.00  0.00     0.199 C
HETATM    4  N5  UNL     1      23.198  18.422  64.389  1.00  0.00    -0.063 NA
HETATM    5  N6  UNL     1      25.562  18.440  64.957  1.00  0.00    -0.240 N
ATOM      6  H6  UNL     1      26.295  18.263  65.643  1.00  0.00     0.183 HD
ENDROOT
BRANCH   5   7
HETATM    7  S1  UNL     1      26.003  18.701  63.287  1.00  0.00     0.339 S
HETATM    8  O1  UNL     1      25.729  20.180  62.985  1.00  0.00    -0.182 OA
HETATM    9  O2  UNL     1      27.463  18.525  63.204  1.00  0.00    -0.182 OA
BRANCH   7  10
HETATM   10  N7  UNL     1      25.044  17.787  62.262  1.00  0.00    -0.099 N
ATOM     11  H7  UNL     1      24.272  18.315  61.854  1.00  0.00     0.199 HD
BRANCH  10  12
HETATM   12  C6  UNL     1      25.075  16.588  61.891  1.00  0.00     0.701 A
HETATM   13  N8  UNL     1      25.906  16.091  60.973  1.00  0.00    -0.140 N
HETATM   14  C7  UNL     1      25.831  14.792  60.660  1.00  0.00     0.342 A
ATOM     15  H8  UNL     1      26.590  16.694  60.514  1.00  0.00     0.189 HD
HETATM   16  O3  UNL     1      26.623  14.338  59.792  1.00  0.00    -0.246 OA
HETATM   17  N9  UNL     1      24.943  13.954  61.241  1.00  0.00    -0.260 N
HETATM   18  C8  UNL     1      24.097  14.435  62.169  1.00  0.00     0.342 A
ATOM     19  H9  UNL     1      24.916  12.968  60.979  1.00  0.00     0.175 HD
HETATM   20  O4  UNL     1      23.255  13.664  62.726  1.00  0.00    -0.246 OA
HETATM   21  N10 UNL     1      24.169  15.734  62.483  1.00  0.00    -0.140 N
ATOM     22  H10 UNL     1      23.530  16.106  63.185  1.00  0.00     0.189 HD
ENDBRANCH  10  12
ENDBRANCH   7  10
ENDBRANCH   5   7
BRANCH   1  23
HETATM   23  C4  UNL     1      24.828  18.586  67.634  1.00  0.00     0.124 C
BRANCH  23  24
HETATM   24  C3  UNL     1      24.414  17.903  68.908  1.00  0.00     0.039 C
BRANCH  24  25
HETATM   25  C2  UNL     1      23.106  17.180  68.821  1.00  0.00     0.123 C
BRANCH  25  26
HETATM   26  N3  UNL     1      22.126  17.886  69.643  1.00  0.00    -0.365 N
HETATM   27  C1  UNL     1      20.959  18.459  69.090  1.00  0.00     0.181 C
HETATM   28  N1  UNL     1      19.771  18.039  69.355  1.00  0.00    -0.374 N
HETATM   29  N2  UNL     1      21.083  19.547  68.197  1.00  0.00    -0.064 NA
ATOM     30  H12 UNL     1      18.928  18.453  68.956  1.00  0.00     0.158 HD
ATOM     31  H11 UNL     1      19.682  17.254  70.000  1.00  0.00     0.158 HD
ATOM     32  H3  UNL     1      22.290  17.967  70.646  1.00  0.00     0.162 HD
ENDBRANCH  25  26
ENDBRANCH  24  25
ENDBRANCH  23  24
ENDBRANCH   1  23
TORSDOF 7
ENDMDL