MODEL 4
REMARK VINA RESULT: -6.687640268      2.817      6.317
REMARK  9 active torsions:
REMARK  status: ('A' for Active; 'I' for Inactive)
REMARK    1  A    between atoms: N1_1  and  C1_5
REMARK    2  A    between atoms: C1_5  and  C2_6
REMARK    3  A    between atoms: C2_6  and  N2_7
REMARK    4  A    between atoms: N2_7  and  C3_9
REMARK    5  A    between atoms: C4_12  and  N4_13
REMARK       I    between atoms: N4_13  and  C5_15
REMARK    6  A    between atoms: N6_17  and  C6_19
REMARK    7  A    between atoms: C6_19  and  C7_20
REMARK    8  A    between atoms: C7_20  and  N7_21
REMARK    9  A    between atoms: N7_21  and  N8_23
ROOT
HETATM    1  C3  UNL     1      28.592  19.883  63.241  1.00  0.00     0.695 C
HETATM    2  N3  UNL     1      27.890  19.287  62.249  1.00  0.00    -0.022 N
ATOM      3  H3  UNL     1      26.994  19.731  62.045  1.00  0.00     0.203 HD
HETATM    4  C4  UNL     1      28.159  18.223  61.490  1.00  0.00     0.702 C
HETATM    5  N11 UNL     1      29.136  17.320  61.676  1.00  0.00    -0.151 N
ATOM      6  H11 UNL     1      29.008  16.439  61.177  1.00  0.00     0.188 HD
HETATM    7  C9  UNL     1      30.272  17.397  62.426  1.00  0.00     0.328 C
HETATM    8  O1  UNL     1      31.133  16.492  62.278  1.00  0.00    -0.261 OA
HETATM    9  C10 UNL     1      30.524  18.406  63.331  1.00  0.00     0.328 C
HETATM   10  O2  UNL     1      31.511  18.217  64.071  1.00  0.00    -0.261 OA
HETATM   11  N12 UNL     1      29.866  19.572  63.539  1.00  0.00    -0.151 N
ATOM     12  H12 UNL     1      30.411  20.314  63.981  1.00  0.00     0.188 HD
ENDROOT
BRANCH   4  13
HETATM   13  N4  UNL     1      27.370  18.085  60.478  1.00  0.00    -0.163 N
HETATM   14  C5  UNL     1      26.579  16.904  60.431  1.00  0.00     0.202 C
HETATM   15  N5  UNL     1      27.165  15.680  60.008  1.00  0.00    -0.063 NA
HETATM   16  N6  UNL     1      25.342  17.002  60.784  1.00  0.00    -0.362 N
ATOM     17  H6  UNL     1      24.991  17.914  61.077  1.00  0.00     0.162 HD
ATOM     18  H4  UNL     1      27.317  18.790  59.744  1.00  0.00     0.187 HD
BRANCH  16  19
HETATM   19  C6  UNL     1      24.433  15.877  60.780  1.00  0.00     0.143 C
BRANCH  19  20
HETATM   20  C7  UNL     1      23.789  15.793  62.142  1.00  0.00     0.159 C
BRANCH  20  21
HETATM   21  N7  UNL     1      23.359  17.149  62.489  1.00  0.00    -0.333 N
ATOM     22  H7  UNL     1      23.120  17.831  61.768  1.00  0.00     0.180 HD
BRANCH  21  23
HETATM   23  N8  UNL     1      23.289  17.471  63.840  1.00  0.00    -0.280 N
HETATM   24  C8  UNL     1      24.171  18.250  64.346  1.00  0.00     0.215 C
HETATM   25  N9  UNL     1      25.196  18.766  63.523  1.00  0.00    -0.065 NA
HETATM   26  N10 UNL     1      24.102  18.580  65.728  1.00  0.00    -0.065 NA
ATOM     27  H8  UNL     1      22.544  17.089  64.423  1.00  0.00     0.189 HD
ENDBRANCH  21  23
ENDBRANCH  20  21
ENDBRANCH  19  20
ENDBRANCH  16  19
ENDBRANCH   4  13
BRANCH   1  28
HETATM   28  N2  UNL     1      27.956  20.772  63.881  1.00  0.00    -0.224 N
ATOM     29  H2  UNL     1      27.699  21.595  63.336  1.00  0.00     0.177 HD
BRANCH  28  30
HETATM   30  C2  UNL     1      27.546  20.801  65.242  1.00  0.00     0.165 C
BRANCH  30  31
HETATM   31  C1  UNL     1      26.463  21.812  65.548  1.00  0.00     0.249 C
BRANCH  31  32
HETATM   32  N1  UNL     1      26.703  23.107  64.970  1.00  0.00    -0.078 N
ATOM     33  H13 UNL     1      26.052  23.796  65.349  1.00  0.00     0.274 HD
ATOM     34  H12 UNL     1      27.582  23.497  65.311  1.00  0.00     0.274 HD
ATOM     35  H11 UNL     1      26.679  23.111  63.950  1.00  0.00     0.274 HD
ENDBRANCH  31  32
ENDBRANCH  30  31
ENDBRANCH  28  30
ENDBRANCH   1  28
TORSDOF 9
ENDMDL