MODEL 5
REMARK VINA RESULT: -6.677663437      3.842      4.702
REMARK  5 active torsions:
REMARK  status: ('A' for Active; 'I' for Inactive)
REMARK    1  A    between atoms: N1_4  and  C4_5
REMARK    2  A    between atoms: C4_5  and  C5_6
REMARK    3  A    between atoms: C5_6  and  N2_7
REMARK       I    between atoms: N2_7  and  C6_9
REMARK    4  A    between atoms: C6_9  and  C7_11
REMARK    5  A    between atoms: C7_11  and  N3_12
ROOT
HETATM    1  C1  UNL     1      27.757  14.429  59.986  1.00  0.00     0.021 C
HETATM    2  C2  UNL     1      27.545  15.841  60.560  1.00  0.00     0.100 C
HETATM    3  C3  UNL     1      27.775  15.785  62.008  1.00  0.00     0.253 C
HETATM    4  N1  UNL     1      27.062  16.639  62.869  1.00  0.00    -0.039 N
HETATM    5  C12 UNL     1      26.834  17.970  62.371  1.00  0.00     0.468 C
HETATM    6  N5  UNL     1      25.447  18.150  62.093  1.00  0.00    -0.043 N
ATOM      7  H51 UNL     1      25.266  18.337  61.106  1.00  0.00     0.279 HD
ATOM      8  H52 UNL     1      25.082  19.025  62.470  1.00  0.00     0.279 HD
HETATM    9  C13 UNL     1      24.737  17.004  62.575  1.00  0.00     0.231 C
HETATM   10  C14 UNL     1      24.056  16.342  61.376  1.00  0.00     0.157 C
HETATM   11  N6  UNL     1      24.923  16.502  60.263  1.00  0.00    -0.359 N
ATOM     12  H6  UNL     1      24.419  16.808  59.431  1.00  0.00     0.162 HD
HETATM   13  C15 UNL     1      26.311  16.345  60.013  1.00  0.00     0.223 C
HETATM   14  O2  UNL     1      26.537  16.852  58.849  1.00  0.00    -0.273 OA
HETATM   15  C16 UNL     1      25.740  16.020  63.064  1.00  0.00     0.274 C
ENDROOT
BRANCH   4  16
HETATM   16  C4  UNL     1      27.661  16.682  64.183  1.00  0.00     0.259 C
BRANCH  16  17
HETATM   17  C5  UNL     1      29.125  16.912  64.243  1.00  0.00     0.150 C
BRANCH  17  18
HETATM   18  N2  UNL     1      29.383  18.259  64.684  1.00  0.00    -0.358 N
HETATM   19  C6  UNL     1      29.869  19.316  63.877  1.00  0.00     0.246 C
HETATM   20  O1  UNL     1      30.136  19.178  62.650  1.00  0.00    -0.272 OA
ATOM     21  H2  UNL     1      29.199  18.470  65.664  1.00  0.00     0.162 HD
BRANCH  19  22
HETATM   22  C7  UNL     1      30.090  20.660  64.457  1.00  0.00     0.374 C
BRANCH  22  23
HETATM   23  N3  UNL     1      29.831  20.705  65.851  1.00  0.00     0.100 N
HETATM   24  C8  UNL     1      28.730  21.533  66.187  1.00  0.00     0.300 C
HETATM   25  C9  UNL     1      29.131  22.921  66.647  1.00  0.00     0.262 C
HETATM   26  N4  UNL     1      30.281  22.945  67.501  1.00  0.00    -0.072 N
HETATM   27  C10 UNL     1      31.376  22.304  66.774  1.00  0.00     0.262 C
ATOM     28  H42 UNL     1      30.514  23.882  67.829  1.00  0.00     0.277 HD
ATOM     29  H41 UNL     1      30.108  22.524  68.414  1.00  0.00     0.277 HD
HETATM   30  C11 UNL     1      31.003  20.850  66.654  1.00  0.00     0.300 C
ENDBRANCH  22  23
ENDBRANCH  19  22
ENDBRANCH  17  18
ENDBRANCH  16  17
ENDBRANCH   4  16
TORSDOF 5
ENDMDL