MODEL 1
REMARK VINA RESULT: -7.326685345      0.000      0.000
REMARK  7 active torsions:
REMARK  status: ('A' for Active; 'I' for Inactive)
REMARK    1  A    between atoms: C3_3  and  N1_4
REMARK    2  A    between atoms: N1_4  and  C4_6
REMARK    3  A    between atoms: C4_6  and  C5_7
REMARK    4  A    between atoms: C5_7  and  C6_8
REMARK    5  A    between atoms: C6_8  and  N2_9
REMARK       I    between atoms: N2_9  and  C7_11
REMARK    6  A    between atoms: N4_13  and  C8_15
REMARK    7  A    between atoms: C8_15  and  C9_16
ROOT
HETATM    1  C1  UNL     1      25.058  18.061  64.587  1.00  0.00     0.030 C
HETATM    2  C2  UNL     1      25.714  18.293  63.472  1.00  0.00     0.030 A
HETATM    3  C3  UNL     1      26.498  19.457  63.319  1.00  0.00     0.127 A
HETATM    4  N5  UNL     1      27.006  19.310  62.044  1.00  0.00    -0.284 N
ATOM      5  H5  UNL     1      27.629  19.977  61.587  1.00  0.00     0.188 HD
HETATM    6  N6  UNL     1      26.583  18.207  61.508  1.00  0.00    -0.296 N
ATOM      7  H6  UNL     1      26.832  17.896  60.570  1.00  0.00     0.187 HD
HETATM    8  C11 UNL     1      25.762  17.512  62.350  1.00  0.00     0.093 A
HETATM    9  C12 UNL     1      25.178  16.348  62.055  1.00  0.00     0.134 A
HETATM   10  N7  UNL     1      24.313  15.516  62.780  1.00  0.00    -0.302 N
ATOM     11  H7  UNL     1      23.985  15.728  63.722  1.00  0.00     0.171 HD
HETATM   12  C13 UNL     1      23.938  14.331  62.054  1.00  0.00     0.327 A
HETATM   13  O1  UNL     1      23.169  13.429  62.496  1.00  0.00    -0.247 OA
HETATM   14  N8  UNL     1      24.588  14.417  60.827  1.00  0.00    -0.274 N
ATOM     15  H8  UNL     1      24.525  13.725  60.080  1.00  0.00     0.173 HD
HETATM   16  C14 UNL     1      25.362  15.630  60.768  1.00  0.00     0.278 A
HETATM   17  O2  UNL     1      26.042  15.966  59.793  1.00  0.00    -0.265 OA
ENDROOT
BRANCH   3  18
HETATM   18  N1  UNL     1      26.746  20.422  64.060  1.00  0.00    -0.374 N
ATOM     19  H1  UNL     1      25.872  20.842  64.374  1.00  0.00     0.161 HD
BRANCH  18  20
HETATM   20  C4  UNL     1      27.809  21.116  64.602  1.00  0.00     0.123 C
BRANCH  20  21
HETATM   21  C5  UNL     1      28.911  20.203  65.158  1.00  0.00     0.039 C
BRANCH  21  22
HETATM   22  C6  UNL     1      29.984  20.079  64.128  1.00  0.00     0.123 C
BRANCH  22  23
HETATM   23  N2  UNL     1      30.186  18.749  63.628  1.00  0.00    -0.365 N
HETATM   24  C7  UNL     1      30.553  18.423  62.301  1.00  0.00     0.183 C
HETATM   25  N3  UNL     1      29.759  18.892  61.231  1.00  0.00    -0.064 NA
HETATM   26  N4  UNL     1      31.583  17.710  62.043  1.00  0.00    -0.365 N
ATOM     27  H4  UNL     1      31.820  17.494  61.075  1.00  0.00     0.162 HD
ATOM     28  H2  UNL     1      30.055  17.977  64.281  1.00  0.00     0.162 HD
BRANCH  26  29
HETATM   29  C8  UNL     1      32.415  17.207  63.114  1.00  0.00     0.122 C
BRANCH  29  30
HETATM   30  C9  UNL     1      33.845  17.072  62.623  1.00  0.00     0.015 C
HETATM   31  C10 UNL     1      34.802  17.328  63.761  1.00  0.00     0.006 C
ENDBRANCH  29  30
ENDBRANCH  26  29
ENDBRANCH  22  23
ENDBRANCH  21  22
ENDBRANCH  20  21
ENDBRANCH  18  20
ENDBRANCH   3  18
TORSDOF 7
ENDMDL