MODEL 3
REMARK VINA RESULT: -6.980183386      1.587      2.467
REMARK  11 active torsions:
REMARK  status: ('A' for Active; 'I' for Inactive)
REMARK    1  A    between atoms: C3_3  and  N1_4
REMARK    2  A    between atoms: N1_4  and  C4_5
REMARK    3  A    between atoms: C4_5  and  C5_6
REMARK    4  A    between atoms: C5_6  and  N2_7
REMARK    5  A    between atoms: N2_7  and  C8_10
REMARK    6  A    between atoms: C8_10  and  C9_11
REMARK    7  A    between atoms: C11_13  and  O1_14
REMARK    8  A    between atoms: C12_16  and  O2_17
REMARK    9  A    between atoms: C14_20  and  O3_21
REMARK   10  A    between atoms: C15_23  and  O4_24
REMARK   11  A    between atoms: C16_26  and  O5_27
ROOT
HETATM    1  C1  UNL     1      29.907  17.462  65.625  1.00  0.00     0.013 C
HETATM    2  C2  UNL     1      28.804  17.898  65.426  1.00  0.00    -0.089 C
HETATM    3  C3  UNL     1      27.460  18.402  65.199  1.00  0.00     0.330 C
ENDROOT
BRANCH   3   4
HETATM    4  N1  UNL     1      27.508  19.582  64.342  1.00  0.00    -0.051 N
HETATM    5  C13 UNL     1      26.216  20.086  64.054  1.00  0.00     0.273 C
HETATM    6  C14 UNL     1      25.827  21.412  64.565  1.00  0.00     0.175 C
HETATM    7  C15 UNL     1      26.977  22.381  64.627  1.00  0.00     0.178 C
HETATM    8  C16 UNL     1      28.013  21.700  65.532  1.00  0.00     0.175 C
HETATM    9  C17 UNL     1      28.498  20.515  64.797  1.00  0.00     0.273 C
BRANCH   4  10
HETATM   10  C4  UNL     1      28.037  19.076  63.051  1.00  0.00     0.266 C
BRANCH  10  11
HETATM   11  C5  UNL     1      26.999  18.413  62.265  1.00  0.00     0.264 C
BRANCH  11  12
HETATM   12  N2  UNL     1      27.428  17.169  61.595  1.00  0.00    -0.072 N
HETATM   13  C6  UNL     1      27.280  17.254  60.182  1.00  0.00     0.272 C
HETATM   14  C7  UNL     1      28.886  17.145  61.857  1.00  0.00     0.272 C
BRANCH  12  15
HETATM   15  C8  UNL     1      26.754  16.157  62.286  1.00  0.00     0.248 C
BRANCH  15  16
HETATM   16  C9  UNL     1      25.779  15.257  61.676  1.00  0.00     0.072 A
HETATM   17  C10 UNL     1      25.638  13.870  62.071  1.00  0.00     0.017 A
HETATM   18  C11 UNL     1      24.337  14.023  62.172  1.00  0.00     0.069 A
HETATM   19  C12 UNL     1      24.331  15.452  61.785  1.00  0.00     0.183 A
BRANCH  18  20
HETATM   20  O1  UNL     1      23.323  13.111  62.533  1.00  0.00    -0.363 OA
ATOM     21  H1  UNL     1      22.759  13.076  63.297  1.00  0.00     0.217 HD
ENDBRANCH  18  20
BRANCH  19  22
HETATM   22  O2  UNL     1      23.644  15.591  60.557  1.00  0.00    -0.388 OA
ATOM     23  H2  UNL     1      23.582  16.478  60.223  1.00  0.00     0.210 HD
ENDBRANCH  19  22
ENDBRANCH  15  16
ENDBRANCH  12  15
ENDBRANCH  11  12
ENDBRANCH  10  11
ENDBRANCH   4  10
BRANCH   6  24
HETATM   24  O3  UNL     1      24.870  22.004  63.709  1.00  0.00    -0.391 OA
ATOM     25  H3  UNL     1      23.992  21.830  64.028  1.00  0.00     0.210 HD
ENDBRANCH   6  24
BRANCH   7  26
HETATM   26  O4  UNL     1      26.618  23.614  65.105  1.00  0.00    -0.390 OA
ATOM     27  H4  UNL     1      26.721  23.695  66.046  1.00  0.00     0.210 HD
ENDBRANCH   7  26
BRANCH   8  28
HETATM   28  O5  UNL     1      29.062  22.609  65.654  1.00  0.00    -0.391 OA
ATOM     29  H5  UNL     1      29.632  22.256  66.327  1.00  0.00     0.210 HD
ENDBRANCH   8  28
ENDBRANCH   3   4
TORSDOF 11
ENDMDL