MODEL 5
REMARK VINA RESULT: -6.041029446      1.804      2.233
REMARK  10 active torsions:
REMARK  status: ('A' for Active; 'I' for Inactive)
REMARK    1  A    between atoms: C3_3  and  N1_4
REMARK    2  A    between atoms: N1_4  and  C6_7
REMARK    3  A    between atoms: C6_7  and  C7_8
REMARK    4  A    between atoms: C8_9  and  O1_10
REMARK    5  A    between atoms: C9_12  and  C10_13
REMARK    6  A    between atoms: C10_13  and  O2_14
REMARK    7  A    between atoms: C10_13  and  C11_16
REMARK    8  A    between atoms: C11_16  and  O3_17
REMARK    9  A    between atoms: C12_19  and  O4_20
REMARK   10  A    between atoms: C14_24  and  N3_25
ROOT
HETATM    1  C1  UNL     1      26.040  13.170  61.849  1.00  0.00     0.098 C
HETATM    2  C2  UNL     1      26.619  14.075  61.255  1.00  0.00    -0.160 C
HETATM    3  C3  UNL     1      27.324  15.133  60.534  1.00  0.00     0.315 C
ENDROOT
BRANCH   3   4
HETATM    4  N1  UNL     1      26.800  16.433  60.980  1.00  0.00    -0.065 N
HETATM    5  C4  UNL     1      27.470  17.406  60.086  1.00  0.00     0.273 C
HETATM    6  C5  UNL     1      25.427  16.429  60.634  1.00  0.00     0.273 C
BRANCH   4   7
HETATM    7  C6  UNL     1      27.197  16.796  62.296  1.00  0.00     0.248 C
BRANCH   7   8
HETATM    8  C7  UNL     1      27.665  18.152  62.587  1.00  0.00     0.103 C
HETATM    9  C8  UNL     1      26.512  19.018  63.043  1.00  0.00     0.138 C
HETATM   10  C9  UNL     1      26.753  19.715  64.344  1.00  0.00     0.105 C
HETATM   11  C12 UNL     1      27.255  18.685  65.308  1.00  0.00     0.367 C
HETATM   12  N2  UNL     1      28.494  18.082  64.907  1.00  0.00     0.145 N
HETATM   13  C13 UNL     1      29.483  18.592  65.839  1.00  0.00     0.316 C
HETATM   14  C14 UNL     1      28.830  18.301  63.512  1.00  0.00     0.433 C
BRANCH   9  15
HETATM   15  O1  UNL     1      26.211  20.035  62.133  1.00  0.00    -0.394 OA
ATOM     16  H1  UNL     1      25.756  19.714  61.363  1.00  0.00     0.210 HD
ENDBRANCH   9  15
BRANCH  10  17
HETATM   17  C10 UNL     1      25.458  20.233  64.890  1.00  0.00     0.152 C
BRANCH  17  18
HETATM   18  O2  UNL     1      24.356  19.605  64.348  1.00  0.00    -0.393 OA
ATOM     19  H2  UNL     1      24.113  18.814  64.815  1.00  0.00     0.210 HD
ENDBRANCH  17  18
BRANCH  17  20
HETATM   20  C11 UNL     1      25.277  21.708  64.860  1.00  0.00     0.196 C
BRANCH  20  21
HETATM   21  O3  UNL     1      24.711  22.139  63.652  1.00  0.00    -0.398 OA
ATOM     22  H3  UNL     1      25.289  21.977  62.915  1.00  0.00     0.209 HD
ENDBRANCH  20  21
ENDBRANCH  17  20
ENDBRANCH  10  17
BRANCH  11  23
HETATM   23  O4  UNL     1      26.275  17.762  65.706  1.00  0.00    -0.367 OA
ATOM     24  H4  UNL     1      26.604  17.083  66.284  1.00  0.00     0.212 HD
ENDBRANCH  11  23
BRANCH  14  25
HETATM   25  N3  UNL     1      30.062  17.700  63.140  1.00  0.00    -0.046 N
HETATM   26  C15 UNL     1      31.134  17.991  64.113  1.00  0.00     0.274 C
HETATM   27  C16 UNL     1      30.123  16.290  62.931  1.00  0.00     0.274 C
HETATM   28  C17 UNL     1      30.541  18.267  61.856  1.00  0.00     0.274 C
ENDBRANCH  14  25
ENDBRANCH   7   8
ENDBRANCH   4   7
ENDBRANCH   3   4
TORSDOF 10
ENDMDL