MODEL 1
REMARK VINA RESULT: -7.363127601      0.000      0.000
REMARK  6 active torsions:
REMARK  status: ('A' for Active; 'I' for Inactive)
REMARK    1  A    between atoms: C3_5  and  C4_6
REMARK    2  A    between atoms: C4_6  and  N2_7
REMARK    3  A    between atoms: C4_6  and  C5_13
REMARK    4  A    between atoms: N2_7  and  S1_9
REMARK    5  A    between atoms: C10_21  and  N4_22
REMARK    6  A    between atoms: N4_22  and  N5_24
ROOT
HETATM    1  C1  UNL     1      27.160  14.202  59.643  1.00  0.00     0.155 C
HETATM    2  N1  UNL     1      26.835  15.024  60.811  1.00  0.00    -0.334 N
HETATM    3  C2  UNL     1      26.941  16.472  60.851  1.00  0.00     0.227 C
HETATM    4  O1  UNL     1      26.915  17.177  59.843  1.00  0.00    -0.273 OA
HETATM    5  C3  UNL     1      27.071  16.748  62.317  1.00  0.00     0.107 C
HETATM    6  C9  UNL     1      25.885  15.856  62.746  1.00  0.00     0.064 C
HETATM    7  C10 UNL     1      26.364  14.546  62.090  1.00  0.00     0.204 C
ENDROOT
BRANCH   5   8
HETATM    8  C4  UNL     1      26.965  18.143  62.731  1.00  0.00     0.131 C
BRANCH   8   9
HETATM    9  N2  UNL     1      28.281  18.693  63.183  1.00  0.00    -0.293 N
ATOM     10  H2  UNL     1      28.763  18.462  64.053  1.00  0.00     0.175 HD
BRANCH   9  11
HETATM   11  S1  UNL     1      28.833  19.777  61.980  1.00  0.00     0.204 S
HETATM   12  O2  UNL     1      29.999  19.162  61.203  1.00  0.00    -0.578 OA
HETATM   13  O3  UNL     1      27.774  20.013  60.923  1.00  0.00    -0.578 OA
HETATM   14  O4  UNL     1      29.368  21.241  62.532  1.00  0.00    -0.578 OA
ENDBRANCH   9  11
ENDBRANCH   8   9
BRANCH   8  15
HETATM   15  C5  UNL     1      26.010  18.448  63.865  1.00  0.00     0.109 C
HETATM   16  C6  UNL     1      26.473  18.496  65.253  1.00  0.00     0.036 C
HETATM   17  C7  UNL     1      25.055  18.617  65.923  1.00  0.00     0.105 C
HETATM   18  C8  UNL     1      24.531  19.701  65.006  1.00  0.00     0.218 C
HETATM   19  O5  UNL     1      23.614  20.473  65.343  1.00  0.00    -0.274 OA
HETATM   20  N3  UNL     1      25.260  19.657  63.757  1.00  0.00    -0.354 N
ATOM     21  H3  UNL     1      25.243  20.327  62.988  1.00  0.00     0.162 HD
ENDBRANCH   8  15
ENDBRANCH   5   8
BRANCH   7  22
HETATM   22  N4  UNL     1      25.220  13.698  61.992  1.00  0.00    -0.299 N
ATOM     23  H4  UNL     1      25.318  12.691  62.116  1.00  0.00     0.184 HD
BRANCH  22  24
HETATM   24  N5  UNL     1      23.975  14.250  61.727  1.00  0.00    -0.252 N
HETATM   25  N6  UNL     1      23.439  14.255  60.567  1.00  0.00    -0.331 N
ATOM     26  H62 UNL     1      23.968  13.827  59.807  1.00  0.00     0.178 HD
ATOM     27  H61 UNL     1      22.524  14.661  60.372  1.00  0.00     0.178 HD
ATOM     28  H5  UNL     1      23.460  14.674  62.499  1.00  0.00     0.207 HD
ENDBRANCH  22  24
ENDBRANCH   7  22
TORSDOF 6
ENDMDL