MODEL 1
REMARK VINA RESULT: -7.376686754      0.000      0.000
REMARK  9 active torsions:
REMARK  status: ('A' for Active; 'I' for Inactive)
REMARK    1  A    between atoms: C5_5  and  C6_6
REMARK    2  A    between atoms: C6_6  and  C7_7
REMARK    3  A    between atoms: C7_7  and  C8_8
REMARK    4  A    between atoms: C8_8  and  C9_9
REMARK    5  A    between atoms: N4_18  and  C11_19
REMARK    6  A    between atoms: C11_19  and  O1_20
REMARK    7  A    between atoms: O1_20  and  C12_21
REMARK    8  A    between atoms: C12_21  and  O2_22
REMARK    9  A    between atoms: C14_26  and  C15_27
ROOT
HETATM    1  C9  UNL     1      25.926  14.539  60.986  1.00  0.00     0.117 A
HETATM    2  N1  UNL     1      26.029  13.278  61.415  1.00  0.00    -0.274 N
ATOM      3  H1  UNL     1      26.800  12.641  61.211  1.00  0.00     0.189 HD
HETATM    4  N2  UNL     1      24.965  12.992  62.147  1.00  0.00    -0.131 N
ATOM      5  H2  UNL     1      24.780  12.097  62.601  1.00  0.00     0.205 HD
HETATM    6  C10 UNL     1      24.161  14.081  62.196  1.00  0.00     0.695 A
HETATM    7  N3  UNL     1      23.028  14.170  62.840  1.00  0.00    -0.233 N
ATOM      8  H31 UNL     1      22.423  14.989  62.877  1.00  0.00     0.174 HD
ATOM      9  H32 UNL     1      22.580  13.435  63.388  1.00  0.00     0.174 HD
HETATM   10  N4  UNL     1      24.739  15.029  61.489  1.00  0.00    -0.148 N
ENDROOT
BRANCH   1  11
HETATM   11  C8  UNL     1      26.846  15.333  60.117  1.00  0.00     0.082 C
BRANCH  11  12
HETATM   12  C7  UNL     1      28.020  15.880  60.837  1.00  0.00     0.037 C
BRANCH  12  13
HETATM   13  C6  UNL     1      27.883  17.368  61.037  1.00  0.00     0.003 C
BRANCH  13  14
HETATM   14  C5  UNL     1      27.901  17.878  62.282  1.00  0.00     0.030 A
HETATM   15  C4  UNL     1      27.420  17.065  63.300  1.00  0.00     0.030 A
HETATM   16  C3  UNL     1      27.373  17.530  64.585  1.00  0.00     0.015 A
HETATM   17  C2  UNL     1      27.816  18.841  64.861  1.00  0.00    -0.013 A
HETATM   18  C1  UNL     1      27.728  19.256  66.097  1.00  0.00     0.026 C
HETATM   19  C14 UNL     1      28.278  19.591  63.823  1.00  0.00     0.109 A
HETATM   20  N5  UNL     1      28.320  19.105  62.538  1.00  0.00    -0.347 N
HETATM   21  C13 UNL     1      28.902  19.927  61.512  1.00  0.00     0.156 C
BRANCH  19  22
HETATM   22  C15 UNL     1      28.776  20.928  64.028  1.00  0.00     0.282 C
HETATM   23  N6  UNL     1      30.077  21.355  64.326  1.00  0.00    -0.056 NA
HETATM   24  O3  UNL     1      27.927  21.890  63.923  1.00  0.00    -0.269 OA
ENDBRANCH  19  22
ENDBRANCH  13  14
ENDBRANCH  12  13
ENDBRANCH  11  12
ENDBRANCH   1  11
BRANCH  10  25
HETATM   25  C11 UNL     1      24.313  16.411  61.230  1.00  0.00     0.321 C
BRANCH  25  26
HETATM   26  O1  UNL     1      23.382  16.891  62.066  1.00  0.00    -0.347 OA
BRANCH  26  27
HETATM   27  C12 UNL     1      23.679  17.387  63.278  1.00  0.00     0.336 C
BRANCH  27  28
HETATM   28  O2  UNL     1      22.798  17.151  64.309  1.00  0.00    -0.377 OA
ATOM     29  H2  UNL     1      21.939  17.555  64.266  1.00  0.00     0.212 HD
ENDBRANCH  27  28
ENDBRANCH  26  27
ENDBRANCH  25  26
ENDBRANCH  10  25
TORSDOF 9
ENDMDL