MODEL 3
REMARK VINA RESULT: -6.946664494      2.209      5.946
REMARK  9 active torsions:
REMARK  status: ('A' for Active; 'I' for Inactive)
REMARK    1  A    between atoms: C3_5  and  N2_6
REMARK    2  A    between atoms: N2_6  and  C4_8
REMARK    3  A    between atoms: C4_8  and  C5_9
REMARK    4  A    between atoms: C5_9  and  C6_10
REMARK    5  A    between atoms: C6_10  and  N3_11
REMARK    6  A    between atoms: N3_11  and  C7_13
REMARK    7  A    between atoms: C7_13  and  C8_14
REMARK    8  A    between atoms: C8_14  and  O1_15
REMARK    9  A    between atoms: C8_14  and  C9_17
ROOT
HETATM    1  C5  UNL     1      23.811  19.846  65.435  1.00  0.00     0.039 C
ENDROOT
BRANCH   1   2
HETATM    2  C4  UNL     1      23.883  18.394  65.113  1.00  0.00     0.139 C
BRANCH   2   3
HETATM    3  N2  UNL     1      23.477  18.026  63.802  1.00  0.00    -0.226 N
ATOM      4  H2  UNL     1      22.646  18.491  63.438  1.00  0.00     0.177 HD
BRANCH   3   5
HETATM    5  C3  UNL     1      24.040  17.176  63.027  1.00  0.00     0.679 A
HETATM    6  N1  UNL     1      23.546  15.896  63.009  1.00  0.00    -0.189 N
HETATM    7  C2  UNL     1      24.070  14.945  62.227  1.00  0.00     0.092 A
ATOM      8  H1  UNL     1      22.755  15.662  63.609  1.00  0.00     0.184 HD
HETATM    9  C1  UNL     1      23.594  13.706  62.205  1.00  0.00     0.048 C
HETATM   10  C17 UNL     1      25.135  15.266  61.419  1.00  0.00     0.224 A
HETATM   11  C15 UNL     1      25.660  16.534  61.406  1.00  0.00     0.092 A
HETATM   12  O2  UNL     1      25.664  14.402  60.662  1.00  0.00    -0.284 OA
HETATM   13  N5  UNL     1      25.077  17.460  62.231  1.00  0.00    -0.189 N
HETATM   14  C16 UNL     1      26.674  16.892  60.652  1.00  0.00     0.048 C
ATOM     15  H5  UNL     1      25.451  18.409  62.239  1.00  0.00     0.184 HD
ENDBRANCH   3   5
ENDBRANCH   2   3
ENDBRANCH   1   2
BRANCH   1  16
HETATM   16  C6  UNL     1      24.355  20.258  66.765  1.00  0.00     0.115 C
BRANCH  16  17
HETATM   17  N3  UNL     1      25.733  20.600  66.660  1.00  0.00    -0.418 N
ATOM     18  H3  UNL     1      26.461  19.887  66.711  1.00  0.00     0.153 HD
BRANCH  17  19
HETATM   19  C7  UNL     1      26.056  21.974  66.481  1.00  0.00     0.151 C
BRANCH  19  20
HETATM   20  C8  UNL     1      26.319  22.302  65.016  1.00  0.00     0.180 C
BRANCH  20  21
HETATM   21  O1  UNL     1      26.832  23.615  64.931  1.00  0.00    -0.388 OA
ATOM     22  H1  UNL     1      27.534  23.627  64.289  1.00  0.00     0.210 HD
ENDBRANCH  20  21
BRANCH  20  23
HETATM   23  C9  UNL     1      27.382  21.366  64.482  1.00  0.00     0.013 C
HETATM   24  N4  UNL     1      28.634  21.450  64.619  1.00  0.00    -0.386 N
HETATM   25  C10 UNL     1      29.323  20.355  63.957  1.00  0.00     0.023 C
ATOM     26  H4  UNL     1      29.104  22.196  65.131  1.00  0.00     0.160 HD
HETATM   27  C11 UNL     1      30.502  19.929  64.768  1.00  0.00     0.038 C
HETATM   28  C12 UNL     1      29.693  20.684  62.545  1.00  0.00     0.038 C
HETATM   29  C13 UNL     1      28.237  19.271  63.887  1.00  0.00     0.036 C
HETATM   30  C14 UNL     1      27.036  20.161  63.674  1.00  0.00     0.057 C
ENDBRANCH  20  23
ENDBRANCH  19  20
ENDBRANCH  17  19
ENDBRANCH  16  17
ENDBRANCH   1  16
TORSDOF 9
ENDMDL