MODEL 3
REMARK VINA RESULT: -6.859461598      0.808      1.415
REMARK  9 active torsions:
REMARK  status: ('A' for Active; 'I' for Inactive)
REMARK    1  A    between atoms: C4_7  and  N3_8
REMARK    2  A    between atoms: N3_8  and  C5_10
REMARK    3  A    between atoms: C5_10  and  C6_11
REMARK    4  A    between atoms: C6_11  and  C7_12
REMARK    5  A    between atoms: C7_12  and  N4_13
REMARK       I    between atoms: C8_15  and  N6_17
REMARK    6  A    between atoms: N6_17  and  C9_19
REMARK    7  A    between atoms: C9_19  and  C10_20
REMARK    8  A    between atoms: C13_24  and  O1_25
REMARK    9  A    between atoms: C14_29  and  N9_30
ROOT
HETATM    1  N4  UNL     1      24.298  17.478  62.345  1.00  0.00    -0.365 N
ATOM      2  H4  UNL     1      23.782  18.119  61.741  1.00  0.00     0.162 HD
HETATM    3  C8  UNL     1      25.292  17.918  63.018  1.00  0.00     0.184 C
HETATM    4  N5  UNL     1      26.052  17.082  63.877  1.00  0.00    -0.064 NA
HETATM    5  N6  UNL     1      25.711  19.300  62.952  1.00  0.00    -0.360 N
ATOM      6  H6  UNL     1      25.925  19.764  62.070  1.00  0.00     0.162 HD
ENDROOT
BRANCH   1   7
HETATM    7  C7  UNL     1      23.890  16.102  62.419  1.00  0.00     0.123 C
BRANCH   7   8
HETATM    8  C6  UNL     1      23.984  15.411  61.065  1.00  0.00     0.039 C
BRANCH   8   9
HETATM    9  C5  UNL     1      25.233  14.556  60.986  1.00  0.00     0.123 C
BRANCH   9  10
HETATM   10  N3  UNL     1      26.221  15.187  60.167  1.00  0.00    -0.375 N
ATOM     11  H3  UNL     1      26.187  15.055  59.156  1.00  0.00     0.161 HD
BRANCH  10  12
HETATM   12  C4  UNL     1      27.149  15.916  60.672  1.00  0.00     0.116 A
HETATM   13  N2  UNL     1      28.039  15.467  61.553  1.00  0.00    -0.350 N
HETATM   14  C3  UNL     1      28.993  16.312  62.037  1.00  0.00     0.107 A
ATOM     15  H2  UNL     1      28.009  14.497  61.863  1.00  0.00     0.166 HD
HETATM   16  C2  UNL     1      29.023  17.622  61.607  1.00  0.00     0.107 A
HETATM   17  N1  UNL     1      28.118  18.077  60.713  1.00  0.00    -0.366 N
HETATM   18  C1  UNL     1      28.123  19.449  60.243  1.00  0.00     0.155 C
HETATM   19  C15 UNL     1      27.183  17.251  60.238  1.00  0.00     0.138 A
ENDBRANCH  10  12
ENDBRANCH   9  10
ENDBRANCH   8   9
ENDBRANCH   7   8
ENDBRANCH   1   7
BRANCH   5  20
HETATM   20  C9  UNL     1      25.803  19.969  64.215  1.00  0.00     0.166 C
BRANCH  20  21
HETATM   21  C10 UNL     1      27.113  20.495  64.584  1.00  0.00     0.019 A
HETATM   22  C11 UNL     1      28.258  19.772  64.623  1.00  0.00     0.106 A
HETATM   23  N7  UNL     1      29.425  20.355  64.979  1.00  0.00    -0.327 N
HETATM   24  C12 UNL     1      30.609  19.542  65.005  1.00  0.00     0.159 C
HETATM   25  C13 UNL     1      29.430  21.662  65.292  1.00  0.00     0.224 A
HETATM   26  N8  UNL     1      28.317  22.408  65.264  1.00  0.00    -0.308 N
HETATM   27  C14 UNL     1      27.149  21.866  64.917  1.00  0.00     0.111 A
ATOM     28  H8  UNL     1      28.363  23.397  65.510  1.00  0.00     0.171 HD
BRANCH  25  29
HETATM   29  O1  UNL     1      30.614  22.277  65.659  1.00  0.00    -0.332 OA
ATOM     30  H1  UNL     1      30.859  23.105  65.262  1.00  0.00     0.221 HD
ENDBRANCH  25  29
BRANCH  27  31
HETATM   31  N9  UNL     1      26.076  22.583  64.890  1.00  0.00    -0.385 N
ATOM     32  H92 UNL     1      26.034  23.471  65.391  1.00  0.00     0.157 HD
ATOM     33  H91 UNL     1      25.254  22.278  64.369  1.00  0.00     0.157 HD
ENDBRANCH  27  31
ENDBRANCH  20  21
ENDBRANCH   5  20
TORSDOF 9
ENDMDL