MODEL 1
REMARK VINA RESULT: -6.537147049      0.000      0.000
REMARK  10 active torsions:
REMARK  status: ('A' for Active; 'I' for Inactive)
REMARK    1  A    between atoms: C1_2  and  C2_3
REMARK    2  A    between atoms: C2_3  and  C3_4
REMARK    3  A    between atoms: C2_3  and  N3_13
REMARK    4  A    between atoms: C3_4  and  C4_5
REMARK    5  A    between atoms: N3_13  and  C7_15
REMARK    6  A    between atoms: C7_15  and  C8_16
REMARK    7  A    between atoms: C7_15  and  C10_20
REMARK    8  A    between atoms: C8_16  and  C9_17
REMARK    9  A    between atoms: C9_17  and  O3_18
REMARK   10  A    between atoms: C13_23  and  C14_24
ROOT
HETATM    1  C7  UNL     1      26.749  16.905  60.748  1.00  0.00     0.034 C
ENDROOT
BRANCH   1   2
HETATM    2  N3  UNL     1      25.566  17.296  61.429  1.00  0.00    -0.380 N
ATOM      3  H3  UNL     1      25.015  18.052  61.022  1.00  0.00     0.160 HD
BRANCH   2   4
HETATM    4  C2  UNL     1      25.085  16.704  62.652  1.00  0.00     0.148 C
BRANCH   4   5
HETATM    5  C1  UNL     1      23.865  15.897  62.359  1.00  0.00     0.256 C
HETATM    6  O1  UNL     1      23.914  14.676  62.369  1.00  0.00    -0.305 OA
ENDBRANCH   4   5
BRANCH   4   7
HETATM    7  C3  UNL     1      24.846  17.725  63.711  1.00  0.00     0.090 C
BRANCH   7   8
HETATM    8  C4  UNL     1      25.962  18.673  63.923  1.00  0.00     0.031 A
HETATM    9  C5  UNL     1      27.103  18.294  64.647  1.00  0.00     0.118 A
HETATM   10  N1  UNL     1      27.920  19.354  64.695  1.00  0.00    -0.317 N
HETATM   11  C6  UNL     1      27.364  20.381  64.045  1.00  0.00     0.324 A
ATOM     12  H1  UNL     1      28.829  19.374  65.157  1.00  0.00     0.170 HD
HETATM   13  O2  UNL     1      27.791  21.551  63.853  1.00  0.00    -0.247 OA
HETATM   14  N2  UNL     1      26.160  19.937  63.581  1.00  0.00    -0.311 N
ATOM     15  H2  UNL     1      25.502  20.502  63.044  1.00  0.00     0.170 HD
ENDBRANCH   7   8
ENDBRANCH   4   7
ENDBRANCH   2   4
ENDBRANCH   1   2
BRANCH   1  16
HETATM   16  C8  UNL     1      26.772  15.959  59.615  1.00  0.00     0.085 C
BRANCH  16  17
HETATM   17  C9  UNL     1      26.801  14.517  59.958  1.00  0.00     0.170 C
BRANCH  17  18
HETATM   18  O3  UNL     1      25.520  13.963  60.032  1.00  0.00    -0.400 OA
ATOM     19  H3  UNL     1      25.341  13.369  59.313  1.00  0.00     0.209 HD
ENDBRANCH  17  18
ENDBRANCH  16  17
ENDBRANCH   1  16
BRANCH   1  20
HETATM   20  C10 UNL     1      27.889  17.448  61.120  1.00  0.00     0.055 A
HETATM   21  C11 UNL     1      28.357  18.709  60.876  1.00  0.00     0.034 A
HETATM   22  C12 UNL     1      29.606  18.866  61.458  1.00  0.00     0.032 A
HETATM   23  C13 UNL     1      29.883  17.659  62.063  1.00  0.00     0.038 A
HETATM   24  N5  UNL     1      28.844  16.847  61.841  1.00  0.00    -0.354 N
ATOM     25  H5  UNL     1      28.786  15.886  62.179  1.00  0.00     0.166 HD
BRANCH  23  26
HETATM   26  C14 UNL     1      30.967  17.341  62.743  1.00  0.00    -0.003 C
HETATM   27  C15 UNL     1      31.281  16.988  64.164  1.00  0.00     0.270 C
HETATM   28  N4  UNL     1      32.617  17.533  63.924  1.00  0.00    -0.068 N
HETATM   29  C16 UNL     1      32.420  17.156  62.518  1.00  0.00     0.270 C
ATOM     30  H42 UNL     1      32.859  18.487  64.192  1.00  0.00     0.277 HD
ATOM     31  H41 UNL     1      33.427  17.212  64.455  1.00  0.00     0.277 HD
ENDBRANCH  23  26
ENDBRANCH   1  20
TORSDOF 10
ENDMDL