MODEL 1
REMARK VINA RESULT: -6.736367125      0.000      0.000
REMARK  9 active torsions:
REMARK  status: ('A' for Active; 'I' for Inactive)
REMARK       I    between atoms: C1_2  and  N1_3
REMARK    1  A    between atoms: C1_2  and  C12_23
REMARK    2  A    between atoms: N1_3  and  C2_5
REMARK    3  A    between atoms: C2_5  and  C3_6
REMARK    4  A    between atoms: C3_6  and  N2_7
REMARK    5  A    between atoms: N3_10  and  C6_11
REMARK    6  A    between atoms: C6_11  and  O2_12
REMARK    7  A    between atoms: C9_16  and  C10_17
REMARK    8  A    between atoms: C10_17  and  O3_18
REMARK    9  A    between atoms: C11_20  and  O4_21
ROOT
HETATM    1  N2  UNL     1      27.513  17.557  62.435  1.00  0.00    -0.034 N
HETATM    2  C4  UNL     1      27.928  16.293  62.990  1.00  0.00     0.268 C
HETATM    3  C5  UNL     1      27.225  15.211  62.183  1.00  0.00     0.268 C
HETATM    4  N3  UNL     1      25.979  15.741  61.605  1.00  0.00    -0.033 N
HETATM    5  C7  UNL     1      26.382  16.564  60.503  1.00  0.00     0.268 C
HETATM    6  C8  UNL     1      27.569  17.376  60.973  1.00  0.00     0.268 C
HETATM    7  C9  UNL     1      25.315  16.517  62.631  1.00  0.00     0.272 C
HETATM    8  C11 UNL     1      26.138  17.765  62.864  1.00  0.00     0.357 C
ENDROOT
BRANCH   1   9
HETATM    9  C3  UNL     1      28.332  18.677  62.718  1.00  0.00     0.260 C
BRANCH   9  10
HETATM   10  C2  UNL     1      29.617  18.802  61.993  1.00  0.00     0.150 C
BRANCH  10  11
HETATM   11  N1  UNL     1      30.799  18.429  62.730  1.00  0.00    -0.359 N
HETATM   12  C1  UNL     1      31.517  17.240  62.421  1.00  0.00     0.230 C
HETATM   13  O1  UNL     1      31.170  16.458  61.503  1.00  0.00    -0.272 OA
ATOM     14  H1  UNL     1      31.127  19.029  63.487  1.00  0.00     0.162 HD
BRANCH  12  15
HETATM   15  C12 UNL     1      32.723  16.908  63.213  1.00  0.00     0.138 C
HETATM   16  C13 UNL     1      32.653  17.709  64.492  1.00  0.00    -0.010 C
HETATM   17  C14 UNL     1      33.763  17.880  65.205  1.00  0.00    -0.010 C
HETATM   18  C15 UNL     1      35.008  17.259  64.676  1.00  0.00     0.146 C
HETATM   19  N4  UNL     1      35.021  17.468  63.236  1.00  0.00    -0.398 N
HETATM   20  C16 UNL     1      33.964  17.309  62.534  1.00  0.00     0.073 C
ATOM     21  H4  UNL     1      35.889  17.746  62.778  1.00  0.00     0.158 HD
ENDBRANCH  12  15
ENDBRANCH  10  11
ENDBRANCH   9  10
ENDBRANCH   1   9
BRANCH   8  22
HETATM   22  O4  UNL     1      25.580  18.899  62.326  1.00  0.00    -0.368 OA
ATOM     23  H4  UNL     1      24.633  18.850  62.267  1.00  0.00     0.212 HD
ENDBRANCH   8  22
BRANCH   7  24
HETATM   24  C10 UNL     1      23.870  16.753  62.425  1.00  0.00     0.202 C
BRANCH  24  25
HETATM   25  O3  UNL     1      23.154  17.236  63.493  1.00  0.00    -0.399 OA
ATOM     26  H3  UNL     1      22.398  17.778  63.300  1.00  0.00     0.209 HD
ENDBRANCH  24  25
ENDBRANCH   7  24
BRANCH   4  27
HETATM   27  C6  UNL     1      25.199  14.595  61.229  1.00  0.00     0.402 C
BRANCH  27  28
HETATM   28  O2  UNL     1      25.558  14.152  59.963  1.00  0.00    -0.374 OA
ATOM     29  H2  UNL     1      26.503  14.131  59.870  1.00  0.00     0.211 HD
ENDBRANCH  27  28
ENDBRANCH   4  27
TORSDOF 9
ENDMDL