MODEL 2
REMARK VINA RESULT: -8.863261457      0.966      1.179
REMARK  4 active torsions:
REMARK  status: ('A' for Active; 'I' for Inactive)
REMARK       I    between atoms: C1_2  and  N1_3
REMARK    1  A    between atoms: C1_2  and  C6_14
REMARK    2  A    between atoms: N1_3  and  S1_5
REMARK    3  A    between atoms: S1_5  and  O4_8
REMARK    4  A    between atoms: O4_8  and  C2_9
ROOT
HETATM    1  O1  UNL     1      97.778  66.670  16.648  1.00  0.00    -0.267 OA
HETATM    2  C1  UNL     1      96.705  66.784  17.271  1.00  0.00     0.258 C
HETATM    3  N1  UNL     1      95.736  67.673  16.736  1.00  0.00    -0.227 N
ATOM      4  H1  UNL     1      94.849  67.785  17.227  1.00  0.00     0.184 HD
ENDROOT
BRANCH   2   5
HETATM    5  C6  UNL     1      96.531  65.988  18.504  1.00  0.00    -0.011 C
HETATM    6  C7  UNL     1      97.377  64.747  18.537  1.00  0.00     0.040 C
HETATM    7  C8  UNL     1      96.641  63.465  18.667  1.00  0.00     0.004 C
HETATM    8  C9  UNL     1      96.012  63.171  19.970  1.00  0.00     0.000 C
HETATM    9  C10 UNL     1      96.953  62.972  21.118  1.00  0.00     0.000 C
HETATM   10  C11 UNL     1      96.324  63.572  22.354  1.00  0.00     0.000 C
HETATM   11  C12 UNL     1      97.280  64.031  23.386  1.00  0.00     0.000 C
HETATM   12  C13 UNL     1      98.295  65.030  22.955  1.00  0.00     0.000 C
HETATM   13  C14 UNL     1      97.681  66.371  22.553  1.00  0.00     0.000 C
HETATM   14  C15 UNL     1      98.432  66.872  21.378  1.00  0.00     0.000 C
HETATM   15  C16 UNL     1      97.642  67.475  20.264  1.00  0.00     0.004 C
HETATM   16  C17 UNL     1      96.469  66.775  19.771  1.00  0.00     0.040 C
ENDBRANCH   2   5
BRANCH   3  17
HETATM   17  S1  UNL     1      96.001  68.564  15.299  1.00  0.00     0.369 S
HETATM   18  O2  UNL     1      96.583  69.909  15.625  1.00  0.00    -0.175 OA
HETATM   19  O3  UNL     1      96.983  67.872  14.401  1.00  0.00    -0.175 OA
BRANCH  17  20
HETATM   20  O4  UNL     1      94.550  68.844  14.468  1.00  0.00    -0.216 OA
BRANCH  20  21
HETATM   21  C2  UNL     1      93.559  67.814  14.393  1.00  0.00     0.098 A
HETATM   22  C3  UNL     1      92.560  67.665  15.271  1.00  0.00     0.046 A
HETATM   23  C4  UNL     1      91.689  66.632  15.071  1.00  0.00     0.052 A
HETATM   24  S2  UNL     1      92.288  65.894  13.658  1.00  0.00    -0.111 SA
HETATM   25  C5  UNL     1      93.624  66.912  13.360  1.00  0.00     0.087 A
ENDBRANCH  20  21
ENDBRANCH  17  20
ENDBRANCH   3  17
TORSDOF 4
ENDMDL