MODEL 1
REMARK VINA RESULT: -9.325625847      0.000      0.000
REMARK  4 active torsions:
REMARK  status: ('A' for Active; 'I' for Inactive)
REMARK    1  A    between atoms: C1_2  and  C2_3
REMARK       I    between atoms: C1_2  and  N3_21
REMARK    2  A    between atoms: C2_3  and  S1_4
REMARK    3  A    between atoms: S1_4  and  C3_5
REMARK    4  A    between atoms: N3_21  and  C14_23
ROOT
HETATM    1  C3  UNL     1      98.403  66.916  19.931  1.00  0.00     0.084 A
HETATM    2  N1  UNL     1      99.391  67.807  19.975  1.00  0.00    -0.346 N
ATOM      3  H1  UNL     1      99.541  68.368  19.136  1.00  0.00     0.167 HD
HETATM    4  C4  UNL     1     100.194  68.037  20.994  1.00  0.00     0.182 A
HETATM    5  N2  UNL     1      99.970  67.284  22.083  1.00  0.00    -0.346 N
ATOM      6  H2  UNL     1     100.557  67.411  22.907  1.00  0.00     0.167 HD
HETATM    7  C5  UNL     1      98.968  66.348  22.110  1.00  0.00     0.089 A
HETATM    8  S2  UNL     1      98.427  65.300  23.340  1.00  0.00    -0.075 SA
HETATM    9  C6  UNL     1      97.145  64.572  22.504  1.00  0.00    -0.008 A
HETATM   10  C7  UNL     1      97.167  65.183  21.229  1.00  0.00    -0.029 A
HETATM   11  C8  UNL     1      98.130  66.104  21.057  1.00  0.00     0.039 A
HETATM   12  C9  UNL     1      96.104  64.745  20.260  1.00  0.00     0.040 C
HETATM   13  C10 UNL     1      96.072  63.260  20.036  1.00  0.00     0.005 C
HETATM   14  C11 UNL     1      96.972  62.471  20.954  1.00  0.00     0.001 C
HETATM   15  C12 UNL     1      96.353  62.272  22.320  1.00  0.00     0.005 C
HETATM   16  C13 UNL     1      96.206  63.543  23.070  1.00  0.00     0.046 C
ENDROOT
BRANCH   1  17
HETATM   17  S1  UNL     1      97.444  66.798  18.438  1.00  0.00    -0.102 SA
BRANCH  17  18
HETATM   18  C2  UNL     1      97.730  68.300  17.489  1.00  0.00     0.183 C
BRANCH  18  19
HETATM   19  C1  UNL     1      96.700  68.547  16.439  1.00  0.00     0.227 C
HETATM   20  O1  UNL     1      96.595  69.768  16.053  1.00  0.00    -0.273 OA
HETATM   21  N3  UNL     1      95.869  67.601  15.848  1.00  0.00    -0.356 N
ATOM     22  H3  UNL     1      95.991  66.652  16.204  1.00  0.00     0.162 HD
BRANCH  21  23
HETATM   23  C14 UNL     1      94.881  67.724  14.837  1.00  0.00     0.084 C
HETATM   24  C15 UNL     1      95.136  67.094  13.513  1.00  0.00     0.025 C
HETATM   25  C16 UNL     1      93.851  66.499  12.930  1.00  0.00     0.002 C
HETATM   26  C17 UNL     1      92.729  67.498  12.967  1.00  0.00     0.000 C
HETATM   27  C18 UNL     1      92.453  67.820  14.408  1.00  0.00     0.002 C
HETATM   28  C19 UNL     1      93.505  67.320  15.336  1.00  0.00     0.025 C
ENDBRANCH  21  23
ENDBRANCH  18  19
ENDBRANCH  17  18
ENDBRANCH   1  17
TORSDOF 4
ENDMDL