MODEL 2
REMARK VINA RESULT: -9.082628027      0.954      1.061
REMARK  5 active torsions:
REMARK  status: ('A' for Active; 'I' for Inactive)
REMARK    1  A    between atoms: C2_2  and  C3_3
REMARK    2  A    between atoms: C3_3  and  C4_4
REMARK    3  A    between atoms: C4_4  and  C5_5
REMARK    4  A    between atoms: C11_13  and  C12_14
REMARK       I    between atoms: C12_14  and  N1_16
REMARK    5  A    between atoms: C14_23  and  C15_24
ROOT
HETATM    1  C12 UNL     1      96.667  66.168  19.076  1.00  0.00     0.261 C
HETATM    2  O2  UNL     1      97.706  66.616  18.506  1.00  0.00    -0.267 OA
HETATM    3  N1  UNL     1      95.378  66.479  18.607  1.00  0.00    -0.302 N
ATOM      4  H1  UNL     1      94.655  66.662  19.303  1.00  0.00     0.171 HD
HETATM    5  C13 UNL     1      95.042  66.550  17.368  1.00  0.00     0.168 A
HETATM    6  N2  UNL     1      95.753  66.363  16.262  1.00  0.00    -0.279 N
ATOM      7  H2  UNL     1      96.735  66.097  16.324  1.00  0.00     0.189 HD
HETATM    8  N3  UNL     1      95.206  66.517  15.128  1.00  0.00    -0.295 N
ATOM      9  H3  UNL     1      95.751  66.374  14.279  1.00  0.00     0.187 HD
HETATM   10  C14 UNL     1      93.929  66.863  15.039  1.00  0.00     0.077 A
HETATM   11  S2  UNL     1      93.496  66.970  16.695  1.00  0.00    -0.037 SA
ENDROOT
BRANCH   1  12
HETATM   12  C11 UNL     1      96.816  65.328  20.230  1.00  0.00     0.082 A
HETATM   13  C5  UNL     1      97.257  65.533  21.508  1.00  0.00     0.071 A
HETATM   14  O1  UNL     1      97.226  64.399  22.193  1.00  0.00    -0.312 OA
HETATM   15  C6  UNL     1      96.771  63.396  21.423  1.00  0.00     0.100 A
HETATM   16  C7  UNL     1      96.523  62.062  21.549  1.00  0.00    -0.020 A
HETATM   17  C10 UNL     1      96.515  63.958  20.211  1.00  0.00     0.057 A
HETATM   18  C8  UNL     1      96.762  61.269  22.832  1.00  0.00     0.052 C
HETATM   19  C9  UNL     1      96.039  61.414  20.444  1.00  0.00     0.060 A
HETATM   20  S1  UNL     1      95.942  62.656  19.277  1.00  0.00    -0.098 SA
BRANCH  13  21
HETATM   21  C4  UNL     1      97.698  66.857  22.025  1.00  0.00     0.066 C
BRANCH  21  22
HETATM   22  C3  UNL     1      98.821  66.691  23.023  1.00  0.00     0.006 C
BRANCH  22  23
HETATM   23  C2  UNL     1      98.418  67.067  24.410  1.00  0.00    -0.004 C
HETATM   24  C1  UNL     1      99.193  66.305  25.447  1.00  0.00     0.005 C
ENDBRANCH  22  23
ENDBRANCH  21  22
ENDBRANCH  13  21
ENDBRANCH   1  12
BRANCH  10  25
HETATM   25  C15 UNL     1      93.092  67.102  13.814  1.00  0.00    -0.001 C
HETATM   26  C16 UNL     1      93.120  68.576  13.484  1.00  0.00     0.021 C
HETATM   27  C17 UNL     1      93.519  66.245  12.657  1.00  0.00     0.021 C
HETATM   28  C18 UNL     1      91.668  66.780  14.226  1.00  0.00     0.021 C
ENDBRANCH  10  25
TORSDOF 5
ENDMDL