MODEL 5
REMARK VINA RESULT: -9.911674278      7.786     10.293
REMARK  5 active torsions:
REMARK  status: ('A' for Active; 'I' for Inactive)
REMARK       I    between atoms: C1_2  and  N1_3
REMARK    1  A    between atoms: C1_2  and  O3_14
REMARK    2  A    between atoms: N1_3  and  C2_4
REMARK    3  A    between atoms: O3_14  and  C11_15
REMARK    4  A    between atoms: C11_15  and  C12_16
REMARK    5  A    between atoms: C15_19  and  C16_20
ROOT
HETATM    1  O3  UNL     1      97.410  69.110  17.378  1.00  0.00    -0.290 OA
ENDROOT
BRANCH   1   2
HETATM    2  C1  UNL     1      96.428  69.069  16.345  1.00  0.00     0.440 C
HETATM    3  O1  UNL     1      96.528  70.070  15.587  1.00  0.00    -0.221 OA
HETATM    4  N1  UNL     1      95.537  68.065  16.237  1.00  0.00    -0.346 NA
BRANCH   4   5
HETATM    5  C2  UNL     1      94.645  67.060  16.128  1.00  0.00     0.116 A
HETATM    6  C3  UNL     1      94.319  66.437  17.372  1.00  0.00     0.045 A
HETATM    7  C4  UNL     1      93.410  65.423  17.470  1.00  0.00     0.013 A
HETATM    8  C5  UNL     1      92.773  64.961  16.358  1.00  0.00    -0.025 A
HETATM    9  C6  UNL     1      93.044  65.516  15.140  1.00  0.00     0.078 A
HETATM   10  C10 UNL     1      91.779  63.864  16.382  1.00  0.00     0.043 C
HETATM   11  C7  UNL     1      93.966  66.543  15.066  1.00  0.00     0.082 A
HETATM   12  O2  UNL     1      92.371  65.012  14.038  1.00  0.00    -0.350 OA
HETATM   13  C8  UNL     1      91.983  63.650  13.945  1.00  0.00     0.176 C
HETATM   14  C9  UNL     1      92.064  62.924  15.254  1.00  0.00     0.031 C
ENDBRANCH   4   5
ENDBRANCH   1   2
BRANCH   1  15
HETATM   15  C11 UNL     1      98.300  68.149  17.741  1.00  0.00     0.216 C
BRANCH  15  16
HETATM   16  C12 UNL     1      98.243  67.506  19.067  1.00  0.00     0.184 C
HETATM   17  C13 UNL     1      96.847  67.403  19.657  1.00  0.00     0.040 C
HETATM   18  C14 UNL     1      96.908  66.204  20.621  1.00  0.00     0.038 C
HETATM   19  C15 UNL     1      98.178  66.436  21.437  1.00  0.00     0.164 C
HETATM   20  O4  UNL     1      98.577  67.732  21.232  1.00  0.00    -0.235 OA
HETATM   21  O5  UNL     1      99.111  67.905  20.038  1.00  0.00    -0.233 OA
BRANCH  19  22
HETATM   22  C16 UNL     1      97.880  66.146  22.882  1.00  0.00     0.018 C
HETATM   23  C17 UNL     1      98.153  67.359  23.745  1.00  0.00     0.007 C
HETATM   24  C18 UNL     1      98.332  66.891  25.163  1.00  0.00     0.000 C
HETATM   25  C19 UNL     1      99.725  66.308  25.295  1.00  0.00     0.000 C
HETATM   26  C20 UNL     1     100.093  65.659  23.966  1.00  0.00     0.000 C
HETATM   27  C21 UNL     1      98.855  65.049  23.301  1.00  0.00     0.007 C
ENDBRANCH  19  22
ENDBRANCH  15  16
ENDBRANCH   1  15
TORSDOF 5
ENDMDL