MODEL 5
REMARK VINA RESULT: -8.164900460      1.735      2.127
REMARK  4 active torsions:
REMARK  status: ('A' for Active; 'I' for Inactive)
REMARK    1  A    between atoms: C3_5  and  S1_6
REMARK    2  A    between atoms: S1_6  and  C4_7
REMARK    3  A    between atoms: C4_7  and  C6_9
REMARK    4  A    between atoms: N3_18  and  C12_19
ROOT
HETATM    1  C1  UNL     1      96.612  63.820  22.917  1.00  0.00     0.069 C
HETATM    2  C2  UNL     1      96.581  63.239  21.561  1.00  0.00     0.018 A
HETATM    3  N1  UNL     1      96.584  64.004  20.483  1.00  0.00    -0.340 N
ATOM      4  H1  UNL     1      96.608  65.016  20.609  1.00  0.00     0.167 HD
HETATM    5  C3  UNL     1      96.557  63.516  19.222  1.00  0.00     0.150 A
HETATM    6  N3  UNL     1      96.525  62.195  18.974  1.00  0.00    -0.289 N
HETATM    7  C18 UNL     1      96.523  61.399  20.058  1.00  0.00     0.257 A
HETATM    8  O2  UNL     1      96.495  60.162  19.887  1.00  0.00    -0.267 OA
HETATM    9  C19 UNL     1      96.550  61.863  21.350  1.00  0.00     0.029 A
HETATM   10  C20 UNL     1      96.548  60.988  22.551  1.00  0.00     0.056 C
ENDROOT
BRANCH   5  11
HETATM   11  S1  UNL     1      96.526  64.718  17.913  1.00  0.00    -0.087 SA
BRANCH  11  12
HETATM   12  C4  UNL     1      95.437  66.097  18.176  1.00  0.00     0.079 C
HETATM   13  C5  UNL     1      96.204  67.323  18.573  1.00  0.00     0.024 C
BRANCH  12  14
HETATM   14  C6  UNL     1      94.548  66.395  16.986  1.00  0.00     0.042 C
HETATM   15  C7  UNL     1      93.132  66.489  17.516  1.00  0.00     0.039 C
HETATM   16  C8  UNL     1      94.667  65.369  15.907  1.00  0.00     0.032 C
HETATM   17  C9  UNL     1      94.392  65.842  14.523  1.00  0.00     0.012 C
HETATM   18  C10 UNL     1      93.482  67.045  14.433  1.00  0.00     0.103 C
HETATM   19  C11 UNL     1      94.090  68.097  15.286  1.00  0.00     0.218 C
HETATM   20  O1  UNL     1      93.965  69.327  15.067  1.00  0.00    -0.274 OA
HETATM   21  N2  UNL     1      94.857  67.696  16.411  1.00  0.00    -0.351 N
ATOM     22  H2  UNL     1      95.589  68.291  16.798  1.00  0.00     0.163 HD
ENDBRANCH  12  14
ENDBRANCH  11  12
ENDBRANCH   5  11
BRANCH   6  23
HETATM   23  C12 UNL     1      96.455  61.600  17.656  1.00  0.00     0.095 C
HETATM   24  C13 UNL     1      95.174  60.810  17.465  1.00  0.00     0.026 C
HETATM   25  C14 UNL     1      95.258  60.165  16.084  1.00  0.00     0.002 C
HETATM   26  C15 UNL     1      96.236  59.024  16.243  1.00  0.00     0.000 C
HETATM   27  C16 UNL     1      97.540  59.448  16.823  1.00  0.00     0.002 C
HETATM   28  C17 UNL     1      97.678  60.851  17.248  1.00  0.00     0.026 C
ENDBRANCH   6  23
TORSDOF 4
ENDMDL