MODEL 1
REMARK VINA RESULT: -7.940080599      0.000      0.000
REMARK  4 active torsions:
REMARK  status: ('A' for Active; 'I' for Inactive)
REMARK       I    between atoms: N1_2  and  C2_4
REMARK       I    between atoms: C2_4  and  N2_6
REMARK    1  A    between atoms: C7_16  and  S2_17
REMARK    2  A    between atoms: S2_17  and  C8_18
REMARK    3  A    between atoms: C8_18  and  C9_19
REMARK    4  A    between atoms: C9_19  and  C10_20
ROOT
HETATM    1  C1  UNL     1      91.084  67.206  17.849  1.00  0.00     0.151 C
HETATM    2  N1  UNL     1      92.111  66.936  16.870  1.00  0.00    -0.347 N
ATOM      3  H1  UNL     1      92.631  67.724  16.483  1.00  0.00     0.163 HD
HETATM    4  C2  UNL     1      92.438  65.603  16.412  1.00  0.00     0.323 C
HETATM    5  O1  UNL     1      91.737  64.707  16.952  1.00  0.00    -0.247 OA
HETATM    6  N2  UNL     1      93.403  65.264  15.467  1.00  0.00    -0.294 N
HETATM    7  C3  UNL     1      94.449  66.199  15.059  1.00  0.00     0.068 A
HETATM    8  C4  UNL     1      94.399  66.481  13.683  1.00  0.00     0.013 A
HETATM    9  S1  UNL     1      95.507  67.723  13.493  1.00  0.00    -0.074 SA
HETATM   10  C5  UNL     1      96.036  67.884  15.113  1.00  0.00     0.090 A
HETATM   11  N3  UNL     1      96.954  68.706  15.702  1.00  0.00    -0.346 N
ATOM     12  H3  UNL     1      97.453  69.396  15.141  1.00  0.00     0.167 HD
HETATM   13  C6  UNL     1      97.200  68.608  17.017  1.00  0.00     0.182 A
HETATM   14  N4  UNL     1      96.528  67.696  17.679  1.00  0.00    -0.346 N
ATOM     15  H4  UNL     1      96.720  67.622  18.678  1.00  0.00     0.167 HD
HETATM   16  C7  UNL     1      95.610  66.849  17.174  1.00  0.00     0.086 A
HETATM   17  C13 UNL     1      95.307  66.921  15.800  1.00  0.00     0.059 A
HETATM   18  C14 UNL     1      93.473  65.608  12.845  1.00  0.00     0.050 C
HETATM   19  C15 UNL     1      93.693  64.170  13.295  1.00  0.00     0.030 C
HETATM   20  C16 UNL     1      93.336  64.018  14.771  1.00  0.00     0.091 C
HETATM   21  C17 UNL     1      91.919  63.477  14.768  1.00  0.00     0.033 C
ENDROOT
BRANCH  16  22
HETATM   22  S2  UNL     1      95.000  65.538  18.215  1.00  0.00    -0.111 SA
BRANCH  22  23
HETATM   23  C8  UNL     1      95.912  65.506  19.764  1.00  0.00     0.081 C
BRANCH  23  24
HETATM   24  C9  UNL     1      96.549  64.159  20.032  1.00  0.00     0.014 C
BRANCH  24  25
HETATM   25  C10 UNL     1      96.378  63.803  21.515  1.00  0.00    -0.022 C
HETATM   26  C11 UNL     1      97.341  64.689  22.284  1.00  0.00     0.009 C
HETATM   27  C12 UNL     1      96.786  62.360  21.764  1.00  0.00     0.009 C
ENDBRANCH  24  25
ENDBRANCH  23  24
ENDBRANCH  22  23
ENDBRANCH  16  22
TORSDOF 4
ENDMDL