MODEL 5
REMARK VINA RESULT: -6.690444629      4.358      7.711
REMARK  4 active torsions:
REMARK  status: ('A' for Active; 'I' for Inactive)
REMARK    1  A    between atoms: O1_2  and  C2_3
REMARK    2  A    between atoms: C6_7  and  O2_8
REMARK    3  A    between atoms: C8_10  and  O3_11
REMARK    4  A    between atoms: C18_25  and  C19_26
ROOT
HETATM    1  C2  UNL     1      94.587  61.203  15.975  1.00  0.00     0.107 A
HETATM    2  C3  UNL     1      94.646  62.319  16.778  1.00  0.00     0.077 A
HETATM    3  C4  UNL     1      94.110  63.530  16.325  1.00  0.00     0.090 A
HETATM    4  C5  UNL     1      93.529  63.584  15.072  1.00  0.00     0.083 A
HETATM    5  C6  UNL     1      93.486  62.448  14.290  1.00  0.00     0.121 A
HETATM    6  C8  UNL     1      94.005  61.241  14.712  1.00  0.00     0.136 A
HETATM    7  C10 UNL     1      93.086  64.967  14.924  1.00  0.00     0.200 C
HETATM    8  O4  UNL     1      92.265  65.290  14.017  1.00  0.00    -0.289 OA
HETATM    9  C11 UNL     1      93.758  65.747  15.961  1.00  0.00     0.138 C
HETATM   10  C12 UNL     1      95.075  66.238  15.416  1.00  0.00     0.062 C
HETATM   11  C13 UNL     1      94.973  67.436  14.547  1.00  0.00    -0.006 C
HETATM   12  C14 UNL     1      95.496  67.032  13.160  1.00  0.00     0.021 C
HETATM   13  C15 UNL     1      95.929  68.544  15.017  1.00  0.00     0.021 C
HETATM   14  C16 UNL     1      93.639  68.036  14.455  1.00  0.00    -0.012 C
HETATM   15  N1  UNL     1      93.419  68.843  13.466  1.00  0.00    -0.405 N
ATOM     16  H11 UNL     1      92.491  69.259  13.402  1.00  0.00     0.155 HD
ATOM     17  H12 UNL     1      94.186  69.010  12.814  1.00  0.00     0.155 HD
HETATM   18  C17 UNL     1      92.523  67.793  15.404  1.00  0.00     0.061 C
HETATM   19  C18 UNL     1      92.997  66.898  16.501  1.00  0.00     0.037 C
HETATM   20  O5  UNL     1      94.050  64.771  16.941  1.00  0.00    -0.330 OA
ENDROOT
BRANCH  19  21
HETATM   21  C19 UNL     1      91.885  66.537  17.441  1.00  0.00    -0.015 C
HETATM   22  C20 UNL     1      90.550  67.030  16.995  1.00  0.00     0.010 C
HETATM   23  C21 UNL     1      92.118  66.961  18.853  1.00  0.00     0.010 C
ENDBRANCH  19  21
BRANCH   5  24
HETATM   24  O2  UNL     1      92.905  62.487  13.029  1.00  0.00    -0.352 OA
HETATM   25  C7  UNL     1      93.563  62.901  11.870  1.00  0.00     0.210 C
ENDBRANCH   5  24
BRANCH   6  26
HETATM   26  O3  UNL     1      93.934  60.143  13.892  1.00  0.00    -0.351 OA
HETATM   27  C9  UNL     1      94.976  59.707  13.049  1.00  0.00     0.210 C
ENDBRANCH   6  26
BRANCH   1  28
HETATM   28  O1  UNL     1      95.102  59.968  16.369  1.00  0.00    -0.353 OA
HETATM   29  C1  UNL     1      95.463  59.823  17.745  1.00  0.00     0.210 C
ENDBRANCH   1  28
TORSDOF 4
ENDMDL