MODEL 4
REMARK VINA RESULT: -9.369442322      5.062      7.509
REMARK  6 active torsions:
REMARK  status: ('A' for Active; 'I' for Inactive)
REMARK    1  A    between atoms: C2_2  and  O1_3
REMARK    2  A    between atoms: O1_3  and  C3_4
REMARK    3  A    between atoms: C8_9  and  O2_10
REMARK    4  A    between atoms: C15_20  and  O5_21
REMARK    5  A    between atoms: O5_21  and  C16_22
REMARK    6  A    between atoms: C16_22  and  C17_23
ROOT
HETATM    1  C3  UNL     1      95.796  66.227  16.692  1.00  0.00     0.158 C
HETATM    2  C4  UNL     1      96.858  67.325  16.824  1.00  0.00     0.042 C
HETATM    3  C5  UNL     1      96.868  67.594  18.336  1.00  0.00     0.045 C
HETATM    4  C6  UNL     1      96.682  66.231  18.886  1.00  0.00    -0.010 A
HETATM    5  C7  UNL     1      96.075  65.454  17.943  1.00  0.00     0.014 A
HETATM    6  C8  UNL     1      95.782  64.108  18.201  1.00  0.00     0.088 A
HETATM    7  C9  UNL     1      96.096  63.539  19.402  1.00  0.00     0.041 A
HETATM    8  C10 UNL     1      95.787  62.192  19.619  1.00  0.00    -0.040 A
HETATM    9  C11 UNL     1      95.132  61.327  18.621  1.00  0.00     0.049 C
HETATM   10  C12 UNL     1      96.152  61.721  20.877  1.00  0.00     0.090 A
HETATM   11  C13 UNL     1      96.761  62.544  21.792  1.00  0.00     0.288 A
HETATM   12  O3  UNL     1      97.101  62.124  22.948  1.00  0.00    -0.260 OA
HETATM   13  O4  UNL     1      97.027  63.800  21.532  1.00  0.00    -0.272 OA
HETATM   14  C14 UNL     1      96.710  64.331  20.351  1.00  0.00     0.127 A
HETATM   15  C15 UNL     1      97.007  65.660  20.116  1.00  0.00     0.110 A
ENDROOT
BRANCH  15  16
HETATM   16  O5  UNL     1      97.618  66.447  21.060  1.00  0.00    -0.347 OA
BRANCH  16  17
HETATM   17  C16 UNL     1      99.019  66.672  21.102  1.00  0.00     0.180 C
BRANCH  17  18
HETATM   18  C17 UNL     1      99.357  67.073  22.531  1.00  0.00     0.010 C
HETATM   19  C18 UNL     1      98.067  67.200  23.278  1.00  0.00     0.007 C
HETATM   20  C19 UNL     1      98.233  67.173  24.774  1.00  0.00     0.000 C
HETATM   21  C20 UNL     1      98.861  65.836  25.110  1.00  0.00     0.000 C
HETATM   22  C21 UNL     1     100.253  65.861  24.544  1.00  0.00     0.000 C
HETATM   23  C22 UNL     1     100.304  66.064  23.076  1.00  0.00     0.007 C
ENDBRANCH  17  18
ENDBRANCH  16  17
ENDBRANCH  15  16
BRANCH   1  24
HETATM   24  O1  UNL     1      94.531  66.746  16.771  1.00  0.00    -0.381 OA
BRANCH  24  25
HETATM   25  C2  UNL     1      93.941  67.103  15.586  1.00  0.00     0.164 C
HETATM   26  C1  UNL     1      94.097  65.902  14.647  1.00  0.00     0.033 C
ENDBRANCH  24  25
ENDBRANCH   1  24
BRANCH   6  27
HETATM   27  O2  UNL     1      95.173  63.345  17.238  1.00  0.00    -0.359 OA
ATOM     28  H2  UNL     1      94.607  62.624  17.491  1.00  0.00     0.217 HD
ENDBRANCH   6  27
TORSDOF 6
ENDMDL