MODEL 2
REMARK VINA RESULT: -8.442353390      4.362      7.644
REMARK  5 active torsions:
REMARK  status: ('A' for Active; 'I' for Inactive)
REMARK    1  A    between atoms: O1_2  and  C2_3
REMARK    2  A    between atoms: C4_5  and  N1_6
REMARK    3  A    between atoms: N1_6  and  C5_8
REMARK    4  A    between atoms: C8_11  and  C9_12
REMARK    5  A    between atoms: C9_12  and  N2_13
ROOT
HETATM    1  C5  UNL     1      97.316  67.398  19.465  1.00  0.00     0.149 A
HETATM    2  C6  UNL     1      97.674  67.826  18.213  1.00  0.00     0.059 A
HETATM    3  C7  UNL     1      96.577  67.556  17.423  1.00  0.00     0.043 A
HETATM    4  C8  UNL     1      95.601  66.981  18.209  1.00  0.00     0.093 A
HETATM    5  O2  UNL     1      96.123  66.923  19.411  1.00  0.00    -0.292 OA
ENDROOT
BRANCH   4   6
HETATM    6  C9  UNL     1      94.259  66.532  17.769  1.00  0.00     0.128 C
BRANCH   6   7
HETATM    7  N2  UNL     1      94.174  65.945  16.503  1.00  0.00    -0.358 N
HETATM    8  C10 UNL     1      94.659  64.624  16.425  1.00  0.00     0.064 C
HETATM    9  C11 UNL     1      93.799  63.604  17.136  1.00  0.00     0.044 C
HETATM   10  C12 UNL     1      92.403  63.513  16.619  1.00  0.00     0.005 C
HETATM   11  C13 UNL     1      91.562  64.711  16.852  1.00  0.00     0.003 C
HETATM   12  C14 UNL     1      91.756  65.886  16.009  1.00  0.00     0.031 C
HETATM   13  C15 UNL     1      93.127  66.311  15.642  1.00  0.00     0.036 C
HETATM   14  C16 UNL     1      93.074  67.828  15.450  1.00  0.00     0.031 C
HETATM   15  C20 UNL     1      93.426  65.788  14.234  1.00  0.00     0.031 C
HETATM   16  C17 UNL     1      94.266  68.405  14.784  1.00  0.00     0.002 C
HETATM   17  C18 UNL     1      94.494  67.789  13.407  1.00  0.00     0.000 C
HETATM   18  C19 UNL     1      94.719  66.297  13.694  1.00  0.00     0.002 C
ENDBRANCH   6   7
ENDBRANCH   4   6
BRANCH   1  19
HETATM   19  N1  UNL     1      98.173  67.490  20.618  1.00  0.00    -0.330 N
ATOM     20  H1  UNL     1      98.865  68.234  20.696  1.00  0.00     0.168 HD
BRANCH  19  21
HETATM   21  C4  UNL     1      98.042  66.592  21.568  1.00  0.00     0.096 A
HETATM   22  C3  UNL     1      98.502  66.670  22.856  1.00  0.00     0.095 A
HETATM   23  C2  UNL     1      98.249  65.625  23.654  1.00  0.00     0.150 A
HETATM   24  N3  UNL     1      97.575  64.596  23.135  1.00  0.00    -0.305 N
HETATM   25  S1  UNL     1      97.285  65.063  21.548  1.00  0.00     0.006 SA
ATOM     26  H3  UNL     1      97.299  63.728  23.596  1.00  0.00     0.176 HD
BRANCH  23  27
HETATM   27  O1  UNL     1      98.673  65.585  25.011  1.00  0.00    -0.340 OA
HETATM   28  C1  UNL     1      99.442  66.599  25.595  1.00  0.00     0.211 C
ENDBRANCH  23  27
ENDBRANCH  19  21
ENDBRANCH   1  19
TORSDOF 5
ENDMDL