MODEL 4
REMARK VINA RESULT: -9.091226096      2.414      7.730
REMARK  5 active torsions:
REMARK  status: ('A' for Active; 'I' for Inactive)
REMARK    1  A    between atoms: C4_4  and  C5_5
REMARK    2  A    between atoms: C5_5  and  N1_6
REMARK    3  A    between atoms: C5_5  and  C16_22
REMARK       I    between atoms: N1_6  and  C6_8
REMARK    4  A    between atoms: C6_8  and  C7_10
REMARK    5  A    between atoms: N3_15  and  C10_16
ROOT
HETATM    1  N1  UNL     1      94.932  65.819  18.342  1.00  0.00    -0.346 N
ATOM      2  H1  UNL     1      94.578  66.378  19.117  1.00  0.00     0.163 HD
HETATM    3  C6  UNL     1      96.042  65.013  18.629  1.00  0.00     0.256 C
HETATM    4  O1  UNL     1      96.588  64.295  17.737  1.00  0.00    -0.267 OA
ENDROOT
BRANCH   1   5
HETATM    5  C5  UNL     1      94.230  65.961  17.103  1.00  0.00     0.140 C
BRANCH   5   6
HETATM    6  C4  UNL     1      92.763  65.899  17.280  1.00  0.00     0.058 A
HETATM    7  C3  UNL     1      91.989  66.888  17.879  1.00  0.00     0.063 A
HETATM    8  C2  UNL     1      90.706  66.436  17.837  1.00  0.00     0.074 A
HETATM    9  C1  UNL     1      89.487  67.151  18.362  1.00  0.00     0.079 C
HETATM   10  O2  UNL     1      90.709  65.267  17.260  1.00  0.00    -0.243 OA
HETATM   11  N4  UNL     1      91.904  64.932  16.924  1.00  0.00    -0.263 N
ATOM     12  H4  UNL     1      92.160  64.063  16.458  1.00  0.00     0.194 HD
ENDBRANCH   5   6
BRANCH   5  13
HETATM   13  C16 UNL     1      94.649  67.163  16.276  1.00  0.00     0.014 C
HETATM   14  C17 UNL     1      95.948  67.688  16.783  1.00  0.00     0.007 C
HETATM   15  C18 UNL     1      97.115  67.328  15.880  1.00  0.00     0.000 C
HETATM   16  C19 UNL     1      96.978  68.024  14.542  1.00  0.00     0.000 C
HETATM   17  C20 UNL     1      95.537  67.884  14.103  1.00  0.00     0.000 C
HETATM   18  C21 UNL     1      94.874  66.711  14.839  1.00  0.00     0.007 C
ENDBRANCH   5  13
ENDBRANCH   1   5
BRANCH   3  19
HETATM   19  C7  UNL     1      96.675  64.914  19.934  1.00  0.00     0.079 A
HETATM   20  C8  UNL     1      96.683  63.873  20.809  1.00  0.00     0.040 A
HETATM   21  C9  UNL     1      96.111  62.485  20.685  1.00  0.00     0.071 C
HETATM   22  N2  UNL     1      97.363  64.282  21.896  1.00  0.00    -0.301 N
HETATM   23  N3  UNL     1      97.799  65.513  21.795  1.00  0.00    -0.287 N
ATOM     24  H2  UNL     1      97.521  63.695  22.715  1.00  0.00     0.187 HD
HETATM   25  C14 UNL     1      97.390  65.938  20.587  1.00  0.00     0.043 A
HETATM   26  C15 UNL     1      97.604  67.251  19.962  1.00  0.00     0.071 C
BRANCH  23  27
HETATM   27  C10 UNL     1      98.555  66.253  22.768  1.00  0.00     0.043 C
HETATM   28  C11 UNL     1      98.818  65.313  23.963  1.00  0.00     0.039 C
HETATM   29  C12 UNL     1      97.770  67.388  23.396  1.00  0.00     0.039 C
HETATM   30  C13 UNL     1      99.906  66.683  22.301  1.00  0.00     0.039 C
ENDBRANCH  23  27
ENDBRANCH   3  19
TORSDOF 5
ENDMDL