MODEL 1
REMARK VINA RESULT: -7.938590050      0.000      0.000
REMARK  7 active torsions:
REMARK  status: ('A' for Active; 'I' for Inactive)
REMARK    1  A    between atoms: C4_4  and  C5_5
REMARK    2  A    between atoms: C6_6  and  C7_7
REMARK    3  A    between atoms: C7_7  and  C8_8
REMARK    4  A    between atoms: C9_9  and  C10_10
REMARK    5  A    between atoms: C15_20  and  O1_21
REMARK    6  A    between atoms: C18_25  and  O2_27
REMARK    7  A    between atoms: C20_29  and  O3_30
ROOT
HETATM    1  C1  UNL     1      12.653  18.339  13.495  1.00  0.00     0.022 C
HETATM    2  C2  UNL     1      13.343  18.754  14.791  1.00  0.00     0.005 C
HETATM    3  C3  UNL     1      11.975  19.645  15.353  1.00  0.00     0.022 C
HETATM    4  C4  UNL     1      13.501  18.003  15.758  1.00  0.00    -0.065 C
HETATM    5  C12 UNL     1      15.096  17.332  15.163  1.00  0.00     0.029 C
HETATM    6  C13 UNL     1      14.569  16.172  14.476  1.00  0.00     0.012 C
HETATM    7  C14 UNL     1      15.450  16.017  13.245  1.00  0.00     0.033 C
HETATM    8  C15 UNL     1      16.097  17.368  13.063  1.00  0.00     0.130 C
HETATM    9  C16 UNL     1      15.803  18.196  14.299  1.00  0.00     0.022 C
HETATM   10  C17 UNL     1      17.261  18.274  14.960  1.00  0.00     0.022 C
HETATM   11  C18 UNL     1      15.516  19.611  14.026  1.00  0.00     0.091 C
HETATM   12  C19 UNL     1      15.474  20.004  12.531  1.00  0.00     0.049 C
HETATM   13  C20 UNL     1      14.186  20.003  14.563  1.00  0.00     0.165 C
ENDROOT
BRANCH   4  14
HETATM   14  C5  UNL     1      13.690  17.142  16.856  1.00  0.00     0.000 C
HETATM   15  C6  UNL     1      13.110  16.648  17.879  1.00  0.00    -0.023 C
BRANCH  15  16
HETATM   16  C7  UNL     1      13.754  15.562  18.899  1.00  0.00     0.054 C
BRANCH  16  17
HETATM   17  C8  UNL     1      14.867  16.066  19.091  1.00  0.00    -0.021 C
HETATM   18  C9  UNL     1      15.312  16.433  20.389  1.00  0.00     0.028 C
BRANCH  18  19
HETATM   19  C10 UNL     1      16.609  16.996  20.582  1.00  0.00     0.062 A
HETATM   20  C11 UNL     1      17.277  17.770  19.631  1.00  0.00     0.135 A
HETATM   21  N1  UNL     1      18.403  18.211  20.146  1.00  0.00    -0.293 N
HETATM   22  N2  UNL     1      18.521  17.767  21.394  1.00  0.00    -0.023 NA
ATOM     23  H1  UNL     1      19.080  18.802  19.664  1.00  0.00     0.183 HD
HETATM   24  N3  UNL     1      17.416  17.018  21.660  1.00  0.00    -0.283 N
ATOM     25  H3  UNL     1      17.227  16.544  22.543  1.00  0.00     0.184 HD
ENDBRANCH  18  19
ENDBRANCH  16  17
ENDBRANCH  15  16
ENDBRANCH   4  14
BRANCH  13  26
HETATM   26  O3  UNL     1      13.556  20.903  13.785  1.00  0.00    -0.391 OA
ATOM     27  H3  UNL     1      13.138  21.586  14.295  1.00  0.00     0.210 HD
ENDBRANCH  13  26
BRANCH  11  28
HETATM   28  O2  UNL     1      16.452  20.480  14.571  1.00  0.00    -0.387 OA
ATOM     29  H2  UNL     1      16.463  21.334  14.154  1.00  0.00     0.210 HD
ENDBRANCH  11  28
BRANCH   8  30
HETATM   30  O1  UNL     1      17.455  17.122  12.827  1.00  0.00    -0.395 OA
ATOM     31  H1  UNL     1      17.583  17.214  11.890  1.00  0.00     0.210 HD
ENDBRANCH   8  30
TORSDOF 7
ENDMDL