MODEL 1
REMARK VINA RESULT: -6.397194954      0.000      0.000
REMARK  6 active torsions:
REMARK  status: ('A' for Active; 'I' for Inactive)
REMARK    1  A    between atoms: C5_5  and  C6_6
REMARK    2  A    between atoms: C6_6  and  S1_7
REMARK    3  A    between atoms: C9_12  and  O2_13
REMARK    4  A    between atoms: C11_16  and  C12_17
REMARK    5  A    between atoms: C12_17  and  O3_18
REMARK    6  A    between atoms: C13_20  and  O4_21
ROOT
HETATM    1  C1  UNL     1      16.497  17.846  15.431  1.00  0.00     0.018 C
HETATM    2  C2  UNL     1      15.135  18.062  14.766  1.00  0.00    -0.010 C
HETATM    3  C3  UNL     1      15.004  19.586  14.615  1.00  0.00     0.015 C
HETATM    4  C4  UNL     1      16.330  20.044  13.993  1.00  0.00     0.034 C
HETATM    5  C5  UNL     1      16.489  19.404  12.656  1.00  0.00     0.132 C
HETATM    6  O1  UNL     1      16.278  18.057  12.635  1.00  0.00    -0.379 OA
HETATM    7  C7  UNL     1      15.200  17.578  13.309  1.00  0.00     0.133 C
HETATM    8  C8  UNL     1      15.310  16.083  13.391  1.00  0.00     0.065 C
HETATM    9  C9  UNL     1      14.102  15.471  13.967  1.00  0.00     0.126 C
HETATM   10  C10 UNL     1      13.246  16.384  14.837  1.00  0.00     0.032 C
HETATM   11  C11 UNL     1      12.336  15.593  15.683  1.00  0.00     0.045 C
HETATM   12  C13 UNL     1      12.434  15.697  17.157  1.00  0.00     0.124 C
HETATM   13  C14 UNL     1      13.425  16.622  17.736  1.00  0.00     0.033 C
HETATM   14  C15 UNL     1      14.588  16.818  16.800  1.00  0.00     0.013 C
HETATM   15  C16 UNL     1      14.033  17.450  15.536  1.00  0.00    -0.028 C
HETATM   16  C17 UNL     1      13.100  18.556  15.981  1.00  0.00     0.016 C
ENDROOT
BRANCH   5  17
HETATM   17  C6  UNL     1      15.686  20.152  11.583  1.00  0.00     0.118 C
BRANCH  17  18
HETATM   18  S1  UNL     1      16.634  20.141  10.024  1.00  0.00    -0.083 SA
HETATM   19  S2  UNL     1      16.410  18.283   9.025  1.00  0.00    -0.013 SA
ENDBRANCH  17  18
ENDBRANCH   5  17
BRANCH   9  20
HETATM   20  O2  UNL     1      14.399  14.293  14.693  1.00  0.00    -0.395 OA
ATOM     21  H2  UNL     1      13.738  14.103  15.349  1.00  0.00     0.210 HD
ENDBRANCH   9  20
BRANCH  11  22
HETATM   22  C12 UNL     1      10.860  15.737  15.258  1.00  0.00     0.171 C
BRANCH  22  23
HETATM   23  O3  UNL     1      10.029  15.762  16.364  1.00  0.00    -0.400 OA
ATOM     24  H3  UNL     1      10.339  15.166  17.035  1.00  0.00     0.209 HD
ENDBRANCH  22  23
ENDBRANCH  11  22
BRANCH  12  25
HETATM   25  O4  UNL     1      12.594  14.432  17.781  1.00  0.00    -0.395 OA
ATOM     26  H4  UNL     1      12.247  14.416  18.665  1.00  0.00     0.210 HD
ENDBRANCH  12  25
TORSDOF 6
ENDMDL