MODEL 2
REMARK VINA RESULT: -7.977243913      2.627      4.558
REMARK  4 active torsions:
REMARK  status: ('A' for Active; 'I' for Inactive)
REMARK    1  A    between atoms: C7_7  and  N1_8
REMARK    2  A    between atoms: C7_7  and  N2_12
REMARK       I    between atoms: N2_12  and  C8_14
REMARK    3  A    between atoms: C8_14  and  C9_16
REMARK    4  A    between atoms: C10_17  and  N3_18
REMARK       I    between atoms: N3_18  and  C11_20
ROOT
HETATM    1  N2  UNL     1      15.037  18.078  16.106  1.00  0.00    -0.324 N
ATOM      2  H2  UNL     1      15.421  18.955  16.457  1.00  0.00     0.165 HD
HETATM    3  C8  UNL     1      14.939  16.955  16.924  1.00  0.00     0.257 C
HETATM    4  O1  UNL     1      14.429  15.929  16.362  1.00  0.00    -0.267 OA
ENDROOT
BRANCH   3   5
HETATM    5  C9  UNL     1      15.352  16.843  18.341  1.00  0.00     0.073 A
HETATM    6  C10 UNL     1      14.454  16.274  19.257  1.00  0.00     0.095 A
HETATM    7  S1  UNL     1      15.317  16.291  20.733  1.00  0.00    -0.075 SA
HETATM    8  C12 UNL     1      16.752  16.988  20.213  1.00  0.00    -0.008 A
HETATM    9  C13 UNL     1      16.551  17.206  18.865  1.00  0.00    -0.026 A
HETATM   10  C17 UNL     1      18.067  17.412  20.822  1.00  0.00     0.047 C
HETATM   11  C14 UNL     1      17.825  17.773  18.269  1.00  0.00     0.041 C
HETATM   12  C15 UNL     1      18.181  19.064  18.973  1.00  0.00     0.005 C
HETATM   13  C16 UNL     1      18.343  18.846  20.462  1.00  0.00     0.005 C
BRANCH   6  14
HETATM   14  N3  UNL     1      13.105  15.798  19.076  1.00  0.00    -0.294 N
HETATM   15  C11 UNL     1      12.932  14.356  19.058  1.00  0.00     0.288 C
HETATM   16  O2  UNL     1      13.909  13.614  19.194  1.00  0.00    -0.629 OA
HETATM   17  O3  UNL     1      11.676  13.838  18.889  1.00  0.00    -0.629 OA
ATOM     18  H3  UNL     1      12.318  16.437  18.967  1.00  0.00     0.172 HD
ENDBRANCH   6  14
ENDBRANCH   3   5
BRANCH   1  19
HETATM   19  C7  UNL     1      14.563  17.950  14.706  1.00  0.00     0.205 C
HETATM   20  C2  UNL     1      14.529  19.311  14.050  1.00  0.00     0.004 C
HETATM   21  C1  UNL     1      15.870  19.995  14.051  1.00  0.00     0.019 C
HETATM   22  C3  UNL     1      14.030  19.150  12.653  1.00  0.00     0.019 C
HETATM   23  C4  UNL     1      13.507  20.035  14.866  1.00  0.00     0.013 C
HETATM   24  C5  UNL     1      12.478  18.990  15.143  1.00  0.00     0.005 C
HETATM   25  C6  UNL     1      13.087  17.651  14.781  1.00  0.00     0.062 C
BRANCH  19  26
HETATM   26  N1  UNL     1      15.305  16.958  14.025  1.00  0.00    -0.052 N
ATOM     27  H13 UNL     1      16.245  17.301  13.828  1.00  0.00     0.277 HD
ATOM     28  H12 UNL     1      15.520  16.188  14.660  1.00  0.00     0.277 HD
ATOM     29  H11 UNL     1      14.881  16.595  13.172  1.00  0.00     0.277 HD
ENDBRANCH  19  26
ENDBRANCH   1  19
TORSDOF 4
ENDMDL