MODEL 2
REMARK VINA RESULT: -8.052566776      1.926      8.636
REMARK  6 active torsions:
REMARK  status: ('A' for Active; 'I' for Inactive)
REMARK    1  A    between atoms: C2_2  and  N1_4
REMARK       I    between atoms: N1_4  and  C4_6
REMARK    2  A    between atoms: C4_6  and  C5_8
REMARK    3  A    between atoms: C12_15  and  O2_16
REMARK    4  A    between atoms: N2_18  and  C13_19
REMARK    5  A    between atoms: C17_23  and  O3_24
REMARK    6  A    between atoms: C19_27  and  O4_28
ROOT
HETATM    1  C5  UNL     1      12.994  16.806  16.921  1.00  0.00     0.095 C
HETATM    2  C6  UNL     1      12.091  15.747  16.323  1.00  0.00     0.037 C
HETATM    3  C7  UNL     1      13.028  15.067  15.351  1.00  0.00     0.011 C
HETATM    4  C8  UNL     1      13.970  16.171  14.914  1.00  0.00     0.011 C
HETATM    5  C9  UNL     1      13.427  17.388  15.565  1.00  0.00     0.037 C
HETATM    6  C10 UNL     1      12.052  17.643  15.001  1.00  0.00     0.009 A
HETATM    7  C11 UNL     1      11.233  16.630  15.478  1.00  0.00     0.009 A
HETATM    8  C12 UNL     1       9.987  16.867  14.969  1.00  0.00     0.152 A
HETATM    9  N2  UNL     1      10.006  17.979  14.200  1.00  0.00    -0.303 N
HETATM   10  C19 UNL     1      11.259  18.455  14.217  1.00  0.00     0.152 A
ENDROOT
BRANCH   9  11
HETATM   11  C13 UNL     1       8.849  18.488  13.525  1.00  0.00     0.096 C
HETATM   12  C14 UNL     1       8.837  18.136  12.049  1.00  0.00     0.026 C
HETATM   13  C15 UNL     1       7.399  18.356  11.576  1.00  0.00     0.004 C
HETATM   14  C16 UNL     1       7.036  19.800  11.755  1.00  0.00     0.032 C
HETATM   15  C17 UNL     1       7.280  20.315  13.145  1.00  0.00     0.120 C
HETATM   16  C18 UNL     1       8.675  19.966  13.651  1.00  0.00     0.057 C
BRANCH  15  17
HETATM   17  O3  UNL     1       7.104  21.701  13.110  1.00  0.00    -0.396 OA
ATOM     18  H3  UNL     1       6.772  21.921  12.247  1.00  0.00     0.210 HD
ENDBRANCH  15  17
ENDBRANCH   9  11
BRANCH   8  19
HETATM   19  O2  UNL     1       8.849  16.066  15.210  1.00  0.00    -0.345 OA
ATOM     20  H2  UNL     1       8.845  15.265  15.719  1.00  0.00     0.219 HD
ENDBRANCH   8  19
BRANCH  10  21
HETATM   21  O4  UNL     1      11.681  19.584  13.550  1.00  0.00    -0.345 OA
ATOM     22  H4  UNL     1      11.254  20.433  13.573  1.00  0.00     0.219 HD
ENDBRANCH  10  21
BRANCH   1  23
HETATM   23  C4  UNL     1      14.084  16.308  17.736  1.00  0.00     0.223 C
HETATM   24  N1  UNL     1      15.213  17.093  18.098  1.00  0.00    -0.357 N
ATOM     25  H1  UNL     1      15.257  18.056  17.764  1.00  0.00     0.162 HD
HETATM   26  O1  UNL     1      14.066  15.131  18.163  1.00  0.00    -0.273 OA
BRANCH  24  27
HETATM   27  C2  UNL     1      16.296  16.606  18.907  1.00  0.00     0.076 C
HETATM   28  C1  UNL     1      17.570  17.344  18.508  1.00  0.00     0.032 C
HETATM   29  C3  UNL     1      16.092  16.844  20.380  1.00  0.00     0.032 C
ENDBRANCH  24  27
ENDBRANCH   1  23
TORSDOF 6
ENDMDL