MODEL 5
REMARK VINA RESULT: -8.242774645      0.629      1.195
REMARK  6 active torsions:
REMARK  status: ('A' for Active; 'I' for Inactive)
REMARK    1  A    between atoms: C5_5  and  N1_6
REMARK    2  A    between atoms: N1_6  and  C6_8
REMARK    3  A    between atoms: C8_14  and  N4_15
REMARK    4  A    between atoms: C14_21  and  C15_22
REMARK    5  A    between atoms: C15_22  and  O1_23
REMARK    6  A    between atoms: N5_25  and  O2_27
ROOT
HETATM    1  C6  UNL     1      16.265  18.840  14.969  1.00  0.00     0.136 A
HETATM    2  N2  UNL     1      17.123  19.544  15.713  1.00  0.00    -0.284 N
ATOM      3  H2  UNL     1      17.697  20.311  15.364  1.00  0.00     0.188 HD
HETATM    4  N3  UNL     1      17.126  19.110  16.960  1.00  0.00    -0.295 N
ATOM      5  H3  UNL     1      17.703  19.498  17.706  1.00  0.00     0.187 HD
HETATM    6  C7  UNL     1      16.248  18.068  17.117  1.00  0.00     0.097 A
HETATM    7  C8  UNL     1      15.805  17.234  18.079  1.00  0.00     0.082 A
HETATM    8  C14 UNL     1      14.868  16.304  17.733  1.00  0.00     0.087 A
HETATM    9  S1  UNL     1      14.629  16.623  16.054  1.00  0.00    -0.077 SA
HETATM   10  C16 UNL     1      15.720  17.914  15.865  1.00  0.00     0.081 A
ENDROOT
BRANCH   1  11
HETATM   11  N1  UNL     1      15.957  18.933  13.720  1.00  0.00    -0.369 N
ATOM     12  H1  UNL     1      15.312  19.650  13.387  1.00  0.00     0.161 HD
BRANCH  11  13
HETATM   13  C5  UNL     1      16.555  17.993  12.814  1.00  0.00     0.083 C
HETATM   14  C4  UNL     1      16.283  18.323  11.367  1.00  0.00     0.025 C
HETATM   15  C3  UNL     1      17.421  17.683  10.630  1.00  0.00     0.006 C
HETATM   16  C2  UNL     1      18.416  17.202  11.635  1.00  0.00    -0.017 C
HETATM   17  C1  UNL     1      19.842  17.360  11.216  1.00  0.00     0.010 C
HETATM   18  C17 UNL     1      18.079  18.054  12.856  1.00  0.00     0.029 C
ENDBRANCH  11  13
ENDBRANCH   1  11
BRANCH   7  19
HETATM   19  N4  UNL     1      16.283  17.288  19.450  1.00  0.00    -0.378 N
HETATM   20  C9  UNL     1      15.404  17.118  20.578  1.00  0.00     0.123 C
HETATM   21  C10 UNL     1      16.059  16.220  21.641  1.00  0.00     0.020 C
HETATM   22  C11 UNL     1      17.437  16.713  21.967  1.00  0.00     0.003 C
HETATM   23  C12 UNL     1      18.276  16.624  20.709  1.00  0.00     0.020 C
HETATM   24  C13 UNL     1      17.710  17.498  19.605  1.00  0.00     0.123 C
ENDBRANCH   7  19
BRANCH   8  25
HETATM   25  C15 UNL     1      14.193  15.259  18.503  1.00  0.00     0.179 C
HETATM   26  N5  UNL     1      13.029  15.485  18.981  1.00  0.00    -0.246 N
ATOM     27  H5  UNL     1      12.553  14.761  19.519  1.00  0.00     0.196 HD
BRANCH  25  28
HETATM   28  O1  UNL     1      14.743  14.018  18.754  1.00  0.00    -0.344 OA
ATOM     29  H1  UNL     1      14.812  13.638  19.622  1.00  0.00     0.219 HD
ENDBRANCH  25  28
BRANCH  26  30
HETATM   30  O2  UNL     1      12.422  16.682  18.776  1.00  0.00    -0.288 OA
ATOM     31  H2  UNL     1      12.533  17.143  17.954  1.00  0.00     0.244 HD
ENDBRANCH  26  30
ENDBRANCH   8  25
TORSDOF 6
ENDMDL