MODEL 2
REMARK VINA RESULT: -6.773063100      0.887      1.040
REMARK  6 active torsions:
REMARK  status: ('A' for Active; 'I' for Inactive)
REMARK    1  A    between atoms: C2_2  and  C3_3
REMARK    2  A    between atoms: C3_3  and  C4_5
REMARK    3  A    between atoms: C4_5  and  O2_6
REMARK    4  A    between atoms: C4_5  and  C5_8
REMARK    5  A    between atoms: C14_17  and  O3_18
REMARK    6  A    between atoms: C17_22  and  O4_24
ROOT
HETATM    1  C5  UNL     1      11.931  18.386  14.758  1.00  0.00    -0.007 C
HETATM    2  C6  UNL     1      11.917  19.479  15.804  1.00  0.00     0.018 C
HETATM    3  C7  UNL     1      11.089  17.269  15.441  1.00  0.00     0.012 C
HETATM    4  C8  UNL     1      11.795  15.933  15.366  1.00  0.00     0.002 C
HETATM    5  C9  UNL     1      13.002  16.219  16.279  1.00  0.00     0.010 C
HETATM    6  C10 UNL     1      13.957  16.949  15.338  1.00  0.00    -0.035 C
HETATM    7  C11 UNL     1      14.618  15.808  14.576  1.00  0.00     0.016 C
HETATM    8  C12 UNL     1      14.892  17.660  16.265  1.00  0.00     0.003 C
HETATM    9  C13 UNL     1      15.056  16.994  17.615  1.00  0.00     0.037 C
HETATM   10  C14 UNL     1      16.337  17.642  18.162  1.00  0.00     0.119 C
HETATM   11  C15 UNL     1      16.875  18.528  17.055  1.00  0.00     0.039 C
HETATM   12  C16 UNL     1      16.292  17.793  15.827  1.00  0.00     0.027 C
HETATM   13  C17 UNL     1      16.563  18.603  14.638  1.00  0.00     0.058 C
HETATM   14  C18 UNL     1      17.962  18.308  14.116  1.00  0.00     0.046 C
HETATM   15  C19 UNL     1      15.565  18.534  13.514  1.00  0.00     0.038 C
HETATM   16  C20 UNL     1      14.212  18.997  13.999  1.00  0.00     0.009 C
HETATM   17  C21 UNL     1      13.272  17.885  14.376  1.00  0.00     0.005 C
ENDROOT
BRANCH   1  18
HETATM   18  C4  UNL     1      11.039  18.738  13.591  1.00  0.00     0.196 C
BRANCH  18  19
HETATM   19  C3  UNL     1      10.173  19.869  13.620  1.00  0.00     0.155 C
HETATM   20  O1  UNL     1      10.404  21.015  13.244  1.00  0.00    -0.295 OA
BRANCH  19  21
HETATM   21  C2  UNL     1       8.783  19.724  14.174  1.00  0.00     0.076 C
HETATM   22  C1  UNL     1       8.181  18.527  13.417  1.00  0.00     0.013 C
ENDBRANCH  19  21
ENDBRANCH  18  19
BRANCH  18  23
HETATM   23  O2  UNL     1      11.818  18.799  12.399  1.00  0.00    -0.387 OA
ATOM     24  H2  UNL     1      11.279  18.507  11.674  1.00  0.00     0.210 HD
ENDBRANCH  18  23
ENDBRANCH   1  18
BRANCH  13  25
HETATM   25  O4  UNL     1      16.595  19.968  15.024  1.00  0.00    -0.390 OA
ATOM     26  H4  UNL     1      15.729  20.213  15.328  1.00  0.00     0.210 HD
ENDBRANCH  13  25
BRANCH  10  27
HETATM   27  O3  UNL     1      17.288  16.675  18.448  1.00  0.00    -0.396 OA
ATOM     28  H3  UNL     1      17.682  16.834  19.298  1.00  0.00     0.210 HD
ENDBRANCH  10  27
TORSDOF 6
ENDMDL