MODEL 3
REMARK VINA RESULT: -6.467443804      2.216      6.789
REMARK  5 active torsions:
REMARK  status: ('A' for Active; 'I' for Inactive)
REMARK    1  A    between atoms: C9_9  and  C10_10
REMARK    2  A    between atoms: C9_9  and  C11_13
REMARK    3  A    between atoms: C10_10  and  O1_11
REMARK    4  A    between atoms: C15_17  and  C16_18
REMARK    5  A    between atoms: C17_22  and  O5_23
ROOT
HETATM    1  C1  UNL     1      19.036  17.668   9.222  1.00  0.00     0.043 C
HETATM    2  C2  UNL     1      17.937  18.004  10.187  1.00  0.00    -0.087 C
HETATM    3  C3  UNL     1      18.105  19.016  10.999  1.00  0.00    -0.015 C
HETATM    4  C4  UNL     1      16.948  19.289  11.940  1.00  0.00    -0.022 C
HETATM    5  C5  UNL     1      15.774  19.847  11.195  1.00  0.00     0.020 C
HETATM    6  C6  UNL     1      17.484  20.412  12.789  1.00  0.00     0.013 C
HETATM    7  C7  UNL     1      16.601  20.631  13.930  1.00  0.00     0.002 C
HETATM    8  C8  UNL     1      15.518  19.632  14.147  1.00  0.00     0.013 C
HETATM    9  C9  UNL     1      15.991  18.170  14.003  1.00  0.00    -0.003 C
HETATM   10  C18 UNL     1      16.654  18.006  12.701  1.00  0.00     0.009 C
HETATM   11  C19 UNL     1      16.192  17.010  11.699  1.00  0.00     0.011 C
HETATM   12  C20 UNL     1      16.677  17.269  10.275  1.00  0.00     0.034 C
ENDROOT
BRANCH   9  13
HETATM   13  C10 UNL     1      17.088  18.125  15.059  1.00  0.00     0.175 C
BRANCH  13  14
HETATM   14  O1  UNL     1      18.288  17.626  14.678  1.00  0.00    -0.400 OA
ATOM     15  H1  UNL     1      18.790  17.161  15.336  1.00  0.00     0.209 HD
ENDBRANCH  13  14
ENDBRANCH   9  13
BRANCH   9  16
HETATM   16  C11 UNL     1      14.921  17.238  14.434  1.00  0.00     0.016 C
HETATM   17  C12 UNL     1      15.179  15.851  13.809  1.00  0.00     0.021 C
HETATM   18  C13 UNL     1      13.529  17.639  13.991  1.00  0.00     0.018 C
HETATM   19  C14 UNL     1      12.527  17.850  15.103  1.00  0.00     0.044 C
HETATM   20  C15 UNL     1      12.520  16.698  16.078  1.00  0.00     0.225 C
HETATM   21  O4  UNL     1      13.688  15.959  15.886  1.00  0.00    -0.345 OA
HETATM   22  C17 UNL     1      14.805  16.890  15.870  1.00  0.00     0.267 C
BRANCH  20  23
HETATM   23  C16 UNL     1      11.386  15.766  15.845  1.00  0.00     0.203 C
HETATM   24  O2  UNL     1      11.535  14.626  15.338  1.00  0.00    -0.646 OA
HETATM   25  O3  UNL     1      10.081  16.126  16.188  1.00  0.00    -0.646 OA
ENDBRANCH  20  23
BRANCH  22  26
HETATM   26  O5  UNL     1      14.429  17.785  16.793  1.00  0.00    -0.370 OA
ATOM     27  H5  UNL     1      13.665  17.655  17.342  1.00  0.00     0.212 HD
ENDBRANCH  22  26
ENDBRANCH   9  16
TORSDOF 5
ENDMDL