MODEL 1
REMARK VINA RESULT: -6.359670258      0.000      0.000
REMARK  4 active torsions:
REMARK  status: ('A' for Active; 'I' for Inactive)
REMARK    1  A    between atoms: C2_2  and  C3_3
REMARK    2  A    between atoms: C17_17  and  O1_18
REMARK    3  A    between atoms: C19_21  and  N1_22
REMARK    4  A    between atoms: N1_22  and  O2_23
ROOT
HETATM    1  C3  UNL     1      20.553  19.619  11.589  1.00  0.00     0.017 C
HETATM    2  C4  UNL     1      20.178  19.917  13.025  1.00  0.00     0.010 C
HETATM    3  C5  UNL     1      19.246  21.083  13.166  1.00  0.00     0.038 C
HETATM    4  C6  UNL     1      17.914  20.865  13.761  1.00  0.00     0.057 C
HETATM    5  C7  UNL     1      17.800  21.912  14.909  1.00  0.00     0.046 C
HETATM    6  C8  UNL     1      16.865  21.345  12.790  1.00  0.00     0.038 C
HETATM    7  C9  UNL     1      16.794  20.681  11.463  1.00  0.00     0.008 C
HETATM    8  C10 UNL     1      16.329  19.305  11.371  1.00  0.00    -0.007 C
HETATM    9  C11 UNL     1      15.175  19.143  12.364  1.00  0.00     0.016 C
HETATM   10  C12 UNL     1      15.638  18.440  13.629  1.00  0.00    -0.022 C
HETATM   11  C13 UNL     1      14.289  18.211  14.374  1.00  0.00     0.017 C
HETATM   12  C14 UNL     1      16.050  17.083  13.224  1.00  0.00     0.012 C
HETATM   13  C15 UNL     1      16.328  16.951  11.702  1.00  0.00     0.008 C
HETATM   14  C16 UNL     1      17.248  18.158  11.420  1.00  0.00     0.019 C
HETATM   15  C17 UNL     1      18.176  18.016  10.262  1.00  0.00     0.132 C
HETATM   16  C18 UNL     1      19.535  17.493  10.521  1.00  0.00     0.094 A
HETATM   17  C19 UNL     1      19.754  16.482  11.602  1.00  0.00     0.313 A
HETATM   18  N2  UNL     1      20.861  17.203  12.156  1.00  0.00    -0.049 N
ATOM     19  H21 UNL     1      21.780  16.771  12.251  1.00  0.00     0.279 HD
ATOM     20  H22 UNL     1      20.897  17.437  13.148  1.00  0.00     0.279 HD
HETATM   21  C20 UNL     1      20.602  18.237  11.133  1.00  0.00     0.202 A
HETATM   22  C21 UNL     1      16.422  19.237  14.561  1.00  0.00     0.177 C
HETATM   23  O3  UNL     1      17.643  19.701  14.381  1.00  0.00    -0.380 OA
ENDROOT
BRANCH  17  24
HETATM   24  N1  UNL     1      20.243  15.163  11.157  1.00  0.00    -0.070 NA
BRANCH  24  25
HETATM   25  O2  UNL     1      21.441  14.928  11.740  1.00  0.00    -0.294 OA
ATOM     26  H2  UNL     1      21.491  14.008  11.971  1.00  0.00     0.238 HD
ENDBRANCH  24  25
ENDBRANCH  17  24
BRANCH  15  27
HETATM   27  O1  UNL     1      17.501  17.281   9.287  1.00  0.00    -0.395 OA
ATOM     28  H1  UNL     1      17.345  17.868   8.557  1.00  0.00     0.210 HD
ENDBRANCH  15  27
BRANCH   1  29
HETATM   29  C2  UNL     1      21.916  20.332  11.428  1.00  0.00     0.002 C
HETATM   30  C1  UNL     1      22.812  20.079  12.591  1.00  0.00     0.005 C
ENDBRANCH   1  29
TORSDOF 4
ENDMDL