MODEL 5
REMARK VINA RESULT: -6.623781296      2.891      4.624
REMARK  8 active torsions:
REMARK  status: ('A' for Active; 'I' for Inactive)
REMARK    1  A    between atoms: C4_4  and  O1_5
REMARK    2  A    between atoms: C5_7  and  C6_8
REMARK    3  A    between atoms: C6_8  and  C7_9
REMARK    4  A    between atoms: C7_9  and  C8_10
REMARK    5  A    between atoms: C8_10  and  O2_12
REMARK    6  A    between atoms: C8_10  and  C10_14
REMARK    7  A    between atoms: C13_18  and  O4_19
REMARK    8  A    between atoms: C18_25  and  O5_26
ROOT
HETATM    1  C1  UNL     1      17.145  18.034  19.202  1.00  0.00     0.036 C
HETATM    2  C2  UNL     1      16.618  17.623  17.883  1.00  0.00    -0.025 C
HETATM    3  C3  UNL     1      15.435  17.020  17.751  1.00  0.00    -0.049 C
HETATM    4  C4  UNL     1      15.030  16.667  16.404  1.00  0.00     0.152 C
HETATM    5  C5  UNL     1      13.519  16.455  16.197  1.00  0.00     0.027 C
HETATM    6  C14 UNL     1      12.966  15.903  17.483  1.00  0.00    -0.037 C
HETATM    7  C15 UNL     1      11.534  15.573  17.581  1.00  0.00     0.015 C
HETATM    8  C16 UNL     1      13.732  14.611  17.772  1.00  0.00     0.012 C
HETATM    9  C17 UNL     1      14.008  14.422  19.235  1.00  0.00     0.033 C
HETATM   10  C18 UNL     1      14.998  15.490  19.683  1.00  0.00     0.126 C
HETATM   11  C19 UNL     1      14.676  16.781  18.991  1.00  0.00     0.046 C
HETATM   12  C20 UNL     1      13.227  16.858  18.667  1.00  0.00     0.021 C
ENDROOT
BRANCH   5  13
HETATM   13  C6  UNL     1      12.997  17.778  15.767  1.00  0.00     0.011 C
BRANCH  13  14
HETATM   14  C7  UNL     1      11.861  17.881  14.848  1.00  0.00     0.043 C
BRANCH  14  15
HETATM   15  C8  UNL     1      11.864  19.024  13.870  1.00  0.00     0.086 C
HETATM   16  C9  UNL     1      13.154  19.073  13.071  1.00  0.00     0.051 C
BRANCH  15  17
HETATM   17  O2  UNL     1      10.851  18.971  12.933  1.00  0.00    -0.385 OA
ATOM     18  H2  UNL     1      10.913  19.631  12.253  1.00  0.00     0.211 HD
ENDBRANCH  15  17
BRANCH  15  19
HETATM   19  C10 UNL     1      11.728  20.315  14.586  1.00  0.00     0.036 A
HETATM   20  C11 UNL     1      12.687  21.313  14.627  1.00  0.00     0.039 A
HETATM   21  C12 UNL     1      12.180  22.345  15.388  1.00  0.00     0.145 A
HETATM   22  O3  UNL     1      10.970  21.984  15.789  1.00  0.00    -0.300 OA
HETATM   23  C13 UNL     1      10.674  20.791  15.332  1.00  0.00     0.192 A
BRANCH  23  24
HETATM   24  O4  UNL     1       9.485  20.070  15.541  1.00  0.00    -0.340 OA
ATOM     25  H4  UNL     1       9.045  20.019  16.381  1.00  0.00     0.220 HD
ENDBRANCH  23  24
ENDBRANCH  15  19
ENDBRANCH  14  15
ENDBRANCH  13  14
ENDBRANCH   5  13
BRANCH   4  26
HETATM   26  O1  UNL     1      15.480  17.712  15.555  1.00  0.00    -0.391 OA
ATOM     27  H1  UNL     1      16.116  18.214  16.052  1.00  0.00     0.210 HD
ENDBRANCH   4  26
BRANCH  10  28
HETATM   28  O5  UNL     1      14.862  15.567  21.076  1.00  0.00    -0.395 OA
ATOM     29  H5  UNL     1      15.110  16.455  21.307  1.00  0.00     0.210 HD
ENDBRANCH  10  28
TORSDOF 8
ENDMDL