MODEL 1
REMARK VINA RESULT: -7.043406225      0.000      0.000
REMARK  5 active torsions:
REMARK  status: ('A' for Active; 'I' for Inactive)
REMARK    1  A    between atoms: C3_3  and  N1_4
REMARK    2  A    between atoms: N1_4  and  C4_6
REMARK    3  A    between atoms: C4_6  and  C5_7
REMARK    4  A    between atoms: C4_6  and  C10_17
REMARK    5  A    between atoms: C6_10  and  C7_11
ROOT
HETATM    1  C1  UNL     1      16.641  -7.602  20.725  1.00  0.00     0.018 C
HETATM    2  C2  UNL     1      16.312  -6.441  20.773  1.00  0.00    -0.073 C
HETATM    3  C3  UNL     1      15.891  -5.018  20.849  1.00  0.00     0.148 C
ENDROOT
BRANCH   3   4
HETATM    4  N1  UNL     1      14.856  -4.934  21.793  1.00  0.00    -0.381 N
ATOM      5  H1  UNL     1      14.101  -5.619  21.782  1.00  0.00     0.160 HD
BRANCH   4   6
HETATM    6  C4  UNL     1      14.856  -3.906  22.756  1.00  0.00     0.143 C
BRANCH   6   7
HETATM    7  C5  UNL     1      13.795  -2.871  22.611  1.00  0.00     0.092 A
HETATM    8  N2  UNL     1      12.640  -2.839  23.256  1.00  0.00    -0.340 N
HETATM    9  C6  UNL     1      11.801  -1.878  23.034  1.00  0.00     0.091 A
ATOM     10  H2  UNL     1      12.410  -3.571  23.928  1.00  0.00     0.167 HD
HETATM   11  N3  UNL     1      12.154  -0.941  22.141  1.00  0.00    -0.314 N
HETATM   12  S1  UNL     1      13.675  -1.471  21.649  1.00  0.00     0.003 SA
ATOM     13  H3  UNL     1      11.634  -0.118  21.838  1.00  0.00     0.175 HD
BRANCH   9  14
HETATM   14  C7  UNL     1      10.464  -1.795  23.749  1.00  0.00     0.046 C
HETATM   15  C8  UNL     1       9.704  -0.593  23.314  1.00  0.00     0.017 C
HETATM   16  C9  UNL     1       9.689  -3.057  23.395  1.00  0.00     0.017 C
ENDBRANCH   9  14
ENDBRANCH   6   7
BRANCH   6  17
HETATM   17  C10 UNL     1      14.895  -4.376  24.189  1.00  0.00     0.006 C
HETATM   18  C11 UNL     1      16.162  -3.835  24.817  1.00  0.00     0.012 C
HETATM   19  C12 UNL     1      14.887  -5.860  24.328  1.00  0.00     0.012 C
ENDBRANCH   6  17
ENDBRANCH   4   6
ENDBRANCH   3   4
TORSDOF 5
ENDMDL