MODEL 1
REMARK VINA RESULT: -6.392651074      0.000      0.000
REMARK  4 active torsions:
REMARK  status: ('A' for Active; 'I' for Inactive)
REMARK    1  A    between atoms: C3_3  and  C4_4
REMARK    2  A    between atoms: C4_4  and  S1_5
REMARK    3  A    between atoms: S1_5  and  C5_6
REMARK    4  A    between atoms: N3_12  and  C7_14
ROOT
HETATM    1  C5  UNL     1      14.943  -5.722  21.269  1.00  0.00     0.130 A
HETATM    2  N1  UNL     1      14.745  -7.018  21.106  1.00  0.00    -0.286 N
ATOM      3  H1  UNL     1      13.826  -7.419  21.294  1.00  0.00     0.188 HD
HETATM    4  N2  UNL     1      15.694  -7.768  20.716  1.00  0.00    -0.279 N
ATOM      5  H2  UNL     1      15.545  -8.770  20.590  1.00  0.00     0.189 HD
HETATM    6  C6  UNL     1      16.889  -7.223  20.475  1.00  0.00     0.162 A
HETATM    7  N3  UNL     1      18.000  -7.792  20.070  1.00  0.00    -0.365 N
ATOM      8  H3  UNL     1      18.857  -7.258  19.921  1.00  0.00     0.162 HD
HETATM    9  S2  UNL     1      16.584  -5.568  20.838  1.00  0.00    -0.027 SA
ENDROOT
BRANCH   1  10
HETATM   10  S1  UNL     1      13.836  -4.410  21.797  1.00  0.00    -0.103 SA
BRANCH  10  11
HETATM   11  C4  UNL     1      14.712  -3.115  22.673  1.00  0.00     0.086 C
BRANCH  11  12
HETATM   12  C3  UNL     1      14.712  -3.446  24.140  1.00  0.00    -0.005 A
HETATM   13  C1  UNL     1      16.091  -3.387  24.814  1.00  0.00     0.006 A
HETATM   14  C2  UNL     1      15.395  -4.705  24.609  1.00  0.00     0.006 A
ENDBRANCH  11  12
ENDBRANCH  10  11
ENDBRANCH   1  10
BRANCH   7  15
HETATM   15  C7  UNL     1      17.938  -9.218  19.848  1.00  0.00     0.083 A
HETATM   16  C8  UNL     1      19.171 -10.006  19.639  1.00  0.00     0.027 A
HETATM   17  C9  UNL     1      18.443 -10.056  20.998  1.00  0.00     0.027 A
ENDBRANCH   7  15
TORSDOF 4
ENDMDL