MODEL 1
REMARK VINA RESULT: -7.418066707      0.000      0.000
REMARK  4 active torsions:
REMARK  status: ('A' for Active; 'I' for Inactive)
REMARK    1  A    between atoms: C2_2  and  S1_3
REMARK    2  A    between atoms: C2_2  and  C8_15
REMARK    3  A    between atoms: S1_3  and  C3_4
REMARK    4  A    between atoms: C4_7  and  C5_8
ROOT
HETATM    1  C3  UNL     1      15.919  -6.403  21.024  1.00  0.00     0.161 A
HETATM    2  N1  UNL     1      17.170  -6.712  20.568  1.00  0.00    -0.324 N
ATOM      3  H1  UNL     1      17.965  -6.072  20.563  1.00  0.00     0.169 HD
HETATM    4  C4  UNL     1      17.200  -7.977  20.130  1.00  0.00     0.102 A
HETATM    5  N2  UNL     1      15.965  -8.478  20.306  1.00  0.00    -0.287 N
ATOM      6  H2  UNL     1      15.660  -9.422  20.071  1.00  0.00     0.188 HD
HETATM    7  N3  UNL     1      15.215  -7.531  20.839  1.00  0.00    -0.278 N
ATOM      8  H3  UNL     1      14.229  -7.641  21.078  1.00  0.00     0.189 HD
ENDROOT
BRANCH   1   9
HETATM    9  S1  UNL     1      15.445  -4.824  21.695  1.00  0.00    -0.082 SA
BRANCH   9  10
HETATM   10  C2  UNL     1      16.226  -4.408  23.235  1.00  0.00     0.096 C
HETATM   11  C1  UNL     1      15.214  -4.179  24.346  1.00  0.00     0.028 C
BRANCH  10  12
HETATM   12  C8  UNL     1      17.281  -3.391  23.175  1.00  0.00    -0.004 C
HETATM   13  N4  UNL     1      17.765  -2.750  24.166  1.00  0.00    -0.395 N
HETATM   14  C9  UNL     1      18.773  -1.835  23.759  1.00  0.00     0.119 C
ATOM     15  H4  UNL     1      17.467  -2.880  25.133  1.00  0.00     0.159 HD
HETATM   16  C10 UNL     1      18.488  -1.597  22.283  1.00  0.00     0.025 C
HETATM   17  C11 UNL     1      17.941  -2.964  21.889  1.00  0.00     0.055 C
ENDBRANCH  10  12
ENDBRANCH   9  10
ENDBRANCH   1   9
BRANCH   4  18
HETATM   18  C5  UNL     1      18.392  -8.696  19.551  1.00  0.00     0.055 A
HETATM   19  C6  UNL     1      19.716  -8.524  20.193  1.00  0.00     0.013 A
HETATM   20  C7  UNL     1      18.945  -9.747  20.483  1.00  0.00     0.013 A
ENDBRANCH   4  18
TORSDOF 4
ENDMDL