MODEL 3
REMARK VINA RESULT: -6.687484741      0.867      1.726
REMARK  4 active torsions:
REMARK  status: ('A' for Active; 'I' for Inactive)
REMARK    1  A    between atoms: N3_8  and  C3_9
REMARK    2  A    between atoms: C3_9  and  C4_10
REMARK    3  A    between atoms: C4_10  and  C5_11
REMARK    4  A    between atoms: C5_11  and  N4_12
ROOT
HETATM    1  C3  UNL     1      10.838  -4.365  20.507  1.00  0.00     0.153 C
ENDROOT
BRANCH   1   2
HETATM    2  N3  UNL     1      10.301  -3.007  20.662  1.00  0.00    -0.266 N
HETATM    3  C1  UNL     1       9.608  -2.480  21.661  1.00  0.00     0.193 A
HETATM    4  S1  UNL     1       9.180  -3.263  23.035  1.00  0.00    -0.039 SA
HETATM    5  N1  UNL     1       9.320  -1.207  21.366  1.00  0.00    -0.327 N
HETATM    6  C2  UNL     1       9.840  -0.933  20.165  1.00  0.00     0.199 A
ATOM      7  H1  UNL     1       8.796  -0.558  21.955  1.00  0.00     0.169 HD
HETATM    8  N2  UNL     1      10.437  -2.057  19.756  1.00  0.00    -0.292 N
ATOM      9  H2  UNL     1      10.929  -2.165  18.868  1.00  0.00     0.188 HD
ENDBRANCH   1   2
BRANCH   1  10
HETATM   10  C4  UNL     1      12.353  -4.324  20.464  1.00  0.00     0.052 C
BRANCH  10  11
HETATM   11  C5  UNL     1      12.931  -3.818  21.759  1.00  0.00     0.274 C
BRANCH  11  12
HETATM   12  N4  UNL     1      14.336  -4.034  21.889  1.00  0.00     0.088 N
HETATM   13  C6  UNL     1      14.696  -5.404  22.125  1.00  0.00     0.272 C
HETATM   14  C7  UNL     1      14.148  -6.037  23.341  1.00  0.00     0.030 C
HETATM   15  C8  UNL     1      14.931  -5.821  24.597  1.00  0.00     0.002 C
HETATM   16  C9  UNL     1      15.636  -4.514  24.703  1.00  0.00     0.002 C
HETATM   17  C10 UNL     1      14.776  -3.363  24.202  1.00  0.00     0.030 C
HETATM   18  C11 UNL     1      15.021  -3.107  22.737  1.00  0.00     0.272 C
ENDBRANCH  11  12
ENDBRANCH  10  11
ENDBRANCH   1  10
TORSDOF 4
ENDMDL