MODEL 2
REMARK VINA RESULT: -7.546656531      4.415      6.864
REMARK  4 active torsions:
REMARK  status: ('A' for Active; 'I' for Inactive)
REMARK    1  A    between atoms: C2_3  and  C3_4
REMARK    2  A    between atoms: C3_4  and  O1_5
REMARK    3  A    between atoms: O1_5  and  N2_6
REMARK    4  A    between atoms: C7_11  and  C8_12
ROOT
HETATM    1  N1  UNL     1      10.134  -0.269  20.740  1.00  0.00    -0.197 NA
HETATM    2  C1  UNL     1      10.165  -1.386  20.428  1.00  0.00     0.061 C
HETATM    3  C2  UNL     1      10.212  -2.794  20.060  1.00  0.00     0.152 C
ENDROOT
BRANCH   3   4
HETATM    4  C3  UNL     1       9.424  -3.574  21.094  1.00  0.00     0.215 C
BRANCH   4   5
HETATM    5  O1  UNL     1      10.090  -3.388  22.342  1.00  0.00    -0.280 OA
BRANCH   5   6
HETATM    6  N2  UNL     1      11.123  -4.239  22.627  1.00  0.00    -0.275 N
HETATM    7  C4  UNL     1      12.312  -3.823  22.892  1.00  0.00     0.010 C
HETATM    8  C5  UNL     1      12.763  -2.407  22.937  1.00  0.00     0.055 C
HETATM    9  C13 UNL     1      13.465  -4.702  23.206  1.00  0.00     0.059 C
HETATM   10  C6  UNL     1      14.261  -2.497  23.256  1.00  0.00     0.011 C
HETATM   11  C7  UNL     1      14.324  -3.762  24.059  1.00  0.00    -0.005 C
ATOM     12  H2  UNL     1      10.944  -5.244  22.629  1.00  0.00     0.193 HD
BRANCH  11  13
HETATM   13  C8  UNL     1      15.726  -4.376  24.081  1.00  0.00    -0.007 C
HETATM   14  C9  UNL     1      16.635  -3.378  24.712  1.00  0.00     0.032 C
HETATM   15  C10 UNL     1      17.946  -3.190  24.026  1.00  0.00     0.232 C
HETATM   16  N3  UNL     1      17.637  -2.969  22.604  1.00  0.00    -0.075 N
HETATM   17  C11 UNL     1      17.271  -4.258  22.088  1.00  0.00     0.232 C
ATOM     18  H32 UNL     1      16.933  -2.248  22.444  1.00  0.00     0.277 HD
ATOM     19  H31 UNL     1      18.390  -2.518  22.085  1.00  0.00     0.277 HD
HETATM   20  C12 UNL     1      16.155  -4.935  22.788  1.00  0.00     0.032 C
ENDBRANCH  11  13
ENDBRANCH   5   6
ENDBRANCH   4   5
ENDBRANCH   3   4
TORSDOF 4
ENDMDL