MODEL 4
REMARK VINA RESULT: -6.821940813      3.394      4.499
REMARK  4 active torsions:
REMARK  status: ('A' for Active; 'I' for Inactive)
REMARK    1  A    between atoms: C4_5  and  C5_6
REMARK    2  A    between atoms: C5_6  and  S1_7
REMARK    3  A    between atoms: S1_7  and  C6_8
REMARK    4  A    between atoms: C7_11  and  C8_12
ROOT
HETATM    1  C6  UNL     1      16.078  -6.452  21.092  1.00  0.00     0.160 A
HETATM    2  N1  UNL     1      17.335  -6.791  20.677  1.00  0.00    -0.324 N
ATOM      3  H1  UNL     1      18.167  -6.202  20.710  1.00  0.00     0.169 HD
HETATM    4  C7  UNL     1      17.261  -8.051  20.219  1.00  0.00     0.102 A
HETATM    5  N2  UNL     1      16.004  -8.495  20.338  1.00  0.00    -0.287 N
ATOM      6  H2  UNL     1      15.656  -9.416  20.071  1.00  0.00     0.188 HD
HETATM    7  N3  UNL     1      15.303  -7.516  20.866  1.00  0.00    -0.278 N
ATOM      8  H3  UNL     1      14.306  -7.563  21.075  1.00  0.00     0.189 HD
ENDROOT
BRANCH   1   9
HETATM    9  S1  UNL     1      15.664  -4.856  21.781  1.00  0.00    -0.092 SA
BRANCH   9  10
HETATM   10  C5  UNL     1      14.488  -3.957  20.769  1.00  0.00     0.089 C
BRANCH  10  11
HETATM   11  C4  UNL     1      13.097  -4.591  20.762  1.00  0.00     0.019 C
HETATM   12  C3  UNL     1      12.710  -4.959  22.153  1.00  0.00     0.172 C
HETATM   13  O1  UNL     1      11.461  -4.514  22.542  1.00  0.00    -0.391 OA
HETATM   14  C2  UNL     1      10.450  -4.800  21.652  1.00  0.00     0.167 C
HETATM   15  C1  UNL     1      10.738  -4.242  20.273  1.00  0.00     0.027 C
HETATM   16  C11 UNL     1      12.084  -3.540  20.281  1.00  0.00     0.009 C
ENDBRANCH  10  11
ENDBRANCH   9  10
ENDBRANCH   1   9
BRANCH   4  17
HETATM   17  C8  UNL     1      18.415  -8.810  19.668  1.00  0.00     0.055 A
HETATM   18  C9  UNL     1      19.240  -9.641  20.627  1.00  0.00     0.013 A
HETATM   19  C10 UNL     1      18.323 -10.320  19.667  1.00  0.00     0.013 A
ENDBRANCH   4  17
TORSDOF 4
ENDMDL