MODEL 1
REMARK VINA RESULT: -6.852718693      0.000      0.000
REMARK  4 active torsions:
REMARK  status: ('A' for Active; 'I' for Inactive)
REMARK    1  A    between atoms: C2_2  and  S1_3
REMARK    2  A    between atoms: S1_3  and  C3_4
REMARK    3  A    between atoms: C3_4  and  O1_5
REMARK    4  A    between atoms: O1_5  and  C4_6
ROOT
HETATM    1  S1  UNL     1      15.719  -5.721  22.273  1.00  0.00    -0.107 SA
ENDROOT
BRANCH   1   2
HETATM    2  C2  UNL     1      16.636  -4.272  22.781  1.00  0.00     0.002 C
HETATM    3  C1  UNL     1      17.539  -3.733  21.947  1.00  0.00    -0.009 C
HETATM    4  C11 UNL     1      18.315  -2.528  22.344  1.00  0.00     0.055 C
HETATM    5  C10 UNL     1      18.454  -2.606  23.869  1.00  0.00     0.236 C
HETATM    6  N1  UNL     1      17.084  -2.489  24.379  1.00  0.00    -0.071 N
HETATM    7  C9  UNL     1      16.365  -3.709  24.121  1.00  0.00     0.277 C
ATOM      8  H12 UNL     1      16.602  -1.673  24.002  1.00  0.00     0.277 HD
ATOM      9  H11 UNL     1      17.062  -2.231  25.365  1.00  0.00     0.277 HD
ENDBRANCH   1   2
BRANCH   1  10
HETATM   10  C3  UNL     1      16.543  -6.597  20.973  1.00  0.00     0.249 C
BRANCH  10  11
HETATM   11  O1  UNL     1      16.427  -7.955  20.976  1.00  0.00    -0.351 OA
BRANCH  11  12
HETATM   12  C4  UNL     1      16.637  -8.572  19.757  1.00  0.00     0.260 C
HETATM   13  C5  UNL     1      18.018  -8.236  19.299  1.00  0.00     0.061 C
HETATM   14  C6  UNL     1      19.023  -9.322  19.613  1.00  0.00     0.007 C
HETATM   15  C7  UNL     1      18.590  -9.942  20.923  1.00  0.00     0.026 C
HETATM   16  C8  UNL     1      17.273 -10.632  20.669  1.00  0.00     0.171 C
HETATM   17  O2  UNL     1      16.404  -9.910  19.928  1.00  0.00    -0.361 OA
ENDBRANCH  11  12
ENDBRANCH  10  11
ENDBRANCH   1  10
TORSDOF 4
ENDMDL