MODEL 1
REMARK VINA RESULT: -6.933463849      0.000      0.000
REMARK  5 active torsions:
REMARK  status: ('A' for Active; 'I' for Inactive)
REMARK    1  A    between atoms: C2_2  and  C4_4
REMARK    2  A    between atoms: C2_2  and  C9_12
REMARK    3  A    between atoms: C4_4  and  N1_5
REMARK    4  A    between atoms: N1_5  and  C5_8
REMARK    5  A    between atoms: C9_12  and  N2_13
ROOT
HETATM    1  N2  UNL     1      15.114  -3.262  23.805  1.00  0.00    -0.333 N
HETATM    2  C10 UNL     1      16.015  -3.432  24.786  1.00  0.00     0.183 A
HETATM    3  N3  UNL     1      17.109  -2.708  24.517  1.00  0.00    -0.359 N
ATOM      4  H3  UNL     1      17.948  -2.652  25.094  1.00  0.00     0.166 HD
HETATM    5  C11 UNL     1      16.906  -2.073  23.362  1.00  0.00     0.130 A
HETATM    6  C12 UNL     1      15.648  -2.424  22.913  1.00  0.00     0.132 A
HETATM    7  C13 UNL     1      15.117  -1.929  21.681  1.00  0.00     0.119 C
HETATM    8  N4  UNL     1      14.667  -1.540  20.689  1.00  0.00    -0.190 NA
ENDROOT
BRANCH   1   9
HETATM    9  C9  UNL     1      13.828  -3.864  23.760  1.00  0.00     0.141 C
BRANCH   9  10
HETATM   10  C2  UNL     1      13.796  -5.353  23.552  1.00  0.00    -0.007 C
HETATM   11  C1  UNL     1      14.782  -6.023  24.518  1.00  0.00     0.018 C
HETATM   12  C3  UNL     1      12.454  -5.919  23.857  1.00  0.00     0.018 C
BRANCH  10  13
HETATM   13  C4  UNL     1      14.209  -5.584  22.111  1.00  0.00     0.243 C
BRANCH  13  14
HETATM   14  N1  UNL     1      15.267  -6.522  21.966  1.00  0.00    -0.067 N
ATOM     15  H12 UNL     1      15.770  -6.679  22.839  1.00  0.00     0.278 HD
ATOM     16  H11 UNL     1      14.928  -7.473  21.825  1.00  0.00     0.278 HD
BRANCH  14  17
HETATM   17  C5  UNL     1      16.139  -6.084  20.898  1.00  0.00     0.115 C
HETATM   18  C6  UNL     1      16.786  -7.246  20.172  1.00  0.00     0.045 C
HETATM   19  C7  UNL     1      17.274  -5.220  21.426  1.00  0.00     0.045 C
HETATM   20  C8  UNL     1      15.351  -5.269  19.920  1.00  0.00     0.045 C
ENDBRANCH  14  17
ENDBRANCH  13  14
ENDBRANCH  10  13
ENDBRANCH   9  10
ENDBRANCH   1   9
TORSDOF 5
ENDMDL