MODEL 1
REMARK VINA RESULT: -7.327695598      0.000      0.000
REMARK  4 active torsions:
REMARK  status: ('A' for Active; 'I' for Inactive)
REMARK    1  A    between atoms: C2_3  and  C3_4
REMARK    2  A    between atoms: C3_4  and  N2_5
REMARK    3  A    between atoms: N2_5  and  N3_6
REMARK    4  A    between atoms: N2_5  and  C9_15
ROOT
HETATM    1  N1  UNL     1      17.971  -0.938  21.512  1.00  0.00    -0.197 NA
HETATM    2  C1  UNL     1      16.946  -1.089  20.994  1.00  0.00     0.060 C
HETATM    3  C2  UNL     1      15.664  -1.291  20.321  1.00  0.00     0.146 C
ENDROOT
BRANCH   3   4
HETATM    4  C3  UNL     1      14.549  -0.546  21.024  1.00  0.00     0.182 C
BRANCH   4   5
HETATM    5  N2  UNL     1      13.745  -1.473  21.831  1.00  0.00    -0.121 N
BRANCH   5   6
HETATM    6  N3  UNL     1      14.308  -2.087  22.890  1.00  0.00    -0.273 N
HETATM    7  C4  UNL     1      14.477  -3.251  23.310  1.00  0.00     0.092 C
HETATM    8  C5  UNL     1      15.205  -3.431  24.618  1.00  0.00     0.077 C
HETATM    9  N4  UNL     1      14.065  -4.464  22.699  1.00  0.00    -0.379 N
HETATM   10  C6  UNL     1      15.756  -4.798  24.775  1.00  0.00     0.009 C
HETATM   11  C7  UNL     1      14.815  -5.924  24.476  1.00  0.00     0.020 C
HETATM   12  C8  UNL     1      13.673  -5.544  23.574  1.00  0.00     0.121 C
ATOM     13  H4  UNL     1      14.045  -4.568  21.684  1.00  0.00     0.160 HD
ATOM     14  H3  UNL     1      14.712  -1.406  23.533  1.00  0.00     0.189 HD
ENDBRANCH   5   6
BRANCH   5  15
HETATM   15  C9  UNL     1      12.402  -1.670  21.447  1.00  0.00     0.698 A
HETATM   16  N5  UNL     1      12.063  -2.585  20.492  1.00  0.00    -0.200 N
HETATM   17  C10 UNL     1      10.793  -2.778  20.105  1.00  0.00     0.107 A
ATOM     18  H5  UNL     1      12.800  -3.140  20.057  1.00  0.00     0.183 HD
HETATM   19  C11 UNL     1       9.804  -2.019  20.705  1.00  0.00     0.035 A
HETATM   20  C12 UNL     1      10.121  -1.091  21.670  1.00  0.00     0.107 A
HETATM   21  N6  UNL     1      11.401  -0.937  22.018  1.00  0.00    -0.200 N
ATOM     22  H6  UNL     1      11.639  -0.250  22.733  1.00  0.00     0.183 HD
ENDBRANCH   5  15
ENDBRANCH   4   5
ENDBRANCH   3   4
TORSDOF 4
ENDMDL