MODEL 1
REMARK VINA RESULT: -7.810922330      0.000      0.000
REMARK  4 active torsions:
REMARK  status: ('A' for Active; 'I' for Inactive)
REMARK    1  A    between atoms: C1_1  and  N1_2
REMARK    2  A    between atoms: C1_1  and  C9_12
REMARK    3  A    between atoms: N1_2  and  C2_5
REMARK    4  A    between atoms: C10_15  and  C11_16
ROOT
HETATM    1  C1  UNL     1      15.478  -5.233  20.173  1.00  0.00     0.319 C
ENDROOT
BRANCH   1   2
HETATM    2  N1  UNL     1      14.257  -5.068  20.941  1.00  0.00    -0.063 N
ATOM      3  H12 UNL     1      13.483  -4.707  20.382  1.00  0.00     0.278 HD
ATOM      4  H11 UNL     1      13.830  -5.957  21.203  1.00  0.00     0.278 HD
BRANCH   2   5
HETATM    5  C2  UNL     1      14.558  -4.252  22.058  1.00  0.00     0.191 C
HETATM    6  C3  UNL     1      15.905  -4.533  22.687  1.00  0.00     0.038 C
HETATM    7  C4  UNL     1      15.690  -4.387  24.173  1.00  0.00    -0.012 C
HETATM    8  C5  UNL     1      15.131  -5.703  24.671  1.00  0.00     0.005 C
HETATM    9  C8  UNL     1      14.405  -3.545  24.235  1.00  0.00     0.011 C
HETATM   10  C6  UNL     1      13.806  -5.770  23.899  1.00  0.00     0.007 C
HETATM   11  C7  UNL     1      13.630  -4.430  23.237  1.00  0.00     0.016 C
ENDBRANCH   2   5
ENDBRANCH   1   2
BRANCH   1  12
HETATM   12  C9  UNL     1      15.970  -6.612  20.138  1.00  0.00     0.174 A
HETATM   13  N2  UNL     1      17.181  -7.056  19.751  1.00  0.00    -0.325 N
HETATM   14  C10 UNL     1      17.221  -8.401  19.874  1.00  0.00     0.108 A
ATOM     15  H2  UNL     1      17.945  -6.470  19.417  1.00  0.00     0.169 HD
HETATM   16  N3  UNL     1      16.020  -8.741  20.338  1.00  0.00    -0.247 N
HETATM   17  O1  UNL     1      15.288  -7.668  20.490  1.00  0.00    -0.221 OA
ATOM     18  H3  UNL     1      15.718  -9.693  20.544  1.00  0.00     0.196 HD
BRANCH  14  19
HETATM   19  C11 UNL     1      18.394  -9.228  19.538  1.00  0.00     0.055 A
HETATM   20  C12 UNL     1      19.758  -8.757  19.961  1.00  0.00     0.013 A
HETATM   21  C13 UNL     1      19.091  -9.884  20.740  1.00  0.00     0.013 A
ENDBRANCH  14  19
ENDBRANCH   1  12
TORSDOF 4
ENDMDL