MODEL 1
REMARK VINA RESULT: -6.727605885      0.000      0.000
REMARK  19 active torsions:
REMARK  status: ('A' for Active; 'I' for Inactive)
REMARK    1  A    between atoms: N1_2  and  C2_5
REMARK    2  A    between atoms: C2_5  and  C3_6
REMARK    3  A    between atoms: C4_7  and  N2_8
REMARK    4  A    between atoms: N2_8  and  C5_10
REMARK    5  A    between atoms: C7_17  and  N5_18
REMARK    6  A    between atoms: N5_18  and  N6_20
REMARK    7  A    between atoms: C9_26  and  C10_27
REMARK    8  A    between atoms: C10_27  and  N8_28
REMARK    9  A    between atoms: C11_33  and  N9_34
REMARK   10  A    between atoms: N9_34  and  O3_35
REMARK   11  A    between atoms: N9_34  and  C12_37
REMARK   12  A    between atoms: C12_37  and  C13_38
REMARK   13  A    between atoms: C13_38  and  O4_39
REMARK   14  A    between atoms: N10_41  and  C14_43
REMARK   15  A    between atoms: C16_45  and  O5_46
REMARK   16  A    between atoms: C17_48  and  C18_49
REMARK   17  A    between atoms: C22_55  and  C23_56
REMARK   18  A    between atoms: C23_56  and  N12_57
REMARK   19  A    between atoms: C24_63  and  O7_64
ROOT
HETATM    1  C3  UNL     1      25.504 -13.101  -6.112  1.00  0.00     0.080 C
HETATM    2  C4  UNL     1      24.154 -13.527  -6.529  1.00  0.00     0.111 C
HETATM    3  C8  UNL     1      24.112 -14.113  -7.923  1.00  0.00     0.060 C
HETATM    4  C9  UNL     1      25.118 -13.540  -8.842  1.00  0.00     0.151 C
HETATM    5  O2  UNL     1      26.181 -12.889  -8.322  1.00  0.00    -0.362 OA
HETATM    6  C11 UNL     1      26.056 -12.152  -7.197  1.00  0.00     0.229 C
ENDROOT
BRANCH   6   7
HETATM    7  N9  UNL     1      25.392 -10.928  -7.222  1.00  0.00    -0.162 NA
BRANCH   7   8
HETATM    8  O3  UNL     1      25.694 -10.087  -6.206  1.00  0.00    -0.310 OA
ATOM      9  H3  UNL     1      25.345 -10.334  -5.357  1.00  0.00     0.237 HD
ENDBRANCH   7   8
BRANCH   7  10
HETATM   10  C12 UNL     1      25.448 -10.147  -8.430  1.00  0.00     0.207 C
BRANCH  10  11
HETATM   11  C13 UNL     1      25.003  -8.730  -8.319  1.00  0.00     0.127 C
HETATM   12  N10 UNL     1      23.868  -8.486  -7.605  1.00  0.00    -0.366 N
ATOM     13  H10 UNL     1      24.013  -8.034  -6.702  1.00  0.00     0.161 HD
BRANCH  11  14
HETATM   14  O4  UNL     1      26.136  -7.912  -8.083  1.00  0.00    -0.349 OA
ATOM     15  H4  UNL     1      25.887  -7.204  -7.500  1.00  0.00     0.219 HD
ENDBRANCH  11  14
BRANCH  12  16
HETATM   16  C14 UNL     1      22.565  -8.757  -7.915  1.00  0.00     0.115 C
HETATM   17  C15 UNL     1      22.211  -8.480  -9.395  1.00  0.00     0.060 C
HETATM   18  C16 UNL     1      20.700  -8.585  -9.280  1.00  0.00     0.128 C
HETATM   19  C17 UNL     1      20.477  -9.709  -8.311  1.00  0.00     0.068 C
HETATM   20  C24 UNL     1      21.869 -10.025  -7.698  1.00  0.00     0.149 C
BRANCH  18  21
HETATM   21  O5  UNL     1      20.277  -7.356  -8.720  1.00  0.00    -0.395 OA
ATOM     22  H5  UNL     1      20.829  -7.220  -7.959  1.00  0.00     0.210 HD
ENDBRANCH  18  21
BRANCH  19  23
HETATM   23  C18 UNL     1      19.953 -10.928  -9.082  1.00  0.00     0.100 C
HETATM   24  C19 UNL     1      20.977 -12.006  -9.041  1.00  0.00     0.129 C
HETATM   25  C20 UNL     1      20.464 -13.354  -8.726  1.00  0.00     0.226 C
HETATM   26  O6  UNL     1      21.173 -14.390  -8.907  1.00  0.00    -0.273 OA
HETATM   27  N11 UNL     1      19.159 -13.515  -8.208  1.00  0.00    -0.311 N
HETATM   28  C21 UNL     1      18.644 -14.785  -7.733  1.00  0.00     0.160 C
HETATM   29  C22 UNL     1      18.272 -12.404  -8.129  1.00  0.00     0.107 C
HETATM   30  N13 UNL     1      18.680 -11.247  -8.537  1.00  0.00    -0.372 N
ATOM     31  H13 UNL     1      18.014 -10.479  -8.459  1.00  0.00     0.161 HD
BRANCH  29  32
HETATM   32  C23 UNL     1      16.906 -12.538  -7.592  1.00  0.00     0.305 C
BRANCH  32  33
HETATM   33  N12 UNL     1      16.827 -12.249  -6.174  1.00  0.00    -0.073 N
ATOM     34 3H12 UNL     1      17.407 -12.894  -5.637  1.00  0.00     0.274 HD
ATOM     35 2H12 UNL     1      17.304 -11.375  -5.953  1.00  0.00     0.274 HD
ATOM     36 1H12 UNL     1      15.869 -12.241  -5.824  1.00  0.00     0.274 HD
ENDBRANCH  32  33
ENDBRANCH  29  32
ENDBRANCH  19  23
BRANCH  20  37
HETATM   37  O7  UNL     1      21.701 -10.323  -6.352  1.00  0.00    -0.393 OA
ATOM     38  H7  UNL     1      22.275 -11.019  -6.055  1.00  0.00     0.210 HD
ENDBRANCH  20  37
ENDBRANCH  12  16
ENDBRANCH  10  11
ENDBRANCH   7  10
ENDBRANCH   6   7
BRANCH   1  39
HETATM   39  C2  UNL     1      26.540 -14.112  -5.868  1.00  0.00     0.242 C
BRANCH  39  40
HETATM   40  N1  UNL     1      27.878 -13.774  -6.266  1.00  0.00    -0.079 N
HETATM   41  C1  UNL     1      28.537 -14.985  -6.747  1.00  0.00     0.267 C
ATOM     42  H12 UNL     1      28.402 -13.312  -5.524  1.00  0.00     0.276 HD
ATOM     43  H11 UNL     1      27.903 -13.017  -6.949  1.00  0.00     0.276 HD
ENDBRANCH  39  40
ENDBRANCH   1  39
BRANCH   2  44
HETATM   44  N2  UNL     1      23.481 -14.481  -5.683  1.00  0.00    -0.220 N
ATOM     45  H2  UNL     1      23.935 -15.380  -5.529  1.00  0.00     0.178 HD
BRANCH  44  46
HETATM   46  C5  UNL     1      22.361 -14.280  -5.117  1.00  0.00     0.697 A
HETATM   47  N3  UNL     1      21.553 -13.265  -5.437  1.00  0.00    -0.140 N
HETATM   48  C6  UNL     1      20.345 -13.062  -4.808  1.00  0.00     0.352 A
ATOM     49  H3  UNL     1      21.841 -12.619  -6.172  1.00  0.00     0.189 HD
HETATM   50  O1  UNL     1      19.599 -12.111  -5.115  1.00  0.00    -0.246 OA
HETATM   51  N4  UNL     1      19.989 -13.938  -3.836  1.00  0.00    -0.139 N
HETATM   52  C7  UNL     1      20.784 -14.962  -3.501  1.00  0.00     0.715 A
ATOM     53  H4  UNL     1      19.100 -13.814  -3.351  1.00  0.00     0.189 HD
HETATM   54  N7  UNL     1      21.941 -15.102  -4.148  1.00  0.00    -0.021 N
ATOM     55  H7  UNL     1      22.543 -15.884  -3.889  1.00  0.00     0.203 HD
BRANCH  52  56
HETATM   56  N5  UNL     1      20.365 -15.750  -2.557  1.00  0.00    -0.138 N
ATOM     57  H5  UNL     1      20.713 -15.684  -1.601  1.00  0.00     0.205 HD
BRANCH  56  58
HETATM   58  N6  UNL     1      19.403 -16.697  -2.935  1.00  0.00    -0.331 N
ATOM     59  H62 UNL     1      19.579 -17.354  -3.695  1.00  0.00     0.177 HD
ATOM     60  H61 UNL     1      18.532 -16.681  -2.404  1.00  0.00     0.177 HD
ENDBRANCH  56  58
ENDBRANCH  52  56
ENDBRANCH  44  46
ENDBRANCH   2  44
BRANCH   4  61
HETATM   61  C10 UNL     1      25.657 -14.693  -9.711  1.00  0.00     0.261 C
BRANCH  61  62
HETATM   62  N8  UNL     1      25.741 -15.915  -8.930  1.00  0.00    -0.077 N
ATOM     63  H83 UNL     1      25.776 -16.744  -9.524  1.00  0.00     0.274 HD
ATOM     64  H82 UNL     1      26.649 -16.017  -8.477  1.00  0.00     0.274 HD
ATOM     65  H81 UNL     1      24.973 -15.961  -8.260  1.00  0.00     0.274 HD
ENDBRANCH  61  62
ENDBRANCH   4  61
TORSDOF 19
ENDMDL