MODEL 3
REMARK VINA RESULT: -6.737717416      2.514      6.659
REMARK  14 active torsions:
REMARK  status: ('A' for Active; 'I' for Inactive)
REMARK    1  A    between atoms: N1_1  and  C1_5
REMARK    2  A    between atoms: C1_5  and  C2_6
REMARK       I    between atoms: C2_6  and  N2_8
REMARK       I    between atoms: N2_8  and  C3_10
REMARK       I    between atoms: C3_10  and  N3_12
REMARK    3  A    between atoms: N3_12  and  C4_14
REMARK    4  A    between atoms: C6_17  and  O4_18
REMARK    5  A    between atoms: C7_20  and  C8_21
REMARK    6  A    between atoms: C8_21  and  N4_22
REMARK    7  A    between atoms: C8_21  and  C9_26
REMARK    8  A    between atoms: C12_29  and  O5_30
REMARK    9  A    between atoms: O5_30  and  S1_31
REMARK   10  A    between atoms: C13_35  and  O9_36
REMARK   11  A    between atoms: O9_36  and  C14_37
REMARK   12  A    between atoms: C16_41  and  O10_42
REMARK   13  A    between atoms: C17_44  and  O11_45
REMARK   14  A    between atoms: C18_47  and  N6_48
ROOT
HETATM    1  C9  UNL     1      19.380 -14.577 -10.508  1.00  0.00    -0.021 A
HETATM    2  C10 UNL     1      18.005 -14.731 -10.433  1.00  0.00     0.012 A
HETATM    3  C11 UNL     1      17.321 -14.711  -9.244  1.00  0.00     0.042 A
HETATM    4  C12 UNL     1      18.013 -14.531  -8.088  1.00  0.00     0.125 A
HETATM    5  C13 UNL     1      19.398 -14.369  -8.102  1.00  0.00     0.107 A
HETATM    6  C20 UNL     1      20.042 -14.397  -9.304  1.00  0.00     0.049 A
ENDROOT
BRANCH   1   7
HETATM    7  C8  UNL     1      20.015 -14.610 -11.827  1.00  0.00     0.251 C
BRANCH   7   8
HETATM    8  C7  UNL     1      20.951 -13.460 -12.002  1.00  0.00     0.021 A
HETATM    9  C6  UNL     1      22.399 -13.537 -12.230  1.00  0.00     0.176 A
HETATM   10  C5  UNL     1      23.254 -13.833 -11.061  1.00  0.00     0.193 C
HETATM   11  C22 UNL     1      22.882 -12.093 -12.242  1.00  0.00     0.204 A
HETATM   12  C4  UNL     1      23.589 -12.394 -10.938  1.00  0.00     0.193 C
HETATM   13  O3  UNL     1      23.555 -14.843 -10.453  1.00  0.00    -0.292 OA
HETATM   14  O12 UNL     1      21.692 -11.374 -12.161  1.00  0.00    -0.351 OA
HETATM   15  C21 UNL     1      20.594 -12.180 -11.970  1.00  0.00     0.144 A
BRANCH   9  16
HETATM   16  O4  UNL     1      22.785 -14.153 -13.418  1.00  0.00    -0.374 OA
ATOM     17  H4  UNL     1      23.214 -13.585 -14.047  1.00  0.00     0.211 HD
ENDBRANCH   9  16
BRANCH  12  18
HETATM   18  N3  UNL     1      23.007 -11.747  -9.761  1.00  0.00    -0.329 N
HETATM   19  C3  UNL     1      23.728 -10.862  -8.986  1.00  0.00     0.323 C
HETATM   20  N2  UNL     1      23.318 -10.181  -7.841  1.00  0.00    -0.278 N
HETATM   21  O2  UNL     1      24.941 -10.632  -9.368  1.00  0.00    -0.247 OA
HETATM   22  C2  UNL     1      22.098 -10.197  -7.144  1.00  0.00     0.251 C
ATOM     23  H2  UNL     1      24.025  -9.565  -7.440  1.00  0.00     0.173 HD
HETATM   24  O1  UNL     1      22.027  -9.459  -6.094  1.00  0.00    -0.271 OA
ATOM     25  H3  UNL     1      22.041 -11.956  -9.507  1.00  0.00     0.165 HD
BRANCH  22  26
HETATM   26  C1  UNL     1      20.882 -10.953  -7.461  1.00  0.00     0.332 C
BRANCH  26  27
HETATM   27  N1  UNL     1      20.236 -11.469  -6.256  1.00  0.00    -0.071 N
ATOM     28  H13 UNL     1      20.160 -12.486  -6.281  1.00  0.00     0.274 HD
ATOM     29  H12 UNL     1      20.842 -11.376  -5.441  1.00  0.00     0.274 HD
ATOM     30  H11 UNL     1      19.329 -11.032  -6.098  1.00  0.00     0.274 HD
ENDBRANCH  26  27
ENDBRANCH  22  26
ENDBRANCH  12  18
ENDBRANCH   7   8
BRANCH   7  31
HETATM   31  N4  UNL     1      20.763 -15.862 -11.901  1.00  0.00    -0.067 N
ATOM     32  H43 UNL     1      21.027 -16.098 -12.858  1.00  0.00     0.275 HD
ATOM     33  H42 UNL     1      21.700 -15.775 -11.509  1.00  0.00     0.275 HD
ATOM     34  H41 UNL     1      20.226 -16.606 -11.455  1.00  0.00     0.275 HD
ENDBRANCH   7  31
ENDBRANCH   1   7
BRANCH   5  35
HETATM   35  O9  UNL     1      19.998 -14.191  -6.878  1.00  0.00    -0.321 OA
BRANCH  35  36
HETATM   36  C14 UNL     1      20.294 -15.187  -5.934  1.00  0.00     0.248 C
HETATM   37  N5  UNL     1      19.329 -15.351  -4.896  1.00  0.00    -0.392 N
HETATM   38  C15 UNL     1      19.785 -15.097  -3.569  1.00  0.00     0.150 C
ATOM     39  H5  UNL     1      18.368 -15.634  -5.092  1.00  0.00     0.155 HD
HETATM   40  C16 UNL     1      21.009 -15.838  -3.146  1.00  0.00     0.166 C
HETATM   41  C17 UNL     1      21.898 -16.091  -4.336  1.00  0.00     0.175 C
HETATM   42  C18 UNL     1      21.669 -14.937  -5.295  1.00  0.00     0.164 C
BRANCH  40  43
HETATM   43  O10 UNL     1      20.733 -17.059  -2.529  1.00  0.00    -0.391 OA
ATOM     44  H10 UNL     1      19.842 -17.127  -2.206  1.00  0.00     0.210 HD
ENDBRANCH  40  43
BRANCH  41  45
HETATM   45  O11 UNL     1      23.209 -16.179  -3.917  1.00  0.00    -0.391 OA
ATOM     46  H11 UNL     1      23.691 -15.422  -4.229  1.00  0.00     0.210 HD
ENDBRANCH  41  45
BRANCH  42  47
HETATM   47  N6  UNL     1      22.685 -14.892  -6.316  1.00  0.00    -0.355 N
HETATM   48  C19 UNL     1      23.432 -13.865  -6.462  1.00  0.00     0.197 C
HETATM   49  N7  UNL     1      23.227 -12.750  -5.576  1.00  0.00    -0.067 NA
HETATM   50  N8  UNL     1      24.453 -13.764  -7.453  1.00  0.00    -0.067 NA
ATOM     51  H6  UNL     1      22.812 -15.695  -6.933  1.00  0.00     0.162 HD
ENDBRANCH  42  47
ENDBRANCH  35  36
ENDBRANCH   5  35
BRANCH   4  52
HETATM   52  O5  UNL     1      17.300 -14.513  -6.896  1.00  0.00    -0.211 OA
BRANCH  52  53
HETATM   53  S1  UNL     1      16.647 -13.135  -6.182  1.00  0.00     0.257 S
HETATM   54  O6  UNL     1      16.493 -11.998  -7.177  1.00  0.00    -0.572 OA
HETATM   55  O7  UNL     1      17.630 -12.679  -5.113  1.00  0.00    -0.572 OA
HETATM   56  O8  UNL     1      15.170 -13.407  -5.451  1.00  0.00    -0.572 OA
ENDBRANCH  52  53
ENDBRANCH   4  52
TORSDOF 14
ENDMDL