MODEL 5
REMARK VINA RESULT: -6.566822677      2.855      6.564
REMARK  17 active torsions:
REMARK  status: ('A' for Active; 'I' for Inactive)
REMARK    1  A    between atoms: C2_2  and  C4_4
REMARK    2  A    between atoms: C4_4  and  N1_5
REMARK    3  A    between atoms: C4_4  and  C21_59
REMARK       I    between atoms: N1_5  and  C5_7
REMARK    4  A    between atoms: C5_7  and  C6_9
REMARK    5  A    between atoms: C6_9  and  N2_10
REMARK    6  A    between atoms: C6_9  and  C7_14
REMARK    7  A    between atoms: C7_14  and  O2_15
REMARK    8  A    between atoms: C7_14  and  N3_17
REMARK    9  A    between atoms: N3_17  and  C8_18
REMARK   10  A    between atoms: N3_17  and  S1_55
REMARK   11  A    between atoms: C9_22  and  N5_23
REMARK   12  A    between atoms: C12_28  and  N7_29
REMARK   13  A    between atoms: C13_34  and  N9_35
REMARK   14  A    between atoms: C15_37  and  N10_38
REMARK   15  A    between atoms: C16_42  and  O3_43
REMARK   16  A    between atoms: C19_49  and  O4_50
REMARK   17  A    between atoms: C20_52  and  O5_53
ROOT
HETATM    1  C8  UNL     1      18.395 -14.451  -5.487  1.00  0.00     0.338 C
HETATM    2  N4  UNL     1      18.049 -14.986  -6.759  1.00  0.00    -0.026 N
ATOM      3  H41 UNL     1      17.985 -16.003  -6.765  1.00  0.00     0.282 HD
ATOM      4  H42 UNL     1      18.797 -14.902  -7.449  1.00  0.00     0.282 HD
HETATM    5  C9  UNL     1      16.820 -14.329  -7.161  1.00  0.00     0.327 C
HETATM    6  C19 UNL     1      16.863 -12.968  -6.571  1.00  0.00     0.201 C
HETATM    7  C20 UNL     1      17.861 -13.056  -5.450  1.00  0.00     0.202 C
ENDROOT
BRANCH   5   8
HETATM    8  N5  UNL     1      16.585 -14.400  -8.568  1.00  0.00    -0.295 N
HETATM    9  C10 UNL     1      15.382 -14.522  -9.154  1.00  0.00     0.187 A
HETATM   10  N6  UNL     1      15.537 -14.558 -10.509  1.00  0.00    -0.346 N
HETATM   11  C11 UNL     1      16.857 -14.458 -10.764  1.00  0.00     0.123 A
ATOM     12  H6  UNL     1      14.792 -14.645 -11.201  1.00  0.00     0.167 HD
HETATM   13  C12 UNL     1      17.619 -14.434 -11.906  1.00  0.00     0.145 A
HETATM   14  C18 UNL     1      17.484 -14.361  -9.548  1.00  0.00     0.156 A
HETATM   15  N8  UNL     1      18.946 -14.318 -11.790  1.00  0.00    -0.175 N
HETATM   16  C13 UNL     1      19.596 -14.220 -10.609  1.00  0.00     0.683 A
ATOM     17  H8  UNL     1      19.502 -14.302 -12.645  1.00  0.00     0.186 HD
HETATM   18  N11 UNL     1      18.818 -14.247  -9.514  1.00  0.00    -0.174 N
ATOM     19  H11 UNL     1      19.271 -14.177  -8.603  1.00  0.00     0.186 HD
BRANCH  13  20
HETATM   20  N7  UNL     1      17.053 -14.525 -13.065  1.00  0.00    -0.383 N
ATOM     21  H72 UNL     1      16.290 -13.903 -13.331  1.00  0.00     0.157 HD
ATOM     22  H71 UNL     1      17.368 -15.228 -13.734  1.00  0.00     0.157 HD
ENDBRANCH  13  20
BRANCH  16  23
HETATM   23  N9  UNL     1      21.015 -14.095 -10.539  1.00  0.00    -0.213 N
HETATM   24  C14 UNL     1      21.693 -12.806 -10.383  1.00  0.00     0.176 C
HETATM   25  C15 UNL     1      23.082 -13.041 -10.909  1.00  0.00     0.232 C
HETATM   26  C16 UNL     1      23.320 -14.481 -10.523  1.00  0.00     0.168 C
HETATM   27  C17 UNL     1      21.957 -15.168 -10.607  1.00  0.00     0.175 C
BRANCH  25  28
HETATM   28  N10 UNL     1      23.999 -12.131 -10.232  1.00  0.00    -0.071 N
ATOM     29 3H10 UNL     1      24.578 -11.604 -10.885  1.00  0.00     0.274 HD
ATOM     30 2H10 UNL     1      23.518 -11.342  -9.802  1.00  0.00     0.274 HD
ATOM     31 1H10 UNL     1      24.552 -12.664  -9.562  1.00  0.00     0.274 HD
ENDBRANCH  25  28
BRANCH  26  32
HETATM   32  O3  UNL     1      23.733 -14.565  -9.190  1.00  0.00    -0.392 OA
ATOM     33  H3  UNL     1      24.677 -14.472  -9.130  1.00  0.00     0.210 HD
ENDBRANCH  26  32
ENDBRANCH  16  23
ENDBRANCH   5   8
BRANCH   6  34
HETATM   34  O4  UNL     1      17.279 -11.964  -7.439  1.00  0.00    -0.389 OA
ATOM     35  H4  UNL     1      17.452 -11.125  -7.028  1.00  0.00     0.210 HD
ENDBRANCH   6  34
BRANCH   1  36
HETATM   36  N3  UNL     1      19.802 -14.590  -5.127  1.00  0.00    -0.204 N
BRANCH  36  37
HETATM   37  C7  UNL     1      20.793 -13.988  -5.920  1.00  0.00     0.172 C
BRANCH  37  38
HETATM   38  C6  UNL     1      22.068 -13.357  -5.560  1.00  0.00     0.349 C
BRANCH  38  39
HETATM   39  C5  UNL     1      22.496 -12.343  -6.562  1.00  0.00     0.257 C
HETATM   40  N1  UNL     1      21.729 -11.183  -6.767  1.00  0.00    -0.344 N
ATOM     41  H1  UNL     1      20.881 -11.069  -6.212  1.00  0.00     0.163 HD
HETATM   42  O1  UNL     1      23.543 -12.491  -7.251  1.00  0.00    -0.271 OA
BRANCH  40  43
HETATM   43  C4  UNL     1      22.065 -10.143  -7.711  1.00  0.00     0.189 C
BRANCH  43  44
HETATM   44  C2  UNL     1      20.822  -9.409  -8.197  1.00  0.00     0.010 C
HETATM   45  C1  UNL     1      19.802 -10.446  -8.586  1.00  0.00     0.012 C
HETATM   46  C3  UNL     1      21.164  -8.578  -9.387  1.00  0.00     0.012 C
ENDBRANCH  43  44
BRANCH  43  47
HETATM   47  C21 UNL     1      22.940  -9.103  -7.093  1.00  0.00     0.197 C
HETATM   48  O9  UNL     1      22.660  -8.626  -5.965  1.00  0.00    -0.646 OA
HETATM   49  O10 UNL     1      24.061  -8.663  -7.762  1.00  0.00    -0.646 OA
ENDBRANCH  43  47
ENDBRANCH  40  43
ENDBRANCH  38  39
BRANCH  38  50
HETATM   50  N2  UNL     1      23.173 -14.262  -5.371  1.00  0.00    -0.059 N
ATOM     51  H23 UNL     1      23.928 -14.118  -6.041  1.00  0.00     0.275 HD
ATOM     52  H22 UNL     1      23.709 -14.067  -4.525  1.00  0.00     0.275 HD
ATOM     53  H21 UNL     1      22.795 -15.209  -5.393  1.00  0.00     0.275 HD
ENDBRANCH  38  50
ENDBRANCH  37  38
BRANCH  37  54
HETATM   54  O2  UNL     1      20.606 -13.951  -7.221  1.00  0.00    -0.347 OA
ATOM     55  H2  UNL     1      21.303 -13.463  -7.646  1.00  0.00     0.219 HD
ENDBRANCH  37  54
ENDBRANCH  36  37
BRANCH  36  56
HETATM   56  S1  UNL     1      20.187 -15.458  -3.715  1.00  0.00     0.214 S
HETATM   57  O6  UNL     1      20.447 -14.587  -2.509  1.00  0.00    -0.578 OA
HETATM   58  O7  UNL     1      19.008 -16.394  -3.363  1.00  0.00    -0.578 OA
HETATM   59  O8  UNL     1      21.499 -16.487  -3.868  1.00  0.00    -0.578 OA
ENDBRANCH  36  56
ENDBRANCH   1  36
BRANCH   7  60
HETATM   60  O5  UNL     1      18.774 -12.047  -5.580  1.00  0.00    -0.389 OA
ATOM     61  H5  UNL     1      19.593 -12.266  -6.009  1.00  0.00     0.210 HD
ENDBRANCH   7  60
TORSDOF 17
ENDMDL