MODEL 3
REMARK VINA RESULT: -7.756914095      2.179      7.132
REMARK  14 active torsions:
REMARK  status: ('A' for Active; 'I' for Inactive)
REMARK    1  A    between atoms: C4_7  and  C5_8
REMARK    2  A    between atoms: C5_8  and  C6_9
REMARK    3  A    between atoms: C5_8  and  C16_40
REMARK    4  A    between atoms: C6_9  and  N2_10
REMARK    5  A    between atoms: N4_17  and  C9_18
REMARK    6  A    between atoms: C9_18  and  C10_19
REMARK    7  A    between atoms: C10_19  and  O4_20
REMARK    8  A    between atoms: C10_19  and  N5_22
REMARK    9  A    between atoms: N5_22  and  C11_25
REMARK   10  A    between atoms: N6_32  and  O7_34
REMARK       I    between atoms: C16_40  and  N8_42
REMARK   11  A    between atoms: N8_42  and  C17_44
REMARK   12  A    between atoms: C17_44  and  O10_45
REMARK   13  A    between atoms: C17_44  and  C18_47
REMARK   14  A    between atoms: C20_54  and  O12_55
ROOT
HETATM    1  N2  UNL     1      19.463 -13.145  -5.147  1.00  0.00    -0.250 N
HETATM    2  C7  UNL     1      19.724 -11.959  -5.696  1.00  0.00     0.334 A
HETATM    3  O2  UNL     1      20.809 -11.344  -5.546  1.00  0.00    -0.246 OA
HETATM    4  N3  UNL     1      18.794 -11.336  -6.471  1.00  0.00    -0.260 N
ATOM      5  H3  UNL     1      18.993 -10.429  -6.891  1.00  0.00     0.175 HD
HETATM    6  C8  UNL     1      17.610 -11.937  -6.673  1.00  0.00     0.334 A
HETATM    7  O3  UNL     1      16.779 -11.312  -7.405  1.00  0.00    -0.246 OA
HETATM    8  N4  UNL     1      17.295 -13.132  -6.143  1.00  0.00    -0.247 N
HETATM    9  C15 UNL     1      18.267 -13.708  -5.374  1.00  0.00     0.336 A
HETATM   10  O8  UNL     1      17.985 -14.844  -4.861  1.00  0.00    -0.246 OA
ENDROOT
BRANCH   1  11
HETATM   11  C6  UNL     1      20.432 -13.817  -4.344  1.00  0.00     0.153 C
BRANCH  11  12
HETATM   12  C5  UNL     1      21.269 -14.805  -5.060  1.00  0.00     0.109 C
BRANCH  12  13
HETATM   13  C4  UNL     1      21.781 -15.855  -4.100  1.00  0.00     0.094 C
HETATM   14  C1  UNL     1      20.674 -16.843  -3.882  1.00  0.00     0.222 C
HETATM   15  O1  UNL     1      19.837 -16.900  -2.949  1.00  0.00    -0.273 OA
HETATM   16  N1  UNL     1      20.787 -17.736  -5.010  1.00  0.00    -0.361 N
HETATM   17  C2  UNL     1      22.182 -17.899  -5.359  1.00  0.00     0.123 C
ATOM     18  H1  UNL     1      20.004 -18.184  -5.487  1.00  0.00     0.162 HD
HETATM   19  C3  UNL     1      22.863 -16.705  -4.750  1.00  0.00     0.034 C
ENDBRANCH  12  13
BRANCH  12  20
HETATM   20  C16 UNL     1      22.345 -14.275  -5.914  1.00  0.00     0.226 C
HETATM   21  O9  UNL     1      22.470 -14.663  -7.098  1.00  0.00    -0.273 OA
HETATM   22  N8  UNL     1      23.300 -13.299  -5.448  1.00  0.00    -0.329 N
ATOM     23  H8  UNL     1      23.245 -12.949  -4.492  1.00  0.00     0.165 HD
BRANCH  22  24
HETATM   24  C17 UNL     1      24.335 -12.817  -6.333  1.00  0.00     0.276 C
BRANCH  24  25
HETATM   25  O10 UNL     1      25.457 -12.401  -5.557  1.00  0.00    -0.371 OA
ATOM     26  H10 UNL     1      25.282 -11.543  -5.190  1.00  0.00     0.212 HD
ENDBRANCH  24  25
BRANCH  24  27
HETATM   27  C18 UNL     1      23.954 -11.696  -7.199  1.00  0.00     0.113 A
HETATM   28  N9  UNL     1      23.204 -11.780  -8.341  1.00  0.00    -0.304 N
HETATM   29  C19 UNL     1      23.078 -10.563  -8.821  1.00  0.00     0.326 A
ATOM     30  H9  UNL     1      22.814 -12.631  -8.744  1.00  0.00     0.170 HD
HETATM   31  O11 UNL     1      22.454 -10.222  -9.865  1.00  0.00    -0.247 OA
HETATM   32  N10 UNL     1      23.710  -9.668  -8.052  1.00  0.00    -0.287 N
HETATM   33  C20 UNL     1      24.258 -10.379  -7.038  1.00  0.00     0.171 A
ATOM     34  H10 UNL     1      23.768  -8.661  -8.199  1.00  0.00     0.172 HD
BRANCH  33  35
HETATM   35  O12 UNL     1      25.013  -9.770  -6.014  1.00  0.00    -0.344 OA
ATOM     36  H12 UNL     1      24.829  -8.967  -5.541  1.00  0.00     0.219 HD
ENDBRANCH  33  35
ENDBRANCH  24  27
ENDBRANCH  22  24
ENDBRANCH  12  20
ENDBRANCH  11  12
ENDBRANCH   1  11
BRANCH   8  37
HETATM   37  C9  UNL     1      16.031 -13.762  -6.361  1.00  0.00     0.200 C
BRANCH  37  38
HETATM   38  C10 UNL     1      15.950 -14.662  -7.554  1.00  0.00     0.339 C
BRANCH  38  39
HETATM   39  O4  UNL     1      16.198 -15.966  -7.089  1.00  0.00    -0.368 OA
ATOM     40  H4  UNL     1      15.386 -16.273  -6.704  1.00  0.00     0.212 HD
ENDBRANCH  38  39
BRANCH  38  41
HETATM   41  N5  UNL     1      16.822 -14.233  -8.591  1.00  0.00    -0.026 N
ATOM     42  H52 UNL     1      16.292 -14.008  -9.433  1.00  0.00     0.282 HD
ATOM     43  H51 UNL     1      17.206 -13.313  -8.376  1.00  0.00     0.282 HD
BRANCH  41  44
HETATM   44  C11 UNL     1      17.885 -15.166  -8.897  1.00  0.00     0.302 C
HETATM   45  C12 UNL     1      19.266 -14.641  -8.708  1.00  0.00     0.195 C
HETATM   46  S1  UNL     1      19.737 -13.507  -9.964  1.00  0.00     0.154 S
HETATM   47  O5  UNL     1      19.315 -12.099  -9.727  1.00  0.00    -0.227 OA
HETATM   48  O6  UNL     1      21.261 -13.485 -10.013  1.00  0.00    -0.227 OA
HETATM   49  C13 UNL     1      19.156 -14.123 -11.523  1.00  0.00     0.218 C
HETATM   50  C14 UNL     1      18.000 -15.008 -11.385  1.00  0.00     0.113 C
HETATM   51  N6  UNL     1      17.177 -15.108 -12.402  1.00  0.00    -0.256 N
HETATM   52  N7  UNL     1      17.734 -15.760 -10.204  1.00  0.00    -0.349 N
ATOM     53  H6  UNL     1      16.366 -15.721 -12.322  1.00  0.00     0.195 HD
ATOM     54  H7  UNL     1      17.434 -16.731 -10.284  1.00  0.00     0.163 HD
BRANCH  51  55
HETATM   55  O7  UNL     1      17.371 -14.419 -13.557  1.00  0.00    -0.288 OA
ATOM     56  H7  UNL     1      18.034 -14.672 -14.189  1.00  0.00     0.244 HD
ENDBRANCH  51  55
ENDBRANCH  41  44
ENDBRANCH  38  41
ENDBRANCH  37  38
ENDBRANCH   8  37
TORSDOF 14
ENDMDL