MODEL 3
REMARK VINA RESULT: -7.393876751      1.574      2.481
REMARK  14 active torsions:
REMARK  status: ('A' for Active; 'I' for Inactive)
REMARK    1  A    between atoms: N3_5  and  C2_6
REMARK    2  A    between atoms: C2_6  and  C3_7
REMARK    3  A    between atoms: C3_7  and  N4_8
REMARK    4  A    between atoms: N4_8  and  S1_10
REMARK    5  A    between atoms: S1_10  and  C4_13
REMARK    6  A    between atoms: C7_16  and  C8_17
REMARK       I    between atoms: C8_17  and  N5_19
REMARK    7  A    between atoms: N5_19  and  C9_21
REMARK    8  A    between atoms: C9_21  and  C10_22
REMARK    9  A    between atoms: C10_22  and  O4_23
REMARK   10  A    between atoms: C11_25  and  O5_26
REMARK   11  A    between atoms: C12_30  and  O6_31
REMARK   12  A    between atoms: C13_33  and  O7_34
REMARK   13  A    between atoms: O7_34  and  S2_35
REMARK   14  A    between atoms: C14_39  and  O11_40
ROOT
HETATM    1  C4  UNL     1      16.737 -14.041 -10.632  1.00  0.00     0.079 A
HETATM    2  C5  UNL     1      16.254 -12.903 -10.048  1.00  0.00     0.026 A
HETATM    3  C6  UNL     1      17.064 -12.048  -9.305  1.00  0.00     0.018 A
HETATM    4  C7  UNL     1      18.384 -12.359  -9.158  1.00  0.00     0.032 A
HETATM    5  C15 UNL     1      18.915 -13.518  -9.743  1.00  0.00     0.018 A
HETATM    6  C16 UNL     1      18.072 -14.326 -10.465  1.00  0.00     0.026 A
ENDROOT
BRANCH   4   7
HETATM    7  C8  UNL     1      19.266 -11.479  -8.390  1.00  0.00     0.251 C
HETATM    8  O3  UNL     1      19.051 -11.315  -7.138  1.00  0.00    -0.268 OA
HETATM    9  N5  UNL     1      20.345 -10.814  -9.007  1.00  0.00    -0.354 N
ATOM     10  H5  UNL     1      20.536 -10.929 -10.001  1.00  0.00     0.162 HD
BRANCH   9  11
HETATM   11  C9  UNL     1      21.177  -9.956  -8.174  1.00  0.00     0.168 C
BRANCH  11  12
HETATM   12  C10 UNL     1      22.549  -9.727  -8.729  1.00  0.00     0.145 C
HETATM   13  C11 UNL     1      23.098  -8.384  -8.414  1.00  0.00     0.254 C
HETATM   14  N6  UNL     1      24.482  -8.205  -8.682  1.00  0.00    -0.367 N
HETATM   15  C12 UNL     1      25.288  -9.376  -8.519  1.00  0.00     0.248 C
ATOM     16  H6  UNL     1      24.873  -7.308  -8.971  1.00  0.00     0.158 HD
HETATM   17  C13 UNL     1      24.643 -10.402  -7.609  1.00  0.00     0.225 C
HETATM   18  C14 UNL     1      23.400 -10.889  -8.326  1.00  0.00     0.193 C
BRANCH  12  19
HETATM   19  O4  UNL     1      22.416  -9.795 -10.138  1.00  0.00    -0.381 OA
ATOM     20  H4  UNL     1      23.096 -10.388 -10.436  1.00  0.00     0.211 HD
ENDBRANCH  12  19
BRANCH  13  21
HETATM   21  O5  UNL     1      22.848  -7.969  -7.110  1.00  0.00    -0.374 OA
ATOM     22  H5  UNL     1      21.951  -8.105  -6.831  1.00  0.00     0.212 HD
ENDBRANCH  13  21
BRANCH  15  23
HETATM   23  O6  UNL     1      26.582  -9.144  -8.112  1.00  0.00    -0.374 OA
ATOM     24  H6  UNL     1      27.148  -9.907  -8.112  1.00  0.00     0.212 HD
ENDBRANCH  15  23
BRANCH  17  25
HETATM   25  O7  UNL     1      25.551 -11.439  -7.445  1.00  0.00    -0.244 OA
BRANCH  25  26
HETATM   26  S2  UNL     1      25.642 -11.917  -5.837  1.00  0.00     0.252 S
HETATM   27  O8  UNL     1      24.407 -12.702  -5.464  1.00  0.00    -0.572 OA
HETATM   28  O9  UNL     1      26.812 -12.869  -5.652  1.00  0.00    -0.572 OA
HETATM   29  O10 UNL     1      25.845 -10.609  -4.809  1.00  0.00    -0.572 OA
ENDBRANCH  25  26
ENDBRANCH  17  25
BRANCH  18  30
HETATM   30  O11 UNL     1      22.700 -11.817  -7.551  1.00  0.00    -0.390 OA
ATOM     31  H11 UNL     1      21.847 -12.022  -7.917  1.00  0.00     0.210 HD
ENDBRANCH  18  30
ENDBRANCH  11  12
ENDBRANCH   9  11
ENDBRANCH   4   7
BRANCH   1  32
HETATM   32  S1  UNL     1      15.711 -15.098 -11.561  1.00  0.00     0.258 S
HETATM   33  O1  UNL     1      15.039 -14.287 -12.650  1.00  0.00    -0.201 OA
HETATM   34  O2  UNL     1      16.563 -16.170 -12.179  1.00  0.00    -0.201 OA
BRANCH  32  35
HETATM   35  N4  UNL     1      14.498 -15.731 -10.551  1.00  0.00    -0.314 N
ATOM     36  H4  UNL     1      13.506 -15.549 -10.705  1.00  0.00     0.172 HD
BRANCH  35  37
HETATM   37  C3  UNL     1      14.972 -16.537  -9.472  1.00  0.00     0.154 C
BRANCH  37  38
HETATM   38  C2  UNL     1      14.501 -15.967  -8.144  1.00  0.00     0.174 C
BRANCH  38  39
HETATM   39  N3  UNL     1      15.665 -15.454  -7.466  1.00  0.00    -0.239 N
HETATM   40  N2  UNL     1      16.780 -16.158  -7.512  1.00  0.00    -0.233 N
HETATM   41  N1  UNL     1      17.874 -15.731  -6.910  1.00  0.00    -0.245 N
ATOM     42  H2  UNL     1      16.797 -17.042  -8.019  1.00  0.00     0.209 HD
HETATM   43  C1  UNL     1      19.090 -16.509  -6.967  1.00  0.00     0.183 C
HETATM   44  C19 UNL     1      17.920 -14.571  -6.223  1.00  0.00     0.294 A
HETATM   45  C18 UNL     1      16.771 -13.815  -6.159  1.00  0.00     0.166 A
HETATM   46  O13 UNL     1      18.965 -14.157  -5.645  1.00  0.00    -0.264 OA
HETATM   47  C17 UNL     1      15.637 -14.289  -6.800  1.00  0.00     0.295 A
HETATM   48  N7  UNL     1      16.807 -12.710  -5.507  1.00  0.00    -0.390 N
HETATM   49  O12 UNL     1      14.587 -13.620  -6.754  1.00  0.00    -0.264 OA
ATOM     50  H72 UNL     1      15.956 -12.151  -5.460  1.00  0.00     0.156 HD
ATOM     51  H71 UNL     1      17.641 -12.362  -5.035  1.00  0.00     0.156 HD
ENDBRANCH  38  39
ENDBRANCH  37  38
ENDBRANCH  35  37
ENDBRANCH  32  35
ENDBRANCH   1  32
TORSDOF 14
ENDMDL