MODEL 3
REMARK VINA RESULT: -6.152620121      3.095      7.661
REMARK  16 active torsions:
REMARK  status: ('A' for Active; 'I' for Inactive)
REMARK    1  A    between atoms: C2_5  and  C3_6
REMARK    2  A    between atoms: C3_6  and  N3_7
REMARK    3  A    between atoms: N3_7  and  C4_10
REMARK    4  A    between atoms: C4_10  and  C5_11
REMARK    5  A    between atoms: C4_10  and  C6_14
REMARK    6  A    between atoms: C5_11  and  O1_12
REMARK    7  A    between atoms: C6_14  and  C7_16
REMARK       I    between atoms: C7_16  and  N4_18
REMARK    8  A    between atoms: N4_18  and  C8_20
REMARK    9  A    between atoms: C11_25  and  C12_26
REMARK   10  A    between atoms: C13_31  and  O6_32
REMARK   11  A    between atoms: C16_36  and  C17_37
REMARK   12  A    between atoms: C17_37  and  N6_38
REMARK   13  A    between atoms: C17_37  and  C18_42
REMARK   14  A    between atoms: C19_46  and  O9_47
REMARK   15  A    between atoms: C20_49  and  N8_50
REMARK   16  A    between atoms: C21_54  and  O10_55
ROOT
HETATM    1  C8  UNL     1      20.790 -14.501  -8.528  1.00  0.00     0.169 C
HETATM    2  C9  UNL     1      20.866 -15.300  -9.812  1.00  0.00     0.119 C
HETATM    3  S1  UNL     1      19.433 -16.243 -10.230  1.00  0.00    -0.095 SA
HETATM    4  S2  UNL     1      17.747 -15.675  -9.139  1.00  0.00    -0.095 SA
HETATM    5  C10 UNL     1      17.238 -13.992  -9.365  1.00  0.00     0.122 C
HETATM    6  C11 UNL     1      16.249 -13.505  -8.338  1.00  0.00     0.194 C
HETATM    7  N5  UNL     1      16.851 -12.643  -7.374  1.00  0.00    -0.357 N
ATOM      8  H5  UNL     1      16.650 -11.656  -7.535  1.00  0.00     0.162 HD
HETATM    9  C13 UNL     1      17.660 -12.867  -6.254  1.00  0.00     0.135 C
HETATM   10  C14 UNL     1      19.035 -13.336  -6.100  1.00  0.00     0.163 C
HETATM   11  C15 UNL     1      19.258 -13.703  -4.576  1.00  0.00     0.061 C
HETATM   12  C16 UNL     1      18.683 -15.011  -5.109  1.00  0.00     0.130 C
HETATM   13  N7  UNL     1      19.362 -14.681  -6.408  1.00  0.00    -0.344 N
HETATM   14  C19 UNL     1      20.079 -15.217  -7.486  1.00  0.00     0.139 C
ENDROOT
BRANCH   1  15
HETATM   15  N4  UNL     1      22.198 -14.278  -8.180  1.00  0.00    -0.342 N
HETATM   16  C7  UNL     1      23.008 -13.271  -8.720  1.00  0.00     0.290 C
HETATM   17  O3  UNL     1      22.556 -12.487  -9.577  1.00  0.00    -0.264 OA
ATOM     18  H4  UNL     1      22.618 -14.903  -7.492  1.00  0.00     0.163 HD
BRANCH  16  19
HETATM   19  C6  UNL     1      24.386 -13.115  -8.305  1.00  0.00     0.249 C
HETATM   20  O2  UNL     1      25.231 -14.035  -8.582  1.00  0.00    -0.285 OA
BRANCH  19  21
HETATM   21  C4  UNL     1      24.918 -11.940  -7.556  1.00  0.00     0.288 C
BRANCH  21  22
HETATM   22  N3  UNL     1      23.785 -11.209  -6.965  1.00  0.00    -0.060 N
ATOM     23  H32 UNL     1      23.849 -11.158  -5.949  1.00  0.00     0.278 HD
ATOM     24  H31 UNL     1      22.913 -11.733  -7.032  1.00  0.00     0.278 HD
BRANCH  22  25
HETATM   25  C3  UNL     1      23.683  -9.910  -7.566  1.00  0.00     0.260 C
BRANCH  25  26
HETATM   26  C2  UNL     1      22.390  -9.244  -7.264  1.00  0.00     0.144 C
HETATM   27  N2  UNL     1      21.294 -10.204  -7.449  1.00  0.00    -0.356 N
HETATM   28  C1  UNL     1      20.663 -10.322  -8.551  1.00  0.00     0.186 C
ATOM     29  H2  UNL     1      21.027 -10.801  -6.666  1.00  0.00     0.162 HD
HETATM   30  N1  UNL     1      19.602 -11.268  -8.690  1.00  0.00    -0.064 NA
HETATM   31  N9  UNL     1      21.029  -9.503  -9.645  1.00  0.00    -0.337 N
HETATM   32  C21 UNL     1      21.603  -8.213  -9.432  1.00  0.00     0.252 C
ATOM     33  H9  UNL     1      20.880  -9.837 -10.597  1.00  0.00     0.164 HD
HETATM   34  C20 UNL     1      22.088  -7.997  -8.018  1.00  0.00     0.255 C
BRANCH  32  35
HETATM   35  O10 UNL     1      20.676  -7.185  -9.723  1.00  0.00    -0.375 OA
ATOM     36  H10 UNL     1      20.944  -6.414  -9.237  1.00  0.00     0.212 HD
ENDBRANCH  32  35
BRANCH  34  37
HETATM   37  N8  UNL     1      23.237  -7.110  -8.052  1.00  0.00    -0.069 N
ATOM     38  H83 UNL     1      24.089  -7.611  -8.306  1.00  0.00     0.275 HD
ATOM     39  H82 UNL     1      23.190  -6.468  -8.843  1.00  0.00     0.275 HD
ATOM     40  H81 UNL     1      23.345  -6.611  -7.170  1.00  0.00     0.275 HD
ENDBRANCH  34  37
ENDBRANCH  25  26
ENDBRANCH  22  25
ENDBRANCH  21  22
BRANCH  21  41
HETATM   41  C5  UNL     1      25.656 -12.565  -6.362  1.00  0.00     0.205 C
BRANCH  41  42
HETATM   42  O1  UNL     1      25.211 -12.115  -5.146  1.00  0.00    -0.398 OA
ATOM     43  H1  UNL     1      25.412 -11.201  -4.982  1.00  0.00     0.209 HD
ENDBRANCH  41  42
ENDBRANCH  21  41
ENDBRANCH  19  21
ENDBRANCH  16  19
ENDBRANCH   1  15
BRANCH  14  44
HETATM   44  O9  UNL     1      20.110 -16.522  -7.551  1.00  0.00    -0.348 OA
ATOM     45  H9  UNL     1      20.744 -16.901  -8.148  1.00  0.00     0.219 HD
ENDBRANCH  14  44
BRANCH  12  46
HETATM   46  C17 UNL     1      19.230 -16.221  -4.448  1.00  0.00     0.306 C
BRANCH  46  47
HETATM   47  N6  UNL     1      19.410 -16.126  -3.040  1.00  0.00    -0.063 N
ATOM     48  H63 UNL     1      18.708 -15.504  -2.640  1.00  0.00     0.275 HD
ATOM     49  H62 UNL     1      19.147 -17.006  -2.597  1.00  0.00     0.275 HD
ATOM     50  H61 UNL     1      20.340 -15.845  -2.730  1.00  0.00     0.275 HD
ENDBRANCH  46  47
BRANCH  46  51
HETATM   51  C18 UNL     1      18.260 -17.358  -4.673  1.00  0.00     0.206 C
HETATM   52  O7  UNL     1      17.918 -18.127  -3.722  1.00  0.00    -0.646 OA
HETATM   53  O8  UNL     1      17.742 -17.562  -5.931  1.00  0.00    -0.646 OA
ENDBRANCH  46  51
ENDBRANCH  12  46
BRANCH   9  54
HETATM   54  O6  UNL     1      17.064 -12.595  -5.128  1.00  0.00    -0.348 OA
ATOM     55  H6  UNL     1      17.313 -11.752  -4.768  1.00  0.00     0.219 HD
ENDBRANCH   9  54
BRANCH   6  56
HETATM   56  C12 UNL     1      15.366 -14.574  -7.821  1.00  0.00     0.197 C
HETATM   57  O4  UNL     1      15.429 -15.044  -6.662  1.00  0.00    -0.646 OA
HETATM   58  O5  UNL     1      14.422 -15.079  -8.680  1.00  0.00    -0.646 OA
ENDBRANCH   6  56
TORSDOF 16
ENDMDL