MODEL 5
REMARK VINA RESULT: -6.936873317      3.121      7.827
REMARK  16 active torsions:
REMARK  status: ('A' for Active; 'I' for Inactive)
REMARK    1  A    between atoms: O1_2  and  N1_3
REMARK    2  A    between atoms: C2_5  and  C3_6
REMARK    3  A    between atoms: C2_5  and  C18_48
REMARK       I    between atoms: C3_6  and  N2_8
REMARK    4  A    between atoms: N2_8  and  C4_10
REMARK    5  A    between atoms: C4_10  and  C5_11
REMARK    6  A    between atoms: C4_10  and  C15_43
REMARK       I    between atoms: C5_11  and  N3_13
REMARK    7  A    between atoms: N3_13  and  C6_15
REMARK    8  A    between atoms: C6_15  and  C7_16
REMARK    9  A    between atoms: C8_19  and  N5_20
REMARK   10  A    between atoms: C11_30  and  N9_31
REMARK   11  A    between atoms: C13_37  and  O5_38
REMARK   12  A    between atoms: C14_40  and  O6_41
REMARK   13  A    between atoms: C15_43  and  O7_46
REMARK   14  A    between atoms: C19_51  and  N12_52
REMARK   15  A    between atoms: C21_58  and  C22_59
REMARK       I    between atoms: C22_59  and  N14_61
REMARK   16  A    between atoms: N15_63  and  N16_65
ROOT
HETATM    1  C4  UNL     1      17.814 -14.760 -11.073  1.00  0.00     0.210 C
ENDROOT
BRANCH   1   2
HETATM    2  N2  UNL     1      17.749 -13.569 -10.181  1.00  0.00    -0.339 N
HETATM    3  C3  UNL     1      18.073 -13.635  -8.842  1.00  0.00     0.273 C
HETATM    4  O2  UNL     1      18.410 -14.814  -8.424  1.00  0.00    -0.266 OA
ATOM      5  H2  UNL     1      17.456 -12.675 -10.574  1.00  0.00     0.163 HD
BRANCH   3   6
HETATM    6  C2  UNL     1      18.074 -12.584  -7.866  1.00  0.00     0.150 C
HETATM    7  N1  UNL     1      16.933 -12.311  -7.233  1.00  0.00    -0.260 N
ATOM      8  H1  UNL     1      16.907 -11.568  -6.535  1.00  0.00     0.194 HD
BRANCH   7   9
HETATM    9  O1  UNL     1      15.808 -13.011  -7.505  1.00  0.00    -0.285 OA
HETATM   10  C1  UNL     1      14.830 -13.393  -6.585  1.00  0.00     0.237 C
ENDBRANCH   7   9
BRANCH   6  11
HETATM   11  C18 UNL     1      19.179 -11.726  -7.478  1.00  0.00     0.100 A
HETATM   12  N11 UNL     1      19.454 -10.663  -8.296  1.00  0.00    -0.189 N
HETATM   13  C19 UNL     1      20.617  -9.993  -8.157  1.00  0.00     0.676 A
ATOM     14  H11 UNL     1      18.781 -10.377  -9.008  1.00  0.00     0.184 HD
HETATM   15  N13 UNL     1      21.536 -10.322  -7.244  1.00  0.00    -0.201 N
HETATM   16  C20 UNL     1      21.337 -11.343  -6.413  1.00  0.00     0.125 A
ATOM     17  H13 UNL     1      22.401  -9.784  -7.183  1.00  0.00     0.183 HD
HETATM   18  C21 UNL     1      20.124 -12.055  -6.538  1.00  0.00     0.079 A
BRANCH  13  19
HETATM   19  N12 UNL     1      20.849  -8.982  -8.949  1.00  0.00    -0.234 N
ATOM     20 2H12 UNL     1      21.391  -9.137  -9.799  1.00  0.00     0.174 HD
ATOM     21 1H12 UNL     1      20.479  -8.068  -8.689  1.00  0.00     0.174 HD
ENDBRANCH  13  19
BRANCH  18  22
HETATM   22  C22 UNL     1      19.912 -12.989  -5.454  1.00  0.00     0.274 C
HETATM   23  O8  UNL     1      18.964 -12.952  -4.669  1.00  0.00    -0.266 OA
HETATM   24  N14 UNL     1      20.842 -14.073  -5.220  1.00  0.00    -0.252 N
HETATM   25  N15 UNL     1      21.440 -13.989  -4.094  1.00  0.00    -0.246 N
ATOM     26  H14 UNL     1      21.004 -14.828  -5.887  1.00  0.00     0.191 HD
ATOM     27  H15 UNL     1      22.112 -14.721  -3.860  1.00  0.00     0.207 HD
BRANCH  25  28
HETATM   28  N16 UNL     1      21.242 -12.974  -3.163  1.00  0.00    -0.331 N
ATOM     29 2H16 UNL     1      20.627 -12.211  -3.445  1.00  0.00     0.178 HD
ATOM     30 1H16 UNL     1      21.664 -12.944  -2.234  1.00  0.00     0.178 HD
ENDBRANCH  25  28
ENDBRANCH  18  22
ENDBRANCH   6  11
ENDBRANCH   3   6
ENDBRANCH   1   2
BRANCH   1  31
HETATM   31  C5  UNL     1      19.020 -14.574 -11.916  1.00  0.00     0.243 C
HETATM   32  O3  UNL     1      19.397 -15.581 -12.631  1.00  0.00    -0.271 OA
HETATM   33  N3  UNL     1      19.799 -13.425 -12.025  1.00  0.00    -0.354 N
ATOM     34  H3  UNL     1      19.545 -12.597 -11.487  1.00  0.00     0.162 HD
BRANCH  33  35
HETATM   35  C6  UNL     1      20.959 -13.381 -12.884  1.00  0.00     0.177 C
BRANCH  35  36
HETATM   36  C7  UNL     1      22.228 -13.342 -12.104  1.00  0.00     0.033 C
HETATM   37  N4  UNL     1      22.400 -12.984 -10.901  1.00  0.00    -0.368 N
HETATM   38  C8  UNL     1      23.750 -13.087 -10.517  1.00  0.00     0.240 C
ATOM     39  H4  UNL     1      21.652 -12.661 -10.287  1.00  0.00     0.161 HD
HETATM   40  C13 UNL     1      24.506 -12.982 -11.815  1.00  0.00     0.196 C
HETATM   41  C14 UNL     1      23.538 -13.754 -12.728  1.00  0.00     0.197 C
BRANCH  38  42
HETATM   42  N5  UNL     1      24.181 -12.123  -9.541  1.00  0.00    -0.233 N
HETATM   43  N6  UNL     1      24.357 -10.835  -9.801  1.00  0.00    -0.236 N
HETATM   44  N7  UNL     1      24.748 -10.210  -8.719  1.00  0.00    -0.278 N
ATOM     45  H6  UNL     1      24.208 -10.396 -10.709  1.00  0.00     0.208 HD
HETATM   46  C9  UNL     1      24.833 -11.117  -7.717  1.00  0.00     0.164 A
ATOM     47  H7  UNL     1      24.953  -9.213  -8.644  1.00  0.00     0.189 HD
HETATM   48  C10 UNL     1      25.182 -11.042  -6.400  1.00  0.00     0.291 A
HETATM   49  C12 UNL     1      24.468 -12.320  -8.261  1.00  0.00     0.175 A
HETATM   50  O4  UNL     1      25.512  -9.909  -5.936  1.00  0.00    -0.265 OA
HETATM   51  N8  UNL     1      25.164 -12.154  -5.647  1.00  0.00    -0.154 N
HETATM   52  C11 UNL     1      24.803 -13.322  -6.204  1.00  0.00     0.680 A
ATOM     53  H8  UNL     1      25.422 -12.112  -4.661  1.00  0.00     0.187 HD
HETATM   54  N10 UNL     1      24.456 -13.419  -7.497  1.00  0.00    -0.173 N
ATOM     55  H10 UNL     1      24.187 -14.319  -7.893  1.00  0.00     0.186 HD
BRANCH  52  56
HETATM   56  N9  UNL     1      24.778 -14.418  -5.489  1.00  0.00    -0.234 N
ATOM     57  H92 UNL     1      24.691 -14.319  -4.477  1.00  0.00     0.174 HD
ATOM     58  H91 UNL     1      24.845 -15.331  -5.939  1.00  0.00     0.174 HD
ENDBRANCH  52  56
ENDBRANCH  38  42
BRANCH  40  59
HETATM   59  O5  UNL     1      25.746 -13.610 -11.757  1.00  0.00    -0.389 OA
ATOM     60  H5  UNL     1      26.302 -13.379 -12.492  1.00  0.00     0.210 HD
ENDBRANCH  40  59
BRANCH  41  61
HETATM   61  O6  UNL     1      23.686 -15.101 -12.468  1.00  0.00    -0.387 OA
ATOM     62  H6  UNL     1      24.486 -15.371 -12.904  1.00  0.00     0.210 HD
ENDBRANCH  41  61
ENDBRANCH  35  36
ENDBRANCH  33  35
ENDBRANCH   1  31
BRANCH   1  63
HETATM   63  C15 UNL     1      16.606 -14.732 -11.983  1.00  0.00     0.080 C
HETATM   64  C16 UNL     1      15.897 -16.046 -11.927  1.00  0.00     0.048 C
HETATM   65  C17 UNL     1      15.607 -13.679 -11.525  1.00  0.00     0.048 C
BRANCH  63  66
HETATM   66  O7  UNL     1      17.048 -14.408 -13.248  1.00  0.00    -0.388 OA
ATOM     67  H7  UNL     1      16.284 -14.193 -13.770  1.00  0.00     0.210 HD
ENDBRANCH  63  66
ENDBRANCH   1  63
TORSDOF 16
ENDMDL