MODEL 4
REMARK VINA RESULT: -6.635034304      2.616      7.027
REMARK  17 active torsions:
REMARK  status: ('A' for Active; 'I' for Inactive)
REMARK    1  A    between atoms: N1_1  and  C1_5
REMARK    2  A    between atoms: C1_5  and  N2_6
REMARK    3  A    between atoms: C1_5  and  C2_10
REMARK    4  A    between atoms: C3_13  and  C4_14
REMARK    5  A    between atoms: C4_14  and  N4_15
REMARK       I    between atoms: N4_15  and  C5_17
REMARK    6  A    between atoms: C5_17  and  C6_19
REMARK    7  A    between atoms: C6_19  and  N5_20
REMARK    8  A    between atoms: C8_27  and  N8_28
REMARK    9  A    between atoms: N8_28  and  C9_30
REMARK   10  A    between atoms: C9_30  and  O3_31
REMARK   11  A    between atoms: C9_30  and  C10_33
REMARK   12  A    between atoms: C10_33  and  C11_34
REMARK   13  A    between atoms: C11_34  and  O4_35
REMARK   14  A    between atoms: N10_38  and  O5_39
REMARK   15  A    between atoms: C15_49  and  C16_50
REMARK   16  A    between atoms: C16_50  and  N12_51
REMARK   17  A    between atoms: C22_61  and  O10_62
ROOT
HETATM    1  N4  UNL     1      19.365 -11.762  -8.508  1.00  0.00    -0.354 N
ATOM      2  H4  UNL     1      19.123 -11.899  -7.527  1.00  0.00     0.162 HD
HETATM    3  C5  UNL     1      20.499 -10.935  -8.868  1.00  0.00     0.237 C
HETATM    4  O1  UNL     1      20.774 -10.781 -10.075  1.00  0.00    -0.272 OA
ENDROOT
BRANCH   3   5
HETATM    5  C6  UNL     1      21.317 -10.286  -7.831  1.00  0.00     0.255 C
BRANCH   5   6
HETATM    6  N5  UNL     1      21.961 -11.313  -7.000  1.00  0.00    -0.242 N
HETATM    7  N6  UNL     1      23.123 -11.790  -7.339  1.00  0.00    -0.246 N
HETATM    8  C7  UNL     1      23.702 -12.740  -6.558  1.00  0.00     0.340 A
ATOM      9  H6  UNL     1      23.593 -11.455  -8.180  1.00  0.00     0.192 HD
HETATM   10  O2  UNL     1      24.821 -13.181  -6.907  1.00  0.00    -0.245 OA
HETATM   11  N7  UNL     1      23.079 -13.174  -5.460  1.00  0.00    -0.289 N
HETATM   12  C8  UNL     1      21.893 -12.730  -5.059  1.00  0.00     0.182 A
ATOM     13  H7  UNL     1      23.541 -13.888  -4.897  1.00  0.00     0.172 HD
HETATM   14  C14 UNL     1      21.339 -11.745  -5.906  1.00  0.00     0.306 A
HETATM   15  O8  UNL     1      20.218 -11.295  -5.567  1.00  0.00    -0.262 OA
BRANCH  12  16
HETATM   16  N8  UNL     1      21.249 -13.187  -3.922  1.00  0.00    -0.320 N
ATOM     17  H8  UNL     1      21.278 -12.501  -3.168  1.00  0.00     0.169 HD
BRANCH  16  18
HETATM   18  C9  UNL     1      20.579 -14.331  -3.550  1.00  0.00     0.156 C
BRANCH  18  19
HETATM   19  O3  UNL     1      20.344 -14.349  -2.223  1.00  0.00    -0.347 OA
ATOM     20  H3  UNL     1      20.016 -15.195  -1.943  1.00  0.00     0.219 HD
ENDBRANCH  18  19
BRANCH  18  21
HETATM   21  C10 UNL     1      20.073 -15.509  -4.254  1.00  0.00     0.218 C
HETATM   22  N9  UNL     1      21.171 -15.960  -5.197  1.00  0.00    -0.076 NA
HETATM   23  N10 UNL     1      22.272 -16.341  -4.472  1.00  0.00    -0.111 N
HETATM   24  C12 UNL     1      22.199 -16.887  -3.176  1.00  0.00     0.365 C
HETATM   25  O6  UNL     1      23.260 -17.236  -2.539  1.00  0.00    -0.243 OA
HETATM   26  N11 UNL     1      20.940 -17.064  -2.546  1.00  0.00    -0.274 N
HETATM   27  C13 UNL     1      19.818 -16.634  -3.362  1.00  0.00     0.262 C
ATOM     28  H11 UNL     1      20.833 -17.454  -1.609  1.00  0.00     0.173 HD
HETATM   29  O7  UNL     1      18.725 -17.204  -3.295  1.00  0.00    -0.270 OA
BRANCH  21  30
HETATM   30  C11 UNL     1      18.920 -15.257  -5.164  1.00  0.00     0.211 C
BRANCH  30  31
HETATM   31  O4  UNL     1      18.840 -13.861  -5.396  1.00  0.00    -0.398 OA
ATOM     32  H4  UNL     1      19.239 -13.679  -6.238  1.00  0.00     0.209 HD
ENDBRANCH  30  31
ENDBRANCH  21  30
BRANCH  23  33
HETATM   33  O5  UNL     1      23.526 -16.183  -5.038  1.00  0.00    -0.267 OA
ATOM     34  H5  UNL     1      24.115 -15.537  -4.666  1.00  0.00     0.246 HD
ENDBRANCH  23  33
ENDBRANCH  18  21
ENDBRANCH  16  18
ENDBRANCH  12  16
ENDBRANCH   5   6
ENDBRANCH   3   5
BRANCH   1  35
HETATM   35  C4  UNL     1      18.584 -12.385  -9.533  1.00  0.00     0.180 C
BRANCH  35  36
HETATM   36  C3  UNL     1      17.495 -13.247  -9.112  1.00  0.00     0.042 A
HETATM   37  N3  UNL     1      16.915 -13.129  -7.915  1.00  0.00    -0.355 N
HETATM   38  C2  UNL     1      15.892 -13.909  -7.472  1.00  0.00     0.105 A
ATOM     39  H3  UNL     1      17.263 -12.403  -7.288  1.00  0.00     0.166 HD
HETATM   40  C22 UNL     1      15.431 -14.879  -8.312  1.00  0.00     0.143 A
HETATM   41  C21 UNL     1      16.023 -15.030  -9.589  1.00  0.00     0.220 A
HETATM   42  C15 UNL     1      17.049 -14.238 -10.018  1.00  0.00     0.051 A
HETATM   43  O9  UNL     1      15.509 -15.951 -10.271  1.00  0.00    -0.284 OA
BRANCH  38  44
HETATM   44  C1  UNL     1      15.329 -13.603  -6.136  1.00  0.00     0.430 C
BRANCH  44  45
HETATM   45  N1  UNL     1      14.135 -12.807  -6.301  1.00  0.00    -0.045 N
ATOM     46  H13 UNL     1      13.276 -13.354  -6.255  1.00  0.00     0.277 HD
ATOM     47  H12 UNL     1      13.942 -12.199  -5.505  1.00  0.00     0.277 HD
ATOM     48  H11 UNL     1      14.246 -12.301  -7.179  1.00  0.00     0.277 HD
ENDBRANCH  44  45
BRANCH  44  49
HETATM   49  N2  UNL     1      16.252 -12.802  -5.359  1.00  0.00    -0.045 N
ATOM     50  H23 UNL     1      17.003 -13.347  -4.935  1.00  0.00     0.277 HD
ATOM     51  H22 UNL     1      16.841 -12.196  -5.930  1.00  0.00     0.277 HD
ATOM     52  H21 UNL     1      15.688 -12.292  -4.678  1.00  0.00     0.277 HD
ENDBRANCH  44  49
ENDBRANCH  38  44
BRANCH  40  53
HETATM   53  O10 UNL     1      14.408 -15.720  -7.947  1.00  0.00    -0.355 OA
ATOM     54  H10 UNL     1      13.628 -15.816  -8.482  1.00  0.00     0.218 HD
ENDBRANCH  40  53
BRANCH  42  55
HETATM   55  C16 UNL     1      17.685 -14.296 -11.314  1.00  0.00     0.077 C
BRANCH  55  56
HETATM   56  N12 UNL     1      18.525 -15.425 -11.609  1.00  0.00    -0.288 NA
HETATM   57  C17 UNL     1      18.457 -15.664 -13.049  1.00  0.00     0.122 C
HETATM   58  C18 UNL     1      19.646 -16.358 -13.614  1.00  0.00     0.247 C
HETATM   59  N13 UNL     1      20.764 -15.415 -13.683  1.00  0.00    -0.073 N
HETATM   60  C19 UNL     1      20.486 -14.437 -12.648  1.00  0.00     0.247 C
ATOM     61 2H13 UNL     1      21.681 -15.853 -13.605  1.00  0.00     0.277 HD
ATOM     62 1H13 UNL     1      20.908 -15.010 -14.608  1.00  0.00     0.277 HD
HETATM   63  C20 UNL     1      19.948 -15.069 -11.388  1.00  0.00     0.122 C
ENDBRANCH  55  56
ENDBRANCH  42  55
ENDBRANCH  35  36
ENDBRANCH   1  35
TORSDOF 17
ENDMDL