MODEL 2
REMARK VINA RESULT: -7.132738661      0.025      1.173
REMARK  16 active torsions:
REMARK  status: ('A' for Active; 'I' for Inactive)
REMARK    1  A    between atoms: S1_2  and  N1_5
REMARK       I    between atoms: N1_5  and  C2_7
REMARK    2  A    between atoms: C2_7  and  C3_9
REMARK    3  A    between atoms: C4_12  and  C5_13
REMARK    4  A    between atoms: C5_13  and  N3_14
REMARK    5  A    between atoms: N3_14  and  C6_16
REMARK    6  A    between atoms: C6_16  and  C7_17
REMARK    7  A    between atoms: C6_16  and  C12_28
REMARK    8  A    between atoms: C7_17  and  N4_18
REMARK       I    between atoms: N4_18  and  C8_20
REMARK    9  A    between atoms: C8_20  and  C9_22
REMARK   10  A    between atoms: C12_28  and  C13_29
REMARK   11  A    between atoms: C12_28  and  N7_32
REMARK   12  A    between atoms: C14_33  and  O7_34
REMARK   13  A    between atoms: C17_38  and  O8_39
REMARK   14  A    between atoms: C18_41  and  O9_42
REMARK   15  A    between atoms: C19_44  and  O10_45
REMARK   16  A    between atoms: C22_52  and  O12_53
ROOT
HETATM    1  C5  UNL     1      22.012  -9.984  -6.821  1.00  0.00     0.151 C
ENDROOT
BRANCH   1   2
HETATM    2  C4  UNL     1      21.086 -11.056  -7.293  1.00  0.00     0.205 C
HETATM    3  O4  UNL     1      19.996 -10.305  -7.882  1.00  0.00    -0.275 OA
HETATM    4  N2  UNL     1      19.303 -11.137  -8.650  1.00  0.00    -0.082 NA
HETATM    5  C3  UNL     1      18.440 -11.949  -7.778  1.00  0.00     0.246 C
HETATM    6  C22 UNL     1      19.254 -12.705  -6.825  1.00  0.00     0.203 C
HETATM    7  C18 UNL     1      20.501 -11.973  -6.295  1.00  0.00     0.156 C
HETATM    8  C21 UNL     1      18.558 -13.053  -5.543  1.00  0.00     0.258 C
HETATM    9  C19 UNL     1      21.394 -13.025  -5.744  1.00  0.00     0.176 C
HETATM   10  C20 UNL     1      20.763 -13.796  -4.622  1.00  0.00     0.157 C
HETATM   11  N8  UNL     1      19.315 -13.846  -4.647  1.00  0.00    -0.356 N
ATOM     12  H8  UNL     1      18.829 -14.469  -4.003  1.00  0.00     0.162 HD
HETATM   13  O11 UNL     1      17.431 -12.675  -5.300  1.00  0.00    -0.270 OA
BRANCH   5  14
HETATM   14  C2  UNL     1      17.620 -12.766  -8.680  1.00  0.00     0.256 C
HETATM   15  N1  UNL     1      16.466 -13.503  -8.414  1.00  0.00    -0.253 N
ATOM     16  H1  UNL     1      16.098 -13.533  -7.464  1.00  0.00     0.181 HD
HETATM   17  O3  UNL     1      18.009 -12.817  -9.919  1.00  0.00    -0.270 OA
BRANCH  15  18
HETATM   18  S1  UNL     1      15.637 -14.380  -9.692  1.00  0.00     0.229 S
HETATM   19  C1  UNL     1      16.571 -15.863 -10.061  1.00  0.00     0.186 C
HETATM   20  O1  UNL     1      14.278 -14.719  -9.170  1.00  0.00    -0.206 OA
HETATM   21  O2  UNL     1      15.509 -13.537 -10.917  1.00  0.00    -0.206 OA
ENDBRANCH  15  18
ENDBRANCH   5  14
BRANCH   6  22
HETATM   22  O12 UNL     1      19.640 -13.928  -7.398  1.00  0.00    -0.375 OA
ATOM     23  H12 UNL     1      20.587 -13.974  -7.446  1.00  0.00     0.211 HD
ENDBRANCH   6  22
BRANCH   7  24
HETATM   24  O9  UNL     1      19.994 -11.241  -5.180  1.00  0.00    -0.381 OA
ATOM     25  H9  UNL     1      19.123 -10.909  -5.368  1.00  0.00     0.211 HD
ENDBRANCH   7  24
BRANCH   9  26
HETATM   26  O10 UNL     1      21.876 -13.926  -6.687  1.00  0.00    -0.391 OA
ATOM     27  H10 UNL     1      22.529 -13.569  -7.277  1.00  0.00     0.210 HD
ENDBRANCH   9  26
ENDBRANCH   1   2
BRANCH   1  28
HETATM   28  N3  UNL     1      22.893  -9.441  -7.822  1.00  0.00    -0.410 N
ATOM     29  H3  UNL     1      23.061  -8.440  -7.921  1.00  0.00     0.153 HD
BRANCH  28  30
HETATM   30  C6  UNL     1      23.516 -10.418  -8.673  1.00  0.00     0.126 C
BRANCH  30  31
HETATM   31  C7  UNL     1      22.930 -10.175 -10.052  1.00  0.00     0.149 C
BRANCH  31  32
HETATM   32  N4  UNL     1      21.950 -11.084 -10.508  1.00  0.00    -0.357 N
HETATM   33  C8  UNL     1      22.007 -11.705 -11.805  1.00  0.00     0.248 C
HETATM   34  O5  UNL     1      22.980 -11.394 -12.529  1.00  0.00    -0.271 OA
ATOM     35  H4  UNL     1      21.170 -11.311  -9.891  1.00  0.00     0.162 HD
BRANCH  33  36
HETATM   36  C9  UNL     1      20.946 -12.679 -12.247  1.00  0.00     0.278 C
HETATM   37  C10 UNL     1      20.876 -13.871 -11.326  1.00  0.00     0.070 C
HETATM   38  C11 UNL     1      20.991 -14.679 -12.577  1.00  0.00     0.236 C
HETATM   39  N5  UNL     1      21.489 -13.520 -13.271  1.00  0.00    -0.062 N
ATOM     40  H52 UNL     1      21.239 -13.362 -14.248  1.00  0.00     0.278 HD
ATOM     41  H51 UNL     1      22.477 -13.455 -13.516  1.00  0.00     0.278 HD
ENDBRANCH  33  36
ENDBRANCH  31  32
ENDBRANCH  30  31
BRANCH  30  42
HETATM   42  C12 UNL     1      24.985 -10.466  -8.754  1.00  0.00     0.207 C
BRANCH  42  43
HETATM   43  C13 UNL     1      25.697  -9.194  -8.857  1.00  0.00     0.256 C
HETATM   44  N6  UNL     1      26.572  -8.998  -9.989  1.00  0.00    -0.060 NA
HETATM   45  O6  UNL     1      25.651  -8.222  -8.076  1.00  0.00    -0.274 OA
ENDBRANCH  42  43
BRANCH  42  46
HETATM   46  N7  UNL     1      25.573 -11.388  -7.776  1.00  0.00    -0.293 N
HETATM   47  C14 UNL     1      25.699 -11.232  -6.445  1.00  0.00     0.144 A
HETATM   48  C15 UNL     1      26.307 -12.309  -5.881  1.00  0.00     0.060 A
HETATM   49  C16 UNL     1      26.575 -13.182  -6.892  1.00  0.00     0.060 A
HETATM   50  C17 UNL     1      26.106 -12.578  -8.066  1.00  0.00     0.144 A
BRANCH  47  51
HETATM   51  O7  UNL     1      25.266 -10.117  -5.747  1.00  0.00    -0.346 OA
ATOM     52  H7  UNL     1      25.603  -9.854  -4.898  1.00  0.00     0.219 HD
ENDBRANCH  47  51
BRANCH  50  53
HETATM   53  O8  UNL     1      26.241 -13.235  -9.278  1.00  0.00    -0.346 OA
ATOM     54  H8  UNL     1      26.953 -13.233  -9.907  1.00  0.00     0.219 HD
ENDBRANCH  50  53
ENDBRANCH  42  46
ENDBRANCH  30  42
ENDBRANCH  28  30
ENDBRANCH   1  28
TORSDOF 16
ENDMDL