MODEL 4
REMARK VINA RESULT: -7.512044644      1.082      1.586
REMARK  15 active torsions:
REMARK  status: ('A' for Active; 'I' for Inactive)
REMARK    1  A    between atoms: N1_1  and  C1_4
REMARK    2  A    between atoms: N5_14  and  C4_15
REMARK    3  A    between atoms: C4_15  and  C5_16
REMARK    4  A    between atoms: C5_16  and  C6_17
REMARK    5  A    between atoms: C6_17  and  N6_18
REMARK       I    between atoms: N6_18  and  C7_20
REMARK    6  A    between atoms: C7_20  and  C8_22
REMARK    7  A    between atoms: C8_22  and  C9_23
REMARK    8  A    between atoms: C11_28  and  N8_29
REMARK    9  A    between atoms: N9_31  and  N10_33
REMARK   10  A    between atoms: C12_36  and  O3_37
REMARK   11  A    between atoms: O3_37  and  C13_38
REMARK   12  A    between atoms: C15_40  and  O4_41
REMARK   13  A    between atoms: C16_43  and  N11_44
REMARK   14  A    between atoms: C22_54  and  O7_55
REMARK   15  A    between atoms: C23_57  and  O8_58
ROOT
HETATM    1  C9  UNL     1      26.219 -11.596  -8.347  1.00  0.00     0.225 C
HETATM    2  N7  UNL     1      26.673 -10.299  -8.717  1.00  0.00    -0.066 N
ATOM      3  H71 UNL     1      26.611 -10.160  -9.725  1.00  0.00     0.277 HD
ATOM      4  H72 UNL     1      27.683 -10.215  -8.604  1.00  0.00     0.277 HD
HETATM    5  C10 UNL     1      25.996  -9.277  -8.018  1.00  0.00     0.262 C
HETATM    6  C11 UNL     1      24.487  -9.374  -8.150  1.00  0.00     0.158 C
HETATM    7  C12 UNL     1      24.121 -10.439  -9.170  1.00  0.00     0.178 C
HETATM    8  C23 UNL     1      24.767 -11.734  -8.737  1.00  0.00     0.180 C
ENDROOT
BRANCH   1   9
HETATM    9  C8  UNL     1      26.346 -11.794  -6.875  1.00  0.00     0.138 C
BRANCH   9  10
HETATM   10  C7  UNL     1      25.338 -12.726  -6.304  1.00  0.00     0.219 C
HETATM   11  N6  UNL     1      25.215 -14.068  -6.706  1.00  0.00    -0.361 N
ATOM     12  H6  UNL     1      25.853 -14.409  -7.425  1.00  0.00     0.162 HD
HETATM   13  O2  UNL     1      24.561 -12.301  -5.426  1.00  0.00    -0.274 OA
BRANCH  11  14
HETATM   14  C6  UNL     1      24.259 -14.986  -6.180  1.00  0.00     0.124 C
BRANCH  14  15
HETATM   15  C5  UNL     1      24.769 -16.357  -5.911  1.00  0.00     0.041 C
BRANCH  15  16
HETATM   16  C4  UNL     1      24.304 -16.926  -4.588  1.00  0.00     0.154 C
BRANCH  16  17
HETATM   17  N5  UNL     1      22.882 -17.178  -4.551  1.00  0.00    -0.260 N
HETATM   18  N4  UNL     1      22.283 -18.294  -4.951  1.00  0.00    -0.238 N
HETATM   19  N3  UNL     1      20.993 -18.224  -4.796  1.00  0.00    -0.278 N
ATOM     20  H4  UNL     1      22.773 -19.104  -5.331  1.00  0.00     0.208 HD
HETATM   21  C3  UNL     1      20.702 -17.039  -4.280  1.00  0.00     0.164 A
ATOM     22  H3  UNL     1      20.321 -18.955  -5.031  1.00  0.00     0.189 HD
HETATM   23  C2  UNL     1      19.513 -16.409  -3.904  1.00  0.00     0.291 A
HETATM   24  C24 UNL     1      21.900 -16.365  -4.120  1.00  0.00     0.172 A
HETATM   25  N2  UNL     1      19.563 -15.167  -3.398  1.00  0.00    -0.154 N
HETATM   26  O1  UNL     1      18.441 -17.048  -4.061  1.00  0.00    -0.265 OA
HETATM   27  C1  UNL     1      20.760 -14.553  -3.263  1.00  0.00     0.680 A
ATOM     28  H2  UNL     1      18.706 -14.691  -3.117  1.00  0.00     0.187 HD
HETATM   29  N13 UNL     1      21.906 -15.130  -3.613  1.00  0.00    -0.173 N
ATOM     30  H13 UNL     1      22.787 -14.631  -3.493  1.00  0.00     0.186 HD
BRANCH  27  31
HETATM   31  N1  UNL     1      20.766 -13.369  -2.778  1.00  0.00    -0.234 N
ATOM     32  H12 UNL     1      20.545 -12.574  -3.377  1.00  0.00     0.174 HD
ATOM     33  H11 UNL     1      20.997 -13.265  -1.789  1.00  0.00     0.174 HD
ENDBRANCH  27  31
ENDBRANCH  16  17
ENDBRANCH  15  16
ENDBRANCH  14  15
ENDBRANCH  11  14
ENDBRANCH   9  10
ENDBRANCH   1   9
BRANCH   8  34
HETATM   34  O8  UNL     1      24.615 -12.721  -9.713  1.00  0.00    -0.391 OA
ATOM     35  H8  UNL     1      23.743 -13.097  -9.672  1.00  0.00     0.210 HD
ENDBRANCH   8  34
BRANCH   7  36
HETATM   36  O3  UNL     1      22.773 -10.666  -9.259  1.00  0.00    -0.373 OA
BRANCH  36  37
HETATM   37  C13 UNL     1      22.272 -11.526  -8.304  1.00  0.00     0.153 C
HETATM   38  C14 UNL     1      21.559 -10.770  -7.174  1.00  0.00     0.068 C
HETATM   39  C15 UNL     1      20.569 -11.761  -6.541  1.00  0.00     0.144 C
HETATM   40  C16 UNL     1      19.431 -11.822  -7.562  1.00  0.00     0.125 C
HETATM   41  C21 UNL     1      19.950 -12.423  -8.805  1.00  0.00     0.062 C
HETATM   42  C22 UNL     1      21.433 -12.571  -8.926  1.00  0.00     0.149 C
BRANCH  39  43
HETATM   43  O4  UNL     1      20.133 -11.318  -5.316  1.00  0.00    -0.393 OA
ATOM     44  H4  UNL     1      20.716 -11.598  -4.620  1.00  0.00     0.210 HD
ENDBRANCH  39  43
BRANCH  40  45
HETATM   45  N11 UNL     1      18.219 -12.361  -7.029  1.00  0.00    -0.302 N
HETATM   46  C17 UNL     1      18.194 -13.524  -6.349  1.00  0.00     0.102 A
HETATM   47  C18 UNL     1      17.064 -14.092  -5.812  1.00  0.00     0.092 A
HETATM   48  C19 UNL     1      15.850 -13.436  -5.974  1.00  0.00     0.250 A
HETATM   49  O5  UNL     1      14.790 -13.923  -5.500  1.00  0.00    -0.268 OA
HETATM   50  N12 UNL     1      15.876 -12.277  -6.653  1.00  0.00    -0.275 N
HETATM   51  C20 UNL     1      17.014 -11.754  -7.164  1.00  0.00     0.329 A
ATOM     52  H12 UNL     1      15.001 -11.770  -6.789  1.00  0.00     0.173 HD
HETATM   53  O6  UNL     1      16.906 -10.681  -7.768  1.00  0.00    -0.246 OA
ENDBRANCH  40  45
BRANCH  42  54
HETATM   54  O7  UNL     1      21.862 -13.863  -8.529  1.00  0.00    -0.393 OA
ATOM     55  H7  UNL     1      22.369 -13.817  -7.726  1.00  0.00     0.210 HD
ENDBRANCH  42  54
ENDBRANCH  36  37
ENDBRANCH   7  36
BRANCH   6  56
HETATM   56  N8  UNL     1      24.018  -8.059  -8.510  1.00  0.00    -0.314 N
HETATM   57  N9  UNL     1      22.837  -7.667  -8.470  1.00  0.00    -0.253 N
ATOM     58  H9  UNL     1      22.101  -8.300  -8.160  1.00  0.00     0.207 HD
ATOM     59  H8  UNL     1      24.718  -7.388  -8.827  1.00  0.00     0.182 HD
BRANCH  57  60
HETATM   60  N10 UNL     1      22.517  -6.366  -8.847  1.00  0.00    -0.331 N
ATOM     61 2H10 UNL     1      23.273  -5.699  -9.001  1.00  0.00     0.178 HD
ATOM     62 1H10 UNL     1      21.543  -6.091  -8.966  1.00  0.00     0.178 HD
ENDBRANCH  57  60
ENDBRANCH   6  56
TORSDOF 15
ENDMDL