MODEL 5
REMARK VINA RESULT: -7.213065208      3.572      6.517
REMARK  11 active torsions:
REMARK  status: ('A' for Active; 'I' for Inactive)
REMARK    1  A    between atoms: N1_2  and  C2_4
REMARK    2  A    between atoms: C2_4  and  N2_5
REMARK    3  A    between atoms: C2_4  and  C11_15
REMARK    4  A    between atoms: N2_5  and  S1_6
REMARK    5  A    between atoms: S1_6  and  C3_7
REMARK    6  A    between atoms: C11_15  and  N3_16
REMARK    7  A    between atoms: C11_15  and  C12_20
REMARK    8  A    between atoms: C16_27  and  C17_28
REMARK    9  A    between atoms: C17_28  and  O4_29
REMARK   10  A    between atoms: C19_33  and  C20_34
REMARK   11  A    between atoms: C20_34  and  O6_35
ROOT
HETATM    1  C11 UNL     1      12.539  49.165  24.013  1.00  0.00     0.253 C
ENDROOT
BRANCH   1   2
HETATM    2  C2  UNL     1      12.426  49.791  22.671  1.00  0.00     0.213 C
BRANCH   2   3
HETATM    3  N1  UNL     1      11.919  48.993  21.616  1.00  0.00    -0.406 N
HETATM    4  C1  UNL     1      10.561  49.199  21.237  1.00  0.00     0.141 C
ATOM      5  H1  UNL     1      12.501  48.299  21.148  1.00  0.00     0.154 HD
ENDBRANCH   2   3
BRANCH   2   6
HETATM    6  N2  UNL     1      13.649  50.511  22.289  1.00  0.00    -0.151 NA
BRANCH   6   7
HETATM    7  S1  UNL     1      13.158  52.043  21.560  1.00  0.00    -0.053 SA
BRANCH   7   8
HETATM    8  C3  UNL     1      13.465  52.091  19.802  1.00  0.00     0.029 C
HETATM    9  C4  UNL     1      12.466  52.874  18.967  1.00  0.00     0.026 C
HETATM   10  C5  UNL     1      12.504  52.102  17.668  1.00  0.00    -0.012 C
HETATM   11  C6  UNL     1      13.902  52.163  17.122  1.00  0.00     0.010 C
HETATM   12  C10 UNL     1      12.489  50.663  18.213  1.00  0.00     0.011 C
HETATM   13  C7  UNL     1      14.701  51.492  18.234  1.00  0.00    -0.007 C
HETATM   14  C8  UNL     1      14.897  52.473  19.400  1.00  0.00     0.027 C
HETATM   15  C9  UNL     1      13.696  50.789  19.114  1.00  0.00     0.010 C
ENDBRANCH   7   8
ENDBRANCH   6   7
ENDBRANCH   2   6
ENDBRANCH   1   2
BRANCH   1  16
HETATM   16  N3  UNL     1      11.704  49.859  24.948  1.00  0.00    -0.069 N
ATOM     17  H33 UNL     1      10.730  49.563  24.884  1.00  0.00     0.275 HD
ATOM     18  H32 UNL     1      11.884  49.569  25.909  1.00  0.00     0.275 HD
ATOM     19  H31 UNL     1      11.806  50.866  24.827  1.00  0.00     0.275 HD
ENDBRANCH   1  16
BRANCH   1  20
HETATM   20  C12 UNL     1      12.529  47.699  24.064  1.00  0.00     0.189 C
HETATM   21  O1  UNL     1      13.634  47.202  23.345  1.00  0.00    -0.348 OA
HETATM   22  C13 UNL     1      13.323  45.859  23.016  1.00  0.00     0.295 C
HETATM   23  O2  UNL     1      12.248  45.932  22.165  1.00  0.00    -0.329 OA
HETATM   24  C18 UNL     1      13.011  45.031  24.218  1.00  0.00     0.208 C
HETATM   25  C14 UNL     1      11.784  44.691  21.737  1.00  0.00     0.259 C
HETATM   26  C15 UNL     1      12.709  44.078  20.716  1.00  0.00     0.071 C
HETATM   27  O3  UNL     1      11.445  43.858  22.767  1.00  0.00    -0.351 OA
HETATM   28  C16 UNL     1      12.318  43.755  23.802  1.00  0.00     0.182 C
HETATM   29  O5  UNL     1      12.217  45.664  25.134  1.00  0.00    -0.368 OA
HETATM   30  C19 UNL     1      12.495  47.007  25.365  1.00  0.00     0.177 C
BRANCH  28  31
HETATM   31  C17 UNL     1      13.380  42.693  23.597  1.00  0.00     0.199 C
BRANCH  31  32
HETATM   32  O4  UNL     1      14.510  43.002  24.379  1.00  0.00    -0.398 OA
ATOM     33  H4  UNL     1      15.151  42.305  24.297  1.00  0.00     0.209 HD
ENDBRANCH  31  32
ENDBRANCH  28  31
BRANCH  30  34
HETATM   34  C20 UNL     1      13.693  47.169  26.227  1.00  0.00     0.198 C
BRANCH  34  35
HETATM   35  O6  UNL     1      13.816  48.340  26.918  1.00  0.00    -0.398 OA
ATOM     36  H6  UNL     1      13.689  49.149  26.435  1.00  0.00     0.209 HD
ENDBRANCH  34  35
ENDBRANCH  30  34
ENDBRANCH   1  20
TORSDOF 11
ENDMDL