MODEL 3
REMARK VINA RESULT: -7.379615734      1.503      2.278
REMARK  13 active torsions:
REMARK  status: ('A' for Active; 'I' for Inactive)
REMARK    1  A    between atoms: O1_2  and  C2_3
REMARK    2  A    between atoms: C5_6  and  C6_7
REMARK    3  A    between atoms: C7_8  and  C8_9
REMARK    4  A    between atoms: C8_9  and  O2_10
REMARK    5  A    between atoms: O2_10  and  C9_11
REMARK    6  A    between atoms: C13_15  and  N1_16
REMARK    7  A    between atoms: C15_22  and  O4_23
REMARK    8  A    between atoms: O4_23  and  C16_24
REMARK    9  A    between atoms: C17_26  and  C18_27
REMARK   10  A    between atoms: C18_27  and  N2_28
REMARK   11  A    between atoms: C19_32  and  O6_33
REMARK   12  A    between atoms: C20_35  and  N3_36
REMARK   13  A    between atoms: C21_40  and  O7_41
ROOT
HETATM    1  C6  UNL     1      11.865  49.675  21.530  1.00  0.00     0.081 C
HETATM    2  C7  UNL     1      10.542  50.379  21.531  1.00  0.00     0.156 C
HETATM    3  O3  UNL     1       9.991  50.202  22.801  1.00  0.00    -0.380 OA
HETATM    4  C14 UNL     1      11.073  50.202  23.678  1.00  0.00     0.201 C
HETATM    5  C15 UNL     1      12.075  49.336  22.962  1.00  0.00     0.159 C
ENDROOT
BRANCH   5   6
HETATM    6  O4  UNL     1      11.712  48.005  23.233  1.00  0.00    -0.350 OA
BRANCH   6   7
HETATM    7  C16 UNL     1      12.753  47.271  23.772  1.00  0.00     0.291 C
HETATM    8  O5  UNL     1      12.734  47.264  25.165  1.00  0.00    -0.349 OA
HETATM    9  C17 UNL     1      11.584  46.713  25.695  1.00  0.00     0.181 C
HETATM   10  C19 UNL     1      11.147  45.574  24.862  1.00  0.00     0.182 C
HETATM   11  C20 UNL     1      12.304  44.871  24.179  1.00  0.00     0.247 C
HETATM   12  C21 UNL     1      12.896  45.889  23.202  1.00  0.00     0.206 C
BRANCH   9  13
HETATM   13  C18 UNL     1      11.831  46.399  27.138  1.00  0.00     0.264 C
BRANCH  13  14
HETATM   14  N2  UNL     1      10.659  46.095  27.891  1.00  0.00    -0.077 N
ATOM     15  H23 UNL     1       9.931  46.787  27.709  1.00  0.00     0.274 HD
ATOM     16  H22 UNL     1      10.205  45.260  27.519  1.00  0.00     0.274 HD
ATOM     17  H21 UNL     1      10.809  45.997  28.895  1.00  0.00     0.274 HD
ENDBRANCH  13  14
ENDBRANCH   9  13
BRANCH  10  18
HETATM   18  O6  UNL     1      10.306  44.672  25.506  1.00  0.00    -0.391 OA
ATOM     19  H6  UNL     1       9.522  44.445  25.021  1.00  0.00     0.210 HD
ENDBRANCH  10  18
BRANCH  11  20
HETATM   20  N3  UNL     1      13.281  44.368  25.095  1.00  0.00    -0.070 N
ATOM     21  H33 UNL     1      14.051  43.923  24.595  1.00  0.00     0.274 HD
ATOM     22  H32 UNL     1      13.787  45.133  25.540  1.00  0.00     0.274 HD
ATOM     23  H31 UNL     1      12.890  43.736  25.794  1.00  0.00     0.274 HD
ENDBRANCH  11  20
BRANCH  12  24
HETATM   24  O7  UNL     1      12.257  45.704  21.995  1.00  0.00    -0.388 OA
ATOM     25  H7  UNL     1      12.790  45.902  21.234  1.00  0.00     0.210 HD
ENDBRANCH  12  24
ENDBRANCH   6   7
ENDBRANCH   5   6
BRANCH   1  26
HETATM   26  C5  UNL     1      12.965  50.355  20.875  1.00  0.00    -0.049 A
HETATM   27  C4  UNL     1      13.637  51.397  21.468  1.00  0.00     0.010 A
HETATM   28  C3  UNL     1      14.691  52.047  20.812  1.00  0.00     0.037 A
HETATM   29  C2  UNL     1      15.071  51.642  19.546  1.00  0.00     0.068 A
HETATM   30  C23 UNL     1      14.407  50.596  18.933  1.00  0.00     0.037 A
HETATM   31  C22 UNL     1      13.377  49.984  19.614  1.00  0.00     0.010 A
BRANCH  29  32
HETATM   32  O1  UNL     1      16.123  52.293  18.895  1.00  0.00    -0.356 OA
HETATM   33  C1  UNL     1      16.520  51.990  17.592  1.00  0.00     0.210 C
ENDBRANCH  29  32
ENDBRANCH   1  26
BRANCH   2  34
HETATM   34  C8  UNL     1      10.560  51.827  21.212  1.00  0.00     0.200 C
BRANCH  34  35
HETATM   35  O2  UNL     1       9.435  52.055  20.378  1.00  0.00    -0.381 OA
BRANCH  35  36
HETATM   36  C9  UNL     1       9.809  52.562  19.158  1.00  0.00     0.151 C
HETATM   37  C10 UNL     1      11.254  53.017  19.264  1.00  0.00     0.034 C
HETATM   38  C11 UNL     1      11.688  52.990  17.810  1.00  0.00     0.005 C
HETATM   39  C12 UNL     1      11.139  51.658  17.352  1.00  0.00     0.035 C
HETATM   40  C13 UNL     1       9.814  51.504  18.067  1.00  0.00     0.212 C
BRANCH  40  41
HETATM   41  N1  UNL     1       8.745  51.756  17.121  1.00  0.00    -0.073 N
ATOM     42  H13 UNL     1       7.953  52.228  17.558  1.00  0.00     0.274 HD
ATOM     43  H12 UNL     1       8.996  52.478  16.446  1.00  0.00     0.274 HD
ATOM     44  H11 UNL     1       8.466  50.888  16.665  1.00  0.00     0.274 HD
ENDBRANCH  40  41
ENDBRANCH  35  36
ENDBRANCH  34  35
ENDBRANCH   2  34
TORSDOF 13
ENDMDL