MODEL 3
REMARK VINA RESULT: -7.909273761      1.067      1.422
REMARK  12 active torsions:
REMARK  status: ('A' for Active; 'I' for Inactive)
REMARK    1  A    between atoms: C4_4  and  O1_5
REMARK    2  A    between atoms: O1_5  and  C5_6
REMARK    3  A    between atoms: C7_8  and  N1_9
REMARK    4  A    between atoms: C8_13  and  O2_14
REMARK    5  A    between atoms: C9_16  and  C10_17
REMARK    6  A    between atoms: C10_17  and  O3_18
REMARK    7  A    between atoms: C11_21  and  O5_22
REMARK    8  A    between atoms: O5_22  and  C12_23
REMARK    9  A    between atoms: C15_27  and  O7_28
REMARK   10  A    between atoms: C16_30  and  N2_31
REMARK   11  A    between atoms: N2_31  and  C17_33
REMARK   12  A    between atoms: C18_35  and  O9_36
ROOT
HETATM    1  C1  UNL     1       7.423  48.729  25.923  1.00  0.00     0.010 C
HETATM    2  C2  UNL     1       7.504  49.285  24.524  1.00  0.00    -0.012 C
HETATM    3  C3  UNL     1       8.131  48.331  23.553  1.00  0.00     0.039 C
HETATM    4  C4  UNL     1       9.621  48.231  23.647  1.00  0.00     0.154 C
HETATM    5  C11 UNL     1      10.333  49.528  23.924  1.00  0.00     0.154 C
HETATM    6  C19 UNL     1       9.345  50.657  23.585  1.00  0.00     0.039 C
HETATM    7  C20 UNL     1       8.247  50.599  24.600  1.00  0.00    -0.012 C
HETATM    8  C21 UNL     1       7.328  51.783  24.318  1.00  0.00     0.010 C
ENDROOT
BRANCH   4   9
HETATM    9  O1  UNL     1       9.926  47.287  24.670  1.00  0.00    -0.353 OA
BRANCH   9  10
HETATM   10  C5  UNL     1      10.300  46.064  24.201  1.00  0.00     0.263 C
HETATM   11  C6  UNL     1      10.802  45.131  25.297  1.00  0.00     0.096 C
HETATM   12  C7  UNL     1      12.126  45.508  25.862  1.00  0.00     0.219 C
HETATM   13  C8  UNL     1      13.109  45.698  24.732  1.00  0.00     0.179 C
HETATM   14  C9  UNL     1      12.520  46.517  23.631  1.00  0.00     0.178 C
HETATM   15  O4  UNL     1      11.270  46.105  23.234  1.00  0.00    -0.351 OA
BRANCH  12  16
HETATM   16  N1  UNL     1      12.549  44.397  26.714  1.00  0.00    -0.072 N
ATOM     17  H13 UNL     1      12.986  44.700  27.585  1.00  0.00     0.274 HD
ATOM     18  H12 UNL     1      11.770  43.889  27.131  1.00  0.00     0.274 HD
ATOM     19  H11 UNL     1      13.155  43.806  26.144  1.00  0.00     0.274 HD
ENDBRANCH  12  16
BRANCH  13  20
HETATM   20  O2  UNL     1      13.496  44.428  24.316  1.00  0.00    -0.391 OA
ATOM     21  H2  UNL     1      13.137  44.302  23.445  1.00  0.00     0.210 HD
ENDBRANCH  13  20
BRANCH  14  22
HETATM   22  C10 UNL     1      13.431  46.550  22.446  1.00  0.00     0.198 C
BRANCH  22  23
HETATM   23  O3  UNL     1      13.696  47.829  21.985  1.00  0.00    -0.398 OA
ATOM     24  H3  UNL     1      14.607  48.083  22.070  1.00  0.00     0.209 HD
ENDBRANCH  22  23
ENDBRANCH  14  22
ENDBRANCH   9  10
ENDBRANCH   4   9
BRANCH   5  25
HETATM   25  O5  UNL     1      11.517  49.713  23.395  1.00  0.00    -0.351 OA
BRANCH  25  26
HETATM   26  C12 UNL     1      12.023  50.743  22.742  1.00  0.00     0.291 C
HETATM   27  O6  UNL     1      12.004  50.346  21.392  1.00  0.00    -0.351 OA
HETATM   28  C13 UNL     1      12.657  51.112  20.500  1.00  0.00     0.151 C
HETATM   29  C14 UNL     1      13.684  50.377  19.654  1.00  0.00     0.042 C
HETATM   30  C15 UNL     1      13.300  52.344  21.029  1.00  0.00     0.172 C
HETATM   31  C16 UNL     1      14.176  51.957  22.209  1.00  0.00     0.148 C
HETATM   32  C18 UNL     1      13.412  51.138  23.195  1.00  0.00     0.198 C
BRANCH  30  33
HETATM   33  O7  UNL     1      14.127  52.885  20.037  1.00  0.00    -0.391 OA
ATOM     34  H7  UNL     1      14.079  52.336  19.262  1.00  0.00     0.210 HD
ENDBRANCH  30  33
BRANCH  31  35
HETATM   35  N2  UNL     1      14.591  53.252  22.762  1.00  0.00    -0.358 N
ATOM     36  H2  UNL     1      15.317  53.801  22.301  1.00  0.00     0.162 HD
BRANCH  35  37
HETATM   37  C17 UNL     1      13.977  53.728  23.936  1.00  0.00     0.349 C
HETATM   38  O8  UNL     1      13.221  54.746  23.927  1.00  0.00    -0.284 OA
ENDBRANCH  35  37
ENDBRANCH  31  35
BRANCH  32  39
HETATM   39  O9  UNL     1      14.076  50.066  23.721  1.00  0.00    -0.388 OA
ATOM     40  H9  UNL     1      14.182  50.160  24.661  1.00  0.00     0.210 HD
ENDBRANCH  32  39
ENDBRANCH  25  26
ENDBRANCH   5  25
TORSDOF 12
ENDMDL