MODEL 4
REMARK VINA RESULT: -7.836805174      1.473      1.780
REMARK  14 active torsions:
REMARK  status: ('A' for Active; 'I' for Inactive)
REMARK    1  A    between atoms: C2_2  and  C3_3
REMARK    2  A    between atoms: C4_4  and  C5_5
REMARK    3  A    between atoms: C5_5  and  O2_7
REMARK    4  A    between atoms: O2_7  and  C6_8
REMARK    5  A    between atoms: C7_9  and  O3_10
REMARK    6  A    between atoms: C8_12  and  O4_13
REMARK    7  A    between atoms: O4_13  and  C9_14
REMARK    8  A    between atoms: C10_16  and  S1_17
REMARK    9  A    between atoms: C12_19  and  O6_20
REMARK   10  A    between atoms: C13_22  and  O7_23
REMARK   11  A    between atoms: C14_25  and  O8_26
REMARK   12  A    between atoms: C15_28  and  O9_29
REMARK   13  A    between atoms: C16_31  and  O10_32
REMARK   14  A    between atoms: C17_34  and  C18_35
ROOT
HETATM    1  C6  UNL     1      11.505  50.378  20.756  1.00  0.00     0.170 C
HETATM    2  C7  UNL     1      11.283  50.264  22.280  1.00  0.00     0.179 C
HETATM    3  C8  UNL     1      12.515  50.197  23.054  1.00  0.00     0.187 C
HETATM    4  C15 UNL     1      13.440  51.332  22.702  1.00  0.00     0.179 C
HETATM    5  C16 UNL     1      12.812  52.217  21.677  1.00  0.00     0.156 C
HETATM    6  C17 UNL     1      12.549  51.419  20.446  1.00  0.00     0.052 C
ENDROOT
BRANCH   3   7
HETATM    7  O4  UNL     1      13.238  49.091  23.149  1.00  0.00    -0.348 OA
BRANCH   7   8
HETATM    8  C9  UNL     1      13.803  48.591  24.236  1.00  0.00     0.293 C
HETATM    9  O5  UNL     1      13.940  47.205  24.025  1.00  0.00    -0.340 OA
HETATM   10  C10 UNL     1      12.695  46.716  23.642  1.00  0.00     0.217 C
HETATM   11  C12 UNL     1      11.754  46.655  24.827  1.00  0.00     0.188 C
HETATM   12  C13 UNL     1      12.375  47.412  25.956  1.00  0.00     0.183 C
HETATM   13  C14 UNL     1      13.012  48.716  25.520  1.00  0.00     0.204 C
BRANCH  10  14
HETATM   14  S1  UNL     1      12.890  45.091  22.881  1.00  0.00    -0.139 SA
HETATM   15  C11 UNL     1      13.271  43.797  24.079  1.00  0.00     0.092 C
ENDBRANCH  10  14
BRANCH  11  16
HETATM   16  O6  UNL     1      10.491  47.150  24.517  1.00  0.00    -0.389 OA
ATOM     17  H6  UNL     1       9.887  46.458  24.275  1.00  0.00     0.210 HD
ENDBRANCH  11  16
BRANCH  12  18
HETATM   18  O7  UNL     1      13.329  46.556  26.550  1.00  0.00    -0.390 OA
ATOM     19  H7  UNL     1      12.952  46.242  27.364  1.00  0.00     0.210 HD
ENDBRANCH  12  18
BRANCH  13  20
HETATM   20  O8  UNL     1      13.837  49.110  26.600  1.00  0.00    -0.388 OA
ATOM     21  H8  UNL     1      14.756  49.090  26.360  1.00  0.00     0.210 HD
ENDBRANCH  13  20
ENDBRANCH   7   8
ENDBRANCH   3   7
BRANCH   2  22
HETATM   22  O3  UNL     1      10.419  49.173  22.419  1.00  0.00    -0.390 OA
ATOM     23  H3  UNL     1       9.913  49.375  23.198  1.00  0.00     0.210 HD
ENDBRANCH   2  22
BRANCH   4  24
HETATM   24  O9  UNL     1      13.846  52.061  23.833  1.00  0.00    -0.390 OA
ATOM     25  H9  UNL     1      14.320  51.524  24.457  1.00  0.00     0.210 HD
ENDBRANCH   4  24
BRANCH   1  26
HETATM   26  O2  UNL     1      10.272  50.588  20.113  1.00  0.00    -0.309 OA
BRANCH  26  27
HETATM   27  C5  UNL     1       9.910  50.010  18.889  1.00  0.00     0.283 C
HETATM   28  O1  UNL     1       9.020  49.157  18.963  1.00  0.00    -0.260 OA
BRANCH  27  29
HETATM   29  C4  UNL     1      10.534  50.389  17.648  1.00  0.00     0.082 C
HETATM   30  C3  UNL     1      10.690  51.589  17.189  1.00  0.00     0.005 C
BRANCH  30  31
HETATM   31  C2  UNL     1      10.296  52.838  17.774  1.00  0.00    -0.010 C
HETATM   32  C1  UNL     1      11.166  53.848  17.915  1.00  0.00     0.011 C
ENDBRANCH  30  31
ENDBRANCH  27  29
ENDBRANCH  26  27
ENDBRANCH   1  26
BRANCH   5  33
HETATM   33  O10 UNL     1      13.573  53.367  21.433  1.00  0.00    -0.392 OA
ATOM     34  H10 UNL     1      14.457  53.292  21.773  1.00  0.00     0.210 HD
ENDBRANCH   5  33
BRANCH   6  35
HETATM   35  C18 UNL     1      13.728  50.755  19.851  1.00  0.00    -0.013 C
HETATM   36  C19 UNL     1      13.491  49.288  19.553  1.00  0.00     0.010 C
HETATM   37  C20 UNL     1      14.227  51.371  18.569  1.00  0.00     0.010 C
ENDBRANCH   6  35
TORSDOF 14
ENDMDL