MODEL 5
REMARK VINA RESULT: -7.747025155      1.873      2.434
REMARK  12 active torsions:
REMARK  status: ('A' for Active; 'I' for Inactive)
REMARK    1  A    between atoms: N1_1  and  C1_5
REMARK    2  A    between atoms: C2_6  and  O1_7
REMARK    3  A    between atoms: O1_7  and  C3_8
REMARK    4  A    between atoms: C5_11  and  O3_12
REMARK    5  A    between atoms: C6_14  and  O4_15
REMARK    6  A    between atoms: C7_17  and  O5_18
REMARK    7  A    between atoms: C8_20  and  O6_21
REMARK    8  A    between atoms: C10_24  and  O7_25
REMARK    9  A    between atoms: O7_25  and  C11_26
REMARK   10  A    between atoms: C15_33  and  O8_34
REMARK   11  A    between atoms: O8_34  and  C16_35
REMARK   12  A    between atoms: C16_35  and  C17_36
ROOT
HETATM    1  C1  UNL     1      11.829  47.816  22.500  1.00  0.00     0.246 C
HETATM    2  C2  UNL     1      12.650  48.995  22.848  1.00  0.00     0.186 C
HETATM    3  C8  UNL     1      13.561  48.772  24.050  1.00  0.00     0.151 C
HETATM    4  C9  UNL     1      12.696  48.360  25.193  1.00  0.00     0.069 C
HETATM    5  C10 UNL     1      12.180  46.984  24.862  1.00  0.00     0.158 C
HETATM    6  C15 UNL     1      11.345  46.959  23.614  1.00  0.00     0.183 C
ENDROOT
BRANCH   2   7
HETATM    7  O1  UNL     1      13.499  49.304  21.813  1.00  0.00    -0.349 OA
BRANCH   7   8
HETATM    8  C3  UNL     1      13.113  50.317  20.994  1.00  0.00     0.291 C
HETATM    9  O2  UNL     1      12.555  51.407  21.663  1.00  0.00    -0.356 OA
HETATM   10  C4  UNL     1      11.806  52.104  20.708  1.00  0.00     0.205 C
HETATM   11  C5  UNL     1      12.710  52.733  19.660  1.00  0.00     0.173 C
HETATM   12  C6  UNL     1      13.480  51.614  18.979  1.00  0.00     0.182 C
HETATM   13  C7  UNL     1      14.186  50.849  20.089  1.00  0.00     0.204 C
BRANCH  11  14
HETATM   14  O3  UNL     1      11.884  53.302  18.697  1.00  0.00    -0.391 OA
ATOM     15  H3  UNL     1      11.395  52.594  18.295  1.00  0.00     0.210 HD
ENDBRANCH  11  14
BRANCH  12  16
HETATM   16  O4  UNL     1      12.548  50.733  18.426  1.00  0.00    -0.390 OA
ATOM     17  H4  UNL     1      12.725  49.869  18.777  1.00  0.00     0.210 HD
ENDBRANCH  12  16
BRANCH  13  18
HETATM   18  O5  UNL     1      14.988  51.808  20.748  1.00  0.00    -0.388 OA
ATOM     19  H5  UNL     1      14.539  52.181  21.497  1.00  0.00     0.210 HD
ENDBRANCH  13  18
ENDBRANCH   7   8
ENDBRANCH   2   7
BRANCH   1  20
HETATM   20  N1  UNL     1      12.538  46.971  21.524  1.00  0.00    -0.070 N
ATOM     21  H13 UNL     1      12.988  46.171  21.970  1.00  0.00     0.274 HD
ATOM     22  H12 UNL     1      11.892  46.463  20.920  1.00  0.00     0.274 HD
ATOM     23  H11 UNL     1      13.200  47.531  20.987  1.00  0.00     0.274 HD
ENDBRANCH   1  20
BRANCH   3  24
HETATM   24  O6  UNL     1      14.488  47.838  23.656  1.00  0.00    -0.393 OA
ATOM     25  H6  UNL     1      15.338  48.213  23.853  1.00  0.00     0.210 HD
ENDBRANCH   3  24
BRANCH   6  26
HETATM   26  O8  UNL     1      10.057  47.296  23.990  1.00  0.00    -0.377 OA
BRANCH  26  27
HETATM   27  C16 UNL     1       9.302  47.958  23.070  1.00  0.00     0.207 C
BRANCH  27  28
HETATM   28  C17 UNL     1       8.671  49.183  23.599  1.00  0.00    -0.035 A
HETATM   29  C18 UNL     1       7.415  49.215  24.149  1.00  0.00     0.009 A
HETATM   30  C19 UNL     1       6.871  50.388  24.633  1.00  0.00     0.001 A
HETATM   31  C20 UNL     1       7.569  51.582  24.584  1.00  0.00     0.000 A
HETATM   32  C21 UNL     1       8.832  51.548  24.031  1.00  0.00     0.001 A
HETATM   33  C22 UNL     1       9.384  50.380  23.545  1.00  0.00     0.009 A
ENDBRANCH  27  28
ENDBRANCH  26  27
ENDBRANCH   6  26
BRANCH   5  34
HETATM   34  O7  UNL     1      13.280  46.133  24.794  1.00  0.00    -0.351 OA
BRANCH  34  35
HETATM   35  C11 UNL     1      12.898  44.821  24.747  1.00  0.00     0.321 C
HETATM   36  C12 UNL     1      13.474  44.070  23.561  1.00  0.00     0.063 C
HETATM   37  C13 UNL     1      13.138  42.632  23.950  1.00  0.00     0.032 C
HETATM   38  C14 UNL     1      13.331  42.657  25.433  1.00  0.00     0.235 C
HETATM   39  N2  UNL     1      13.377  44.025  25.856  1.00  0.00    -0.049 N
ATOM     40  H22 UNL     1      14.297  44.312  26.189  1.00  0.00     0.280 HD
ATOM     41  H21 UNL     1      12.867  44.195  26.723  1.00  0.00     0.280 HD
ENDBRANCH  34  35
ENDBRANCH   5  34
TORSDOF 12
ENDMDL