MODEL 1
REMARK VINA RESULT: -7.650343566      0.000      0.000
REMARK  10 active torsions:
REMARK  status: ('A' for Active; 'I' for Inactive)
REMARK    1  A    between atoms: O1_1  and  C1_3
REMARK    2  A    between atoms: C1_3  and  C2_4
REMARK    3  A    between atoms: C5_10  and  O2_11
REMARK    4  A    between atoms: O2_11  and  C6_12
REMARK    5  A    between atoms: C7_13  and  O3_14
REMARK    6  A    between atoms: C8_16  and  S1_17
REMARK    7  A    between atoms: S1_17  and  C9_18
REMARK    8  A    between atoms: C12_21  and  C13_22
REMARK    9  A    between atoms: C13_22  and  O4_23
REMARK   10  A    between atoms: C21_34  and  O6_35
ROOT
HETATM    1  C6  UNL     1      12.565  49.681  20.976  1.00  0.00     0.184 C
HETATM    2  C7  UNL     1      12.638  50.536  22.261  1.00  0.00     0.166 C
HETATM    3  C8  UNL     1      11.685  49.550  22.919  1.00  0.00     0.110 C
HETATM    4  C21 UNL     1      12.270  48.515  21.948  1.00  0.00     0.166 C
ENDROOT
BRANCH   3   5
HETATM    5  S1  UNL     1      11.911  49.129  24.605  1.00  0.00    -0.151 SA
BRANCH   5   6
HETATM    6  C9  UNL     1      11.846  47.429  25.084  1.00  0.00     0.090 C
HETATM    7  C10 UNL     1      13.102  46.956  25.782  1.00  0.00     0.025 C
HETATM    8  C11 UNL     1      12.665  45.889  26.731  1.00  0.00     0.027 C
HETATM    9  C12 UNL     1      12.417  44.540  26.276  1.00  0.00     0.149 C
HETATM   10  C15 UNL     1      11.289  46.383  27.192  1.00  0.00     0.058 C
HETATM   11  O5  UNL     1      11.120  44.155  26.633  1.00  0.00    -0.383 OA
HETATM   12  C14 UNL     1      10.671  45.065  27.569  1.00  0.00     0.176 C
HETATM   13  C16 UNL     1      10.709  47.001  25.944  1.00  0.00     0.209 A
HETATM   14  C17 UNL     1       9.597  46.319  25.355  1.00  0.00     0.264 A
HETATM   15  N2  UNL     1       9.456  47.589  26.069  1.00  0.00     0.109 N
HETATM   16  C18 UNL     1       9.064  46.590  23.947  1.00  0.00     0.040 C
HETATM   17  C19 UNL     1       7.939  47.564  24.329  1.00  0.00     0.033 C
HETATM   18  C20 UNL     1       8.743  48.477  25.270  1.00  0.00     0.274 C
BRANCH   9  19
HETATM   19  C13 UNL     1      12.632  44.154  24.867  1.00  0.00     0.196 C
BRANCH  19  20
HETATM   20  O4  UNL     1      13.920  43.731  24.555  1.00  0.00    -0.398 OA
ATOM     21  H4  UNL     1      14.102  43.632  23.629  1.00  0.00     0.209 HD
ENDBRANCH  19  20
ENDBRANCH   9  19
ENDBRANCH   5   6
ENDBRANCH   3   5
BRANCH   2  22
HETATM   22  O3  UNL     1      13.950  50.509  22.738  1.00  0.00    -0.392 OA
ATOM     23  H3  UNL     1      13.928  50.593  23.684  1.00  0.00     0.210 HD
ENDBRANCH   2  22
BRANCH   4  24
HETATM   24  O6  UNL     1      11.381  47.588  21.470  1.00  0.00    -0.392 OA
ATOM     25  H6  UNL     1      11.156  46.903  22.089  1.00  0.00     0.210 HD
ENDBRANCH   4  24
BRANCH   1  26
HETATM   26  O2  UNL     1      13.807  49.544  20.394  1.00  0.00    -0.351 OA
BRANCH  26  27
HETATM   27  C5  UNL     1      13.862  50.138  19.128  1.00  0.00     0.264 C
HETATM   28  C4  UNL     1      12.453  50.436  18.690  1.00  0.00     0.088 C
HETATM   29  C3  UNL     1      12.435  51.604  17.724  1.00  0.00     0.240 C
HETATM   30  N1  UNL     1      13.750  51.726  17.139  1.00  0.00    -0.046 N
HETATM   31  C2  UNL     1      14.722  52.055  18.144  1.00  0.00     0.346 C
ATOM     32  H12 UNL     1      13.761  52.395  16.368  1.00  0.00     0.280 HD
ATOM     33  H11 UNL     1      14.011  50.889  16.617  1.00  0.00     0.280 HD
HETATM   34  O7  UNL     1      14.627  51.293  19.281  1.00  0.00    -0.327 OA
BRANCH  31  35
HETATM   35  C1  UNL     1      16.115  52.019  17.563  1.00  0.00     0.225 C
BRANCH  35  36
HETATM   36  O1  UNL     1      17.054  52.328  18.557  1.00  0.00    -0.397 OA
ATOM     37  H1  UNL     1      17.431  51.528  18.903  1.00  0.00     0.209 HD
ENDBRANCH  35  36
ENDBRANCH  31  35
ENDBRANCH  26  27
ENDBRANCH   1  26
TORSDOF 10
ENDMDL