MODEL 2
REMARK VINA RESULT: -7.407976758      3.575      5.510
REMARK  9 active torsions:
REMARK  status: ('A' for Active; 'I' for Inactive)
REMARK    1  A    between atoms: C2_2  and  S1_4
REMARK    2  A    between atoms: S1_4  and  C3_5
REMARK    3  A    between atoms: C3_5  and  C4_6
REMARK       I    between atoms: C4_6  and  N1_8
REMARK    4  A    between atoms: N1_8  and  C5_10
REMARK    5  A    between atoms: C5_10  and  C6_11
REMARK    6  A    between atoms: C7_13  and  N2_14
REMARK       I    between atoms: N2_14  and  C8_16
REMARK       I    between atoms: C8_16  and  N3_18
REMARK    7  A    between atoms: N3_18  and  N4_20
REMARK    8  A    between atoms: C12_25  and  C13_26
REMARK    9  A    between atoms: C14_29  and  O8_30
ROOT
HETATM    1  C6  UNL     1      10.268  46.977  24.471  1.00  0.00     0.179 C
HETATM    2  O3  UNL     1      11.201  48.072  24.623  1.00  0.00    -0.352 OA
HETATM    3  C7  UNL     1      12.287  47.657  23.846  1.00  0.00     0.255 C
HETATM    4  C14 UNL     1      12.349  46.182  23.828  1.00  0.00     0.184 C
HETATM    5  C15 UNL     1      11.169  45.817  24.779  1.00  0.00     0.126 C
HETATM    6  S2  UNL     1      11.899  45.967  26.452  1.00  0.00    -0.086 SA
ENDROOT
BRANCH   3   7
HETATM    7  N2  UNL     1      12.231  48.255  22.531  1.00  0.00    -0.313 N
HETATM    8  C8  UNL     1      13.002  49.352  22.091  1.00  0.00     0.336 C
HETATM    9  O4  UNL     1      13.803  49.859  22.944  1.00  0.00    -0.246 OA
HETATM   10  N3  UNL     1      12.863  49.841  20.761  1.00  0.00    -0.253 N
ATOM     11  H3  UNL     1      12.203  49.355  20.155  1.00  0.00     0.191 HD
ATOM     12  H2  UNL     1      11.577  47.849  21.862  1.00  0.00     0.167 HD
BRANCH  10  13
HETATM   13  N4  UNL     1      13.527  50.892  20.226  1.00  0.00    -0.305 N
HETATM   14  C9  UNL     1      14.373  50.718  19.122  1.00  0.00     0.170 C
HETATM   15  C10 UNL     1      15.026  52.049  18.709  1.00  0.00     0.189 C
HETATM   16  O5  UNL     1      15.295  52.836  19.827  1.00  0.00    -0.387 OA
HETATM   17  C11 UNL     1      14.175  53.241  20.505  1.00  0.00     0.205 C
HETATM   18  C12 UNL     1      13.091  52.194  20.552  1.00  0.00     0.226 C
BRANCH  18  19
HETATM   19  C13 UNL     1      11.956  52.538  19.662  1.00  0.00     0.200 C
HETATM   20  O6  UNL     1      11.868  53.711  19.240  1.00  0.00    -0.646 OA
HETATM   21  O7  UNL     1      11.004  51.615  19.284  1.00  0.00    -0.646 OA
ENDBRANCH  18  19
ENDBRANCH  10  13
ENDBRANCH   3   7
BRANCH   4  22
HETATM   22  O8  UNL     1      13.531  45.617  24.296  1.00  0.00    -0.390 OA
ATOM     23  H8  UNL     1      13.591  45.500  25.237  1.00  0.00     0.210 HD
ENDBRANCH   4  22
BRANCH   1  24
HETATM   24  C5  UNL     1       9.089  47.246  25.302  1.00  0.00     0.097 C
BRANCH  24  25
HETATM   25  N1  UNL     1       8.343  48.431  25.155  1.00  0.00    -0.338 N
HETATM   26  C4  UNL     1       7.598  48.924  24.110  1.00  0.00     0.231 C
HETATM   27  O2  UNL     1       7.430  48.308  22.996  1.00  0.00    -0.272 OA
ATOM     28  H1  UNL     1       8.358  49.037  25.976  1.00  0.00     0.167 HD
BRANCH  26  29
HETATM   29  C3  UNL     1       6.921  50.251  24.225  1.00  0.00     0.185 C
BRANCH  29  30
HETATM   30  S1  UNL     1       8.143  51.554  24.441  1.00  0.00    -0.084 SA
BRANCH  30  31
HETATM   31  C2  UNL     1       9.582  51.367  23.434  1.00  0.00     0.182 C
HETATM   32  C1  UNL     1      10.950  51.402  23.956  1.00  0.00     0.104 C
HETATM   33  O1  UNL     1       9.439  51.196  22.213  1.00  0.00    -0.286 OA
ENDBRANCH  30  31
ENDBRANCH  29  30
ENDBRANCH  26  29
ENDBRANCH  24  25
ENDBRANCH   1  24
TORSDOF 9
ENDMDL