MODEL 4
REMARK VINA RESULT: -7.592782487      0.959      1.183
REMARK  14 active torsions:
REMARK  status: ('A' for Active; 'I' for Inactive)
REMARK    1  A    between atoms: C2_2  and  C3_3
REMARK    2  A    between atoms: C3_3  and  C4_4
REMARK    3  A    between atoms: C4_4  and  O1_5
REMARK    4  A    between atoms: O1_5  and  C5_6
REMARK    5  A    between atoms: C7_9  and  C8_10
REMARK    6  A    between atoms: C11_13  and  O3_14
REMARK    7  A    between atoms: C14_18  and  O4_19
REMARK    8  A    between atoms: O4_19  and  C15_20
REMARK    9  A    between atoms: C16_22  and  C17_23
REMARK   10  A    between atoms: C17_23  and  O6_24
REMARK   11  A    between atoms: C18_26  and  O7_27
REMARK   12  A    between atoms: C19_29  and  O8_30
REMARK   13  A    between atoms: C20_32  and  O9_33
REMARK   14  A    between atoms: C21_35  and  O10_36
ROOT
HETATM    1  C5  UNL     1      13.135  52.062  21.767  1.00  0.00     0.291 C
HETATM    2  O2  UNL     1      11.777  52.007  22.084  1.00  0.00    -0.352 OA
HETATM    3  C6  UNL     1      11.670  51.751  23.398  1.00  0.00     0.137 A
HETATM    4  C7  UNL     1      11.000  50.752  24.179  1.00  0.00     0.028 A
HETATM    5  C13 UNL     1      12.106  50.249  23.461  1.00  0.00     0.054 A
HETATM    6  C14 UNL     1      13.571  50.388  23.653  1.00  0.00     0.165 C
HETATM    7  C21 UNL     1      14.068  51.203  22.484  1.00  0.00     0.202 C
ENDROOT
BRANCH   6   8
HETATM    8  O4  UNL     1      14.133  49.115  23.703  1.00  0.00    -0.350 OA
BRANCH   8   9
HETATM    9  C15 UNL     1      13.226  48.132  24.001  1.00  0.00     0.292 C
HETATM   10  O5  UNL     1      13.493  46.922  23.376  1.00  0.00    -0.348 OA
HETATM   11  C16 UNL     1      12.765  45.873  23.867  1.00  0.00     0.179 C
HETATM   12  C18 UNL     1      11.631  46.233  24.763  1.00  0.00     0.180 C
HETATM   13  C19 UNL     1      11.963  47.192  25.854  1.00  0.00     0.183 C
HETATM   14  C20 UNL     1      13.193  47.967  25.507  1.00  0.00     0.204 C
BRANCH  11  15
HETATM   15  C17 UNL     1      12.161  45.146  22.657  1.00  0.00     0.198 C
BRANCH  15  16
HETATM   16  O6  UNL     1      11.394  44.074  23.043  1.00  0.00    -0.398 OA
ATOM     17  H6  UNL     1      10.835  43.773  22.338  1.00  0.00     0.209 HD
ENDBRANCH  15  16
ENDBRANCH  11  15
BRANCH  12  18
HETATM   18  O7  UNL     1      10.492  46.648  24.038  1.00  0.00    -0.390 OA
ATOM     19  H7  UNL     1       9.874  45.938  23.906  1.00  0.00     0.210 HD
ENDBRANCH  12  18
BRANCH  13  20
HETATM   20  O8  UNL     1      12.025  46.590  27.108  1.00  0.00    -0.390 OA
ATOM     21  H8  UNL     1      11.912  47.207  27.821  1.00  0.00     0.210 HD
ENDBRANCH  13  20
BRANCH  14  22
HETATM   22  O9  UNL     1      14.358  47.384  25.995  1.00  0.00    -0.388 OA
ATOM     23  H9  UNL     1      15.121  47.631  25.484  1.00  0.00     0.210 HD
ENDBRANCH  14  22
ENDBRANCH   8   9
ENDBRANCH   6   8
BRANCH   7  24
HETATM   24  O10 UNL     1      15.192  51.916  22.954  1.00  0.00    -0.388 OA
ATOM     25  H10 UNL     1      15.763  51.373  23.486  1.00  0.00     0.210 HD
ENDBRANCH   7  24
BRANCH   4  26
HETATM   26  C8  UNL     1       9.595  50.359  23.834  1.00  0.00    -0.005 C
HETATM   27  C9  UNL     1       8.578  51.454  24.102  1.00  0.00     0.007 C
HETATM   28  C10 UNL     1       7.237  50.782  24.168  1.00  0.00     0.032 C
HETATM   29  C11 UNL     1       7.522  49.305  24.413  1.00  0.00     0.118 C
HETATM   30  C12 UNL     1       9.026  49.240  24.667  1.00  0.00     0.037 C
BRANCH  29  31
HETATM   31  O3  UNL     1       7.152  48.616  23.275  1.00  0.00    -0.396 OA
ATOM     32  H3  UNL     1       6.418  48.059  23.504  1.00  0.00     0.210 HD
ENDBRANCH  29  31
ENDBRANCH   4  26
BRANCH   1  33
HETATM   33  O1  UNL     1      13.210  51.896  20.387  1.00  0.00    -0.359 OA
BRANCH  33  34
HETATM   34  C4  UNL     1      12.616  52.935  19.724  1.00  0.00     0.171 C
BRANCH  34  35
HETATM   35  C3  UNL     1      12.085  52.547  18.361  1.00  0.00     0.026 C
BRANCH  35  36
HETATM   36  C2  UNL     1      11.216  53.713  17.903  1.00  0.00    -0.002 C
HETATM   37  C1  UNL     1       9.759  53.433  18.008  1.00  0.00     0.005 C
ENDBRANCH  35  36
ENDBRANCH  34  35
ENDBRANCH  33  34
ENDBRANCH   1  33
TORSDOF 14
ENDMDL