MODEL 4
REMARK VINA RESULT: -7.328516554      2.024      2.663
REMARK  12 active torsions:
REMARK  status: ('A' for Active; 'I' for Inactive)
REMARK    1  A    between atoms: C2_2  and  C3_3
REMARK    2  A    between atoms: C4_4  and  O1_5
REMARK    3  A    between atoms: O1_5  and  C5_6
REMARK    4  A    between atoms: C6_8  and  C7_9
REMARK    5  A    between atoms: C7_9  and  O3_10
REMARK    6  A    between atoms: O3_10  and  C8_11
REMARK    7  A    between atoms: C9_14  and  O5_15
REMARK    8  A    between atoms: C10_17  and  O6_18
REMARK    9  A    between atoms: C11_20  and  O7_21
REMARK   10  A    between atoms: C12_23  and  O8_24
REMARK   11  A    between atoms: C13_26  and  O9_27
REMARK   12  A    between atoms: O9_27  and  C14_28
ROOT
HETATM    1  C3  UNL     1      11.816  47.181  19.962  1.00  0.00     0.047 C
HETATM    2  C4  UNL     1      12.583  48.174  20.675  1.00  0.00     0.164 C
HETATM    3  C12 UNL     1      13.339  47.412  21.813  1.00  0.00     0.176 C
HETATM    4  C13 UNL     1      12.385  46.533  22.535  1.00  0.00     0.154 C
HETATM    5  C18 UNL     1      10.925  46.811  22.271  1.00  0.00     0.044 C
HETATM    6  C19 UNL     1      10.609  46.704  20.802  1.00  0.00    -0.036 C
HETATM    7  C20 UNL     1      10.301  45.251  20.515  1.00  0.00     0.015 C
HETATM    8  C21 UNL     1       9.377  47.491  20.508  1.00  0.00     0.015 C
ENDROOT
BRANCH   2   9
HETATM    9  O1  UNL     1      13.497  48.978  20.158  1.00  0.00    -0.350 OA
BRANCH   9  10
HETATM   10  C5  UNL     1      13.434  50.230  19.768  1.00  0.00     0.292 C
HETATM   11  O2  UNL     1      14.244  50.931  20.735  1.00  0.00    -0.348 OA
HETATM   12  C6  UNL     1      13.895  52.296  20.676  1.00  0.00     0.180 C
HETATM   13  C9  UNL     1      14.536  52.857  19.471  1.00  0.00     0.180 C
HETATM   14  C10 UNL     1      13.762  52.180  18.305  1.00  0.00     0.183 C
HETATM   15  C11 UNL     1      13.957  50.662  18.447  1.00  0.00     0.204 C
BRANCH  12  16
HETATM   16  C7  UNL     1      14.072  52.902  21.999  1.00  0.00     0.215 C
BRANCH  16  17
HETATM   17  O3  UNL     1      15.173  52.707  22.774  1.00  0.00    -0.304 OA
BRANCH  17  18
HETATM   18  C8  UNL     1      15.547  51.722  23.638  1.00  0.00     0.372 C
HETATM   19  N1  UNL     1      14.641  50.762  24.184  1.00  0.00    -0.032 NA
HETATM   20  O4  UNL     1      16.752  51.654  23.972  1.00  0.00    -0.242 OA
ENDBRANCH  17  18
ENDBRANCH  16  17
ENDBRANCH  12  16
BRANCH  13  21
HETATM   21  O5  UNL     1      15.885  52.547  19.301  1.00  0.00    -0.390 OA
ATOM     22  H5  UNL     1      16.212  52.599  18.410  1.00  0.00     0.210 HD
ENDBRANCH  13  21
BRANCH  14  23
HETATM   23  O6  UNL     1      12.430  52.464  18.526  1.00  0.00    -0.390 OA
ATOM     24  H6  UNL     1      12.419  53.243  19.069  1.00  0.00     0.210 HD
ENDBRANCH  14  23
BRANCH  15  25
HETATM   25  O7  UNL     1      15.312  50.347  18.263  1.00  0.00    -0.388 OA
ATOM     26  H7  UNL     1      15.458  49.728  17.557  1.00  0.00     0.210 HD
ENDBRANCH  15  25
ENDBRANCH   9  10
ENDBRANCH   2   9
BRANCH   1  27
HETATM   27  C2  UNL     1      11.427  47.331  18.563  1.00  0.00    -0.029 C
HETATM   28  C1  UNL     1      11.633  46.527  17.545  1.00  0.00     0.007 C
ENDBRANCH   1  27
BRANCH   3  29
HETATM   29  O8  UNL     1      13.705  48.415  22.740  1.00  0.00    -0.390 OA
ATOM     30  H8  UNL     1      14.521  48.111  23.119  1.00  0.00     0.210 HD
ENDBRANCH   3  29
BRANCH   4  31
HETATM   31  O9  UNL     1      12.672  45.202  22.191  1.00  0.00    -0.376 OA
BRANCH  31  32
HETATM   32  C14 UNL     1      12.521  44.320  23.232  1.00  0.00     0.149 C
HETATM   33  C15 UNL     1      13.455  43.144  23.073  1.00  0.00     0.061 C
HETATM   34  C16 UNL     1      13.890  42.757  24.463  1.00  0.00     0.235 C
HETATM   35  N2  UNL     1      13.352  43.740  25.369  1.00  0.00    -0.073 N
HETATM   36  C17 UNL     1      12.965  44.889  24.571  1.00  0.00     0.264 C
ATOM     37  H22 UNL     1      12.592  43.379  25.945  1.00  0.00     0.277 HD
ATOM     38  H21 UNL     1      13.991  43.976  26.128  1.00  0.00     0.277 HD
ENDBRANCH  31  32
ENDBRANCH   4  31
TORSDOF 12
ENDMDL