MODEL 4
REMARK VINA RESULT: -7.255695963      1.705      3.159
REMARK  11 active torsions:
REMARK  status: ('A' for Active; 'I' for Inactive)
REMARK    1  A    between atoms: C2_2  and  C3_3
REMARK    2  A    between atoms: C8_8  and  C9_9
REMARK    3  A    between atoms: N1_10  and  N2_12
REMARK       I    between atoms: N2_12  and  C10_14
REMARK       I    between atoms: C10_14  and  N3_16
REMARK    4  A    between atoms: N3_16  and  O2_18
REMARK    5  A    between atoms: C13_22  and  O4_23
REMARK    6  A    between atoms: O4_23  and  C14_24
REMARK    7  A    between atoms: C16_26  and  O5_27
REMARK    8  A    between atoms: C17_29  and  O6_30
REMARK    9  A    between atoms: C18_32  and  C19_33
REMARK   10  A    between atoms: C19_33  and  O7_34
REMARK   11  A    between atoms: C20_37  and  O9_38
ROOT
HETATM    1  C3  UNL     1      12.962  50.395  23.296  1.00  0.00     0.044 A
HETATM    2  C4  UNL     1      11.567  50.762  23.700  1.00  0.00     0.025 A
HETATM    3  C5  UNL     1      11.621  49.707  24.790  1.00  0.00     0.025 A
HETATM    4  C6  UNL     1      10.582  48.649  24.702  1.00  0.00     0.008 C
HETATM    5  C7  UNL     1      10.961  47.469  23.856  1.00  0.00     0.013 C
HETATM    6  C8  UNL     1      12.375  47.011  24.110  1.00  0.00     0.058 C
HETATM    7  C12 UNL     1      13.290  48.118  23.717  1.00  0.00     0.169 C
HETATM    8  O3  UNL     1      13.190  48.282  22.345  1.00  0.00    -0.351 OA
HETATM    9  C13 UNL     1      13.116  49.613  22.045  1.00  0.00     0.275 C
HETATM   10  C20 UNL     1      12.985  49.370  24.409  1.00  0.00     0.100 A
ENDROOT
BRANCH   9  11
HETATM   11  O4  UNL     1      11.981  49.814  21.251  1.00  0.00    -0.331 OA
BRANCH  11  12
HETATM   12  C14 UNL     1      12.186  49.454  19.927  1.00  0.00     0.266 C
HETATM   13  C15 UNL     1      10.925  49.797  19.141  1.00  0.00     0.095 C
HETATM   14  C16 UNL     1      10.837  51.294  19.126  1.00  0.00     0.154 C
HETATM   15  C17 UNL     1      12.076  51.869  18.520  1.00  0.00     0.178 C
HETATM   16  C18 UNL     1      13.346  51.191  18.863  1.00  0.00     0.179 C
HETATM   17  O8  UNL     1      13.303  49.925  19.336  1.00  0.00    -0.351 OA
BRANCH  14  18
HETATM   18  O5  UNL     1      10.540  51.765  20.388  1.00  0.00    -0.393 OA
ATOM     19  H5  UNL     1      10.113  52.611  20.329  1.00  0.00     0.210 HD
ENDBRANCH  14  18
BRANCH  15  20
HETATM   20  O6  UNL     1      11.870  51.906  17.123  1.00  0.00    -0.390 OA
ATOM     21  H6  UNL     1      12.728  51.882  16.716  1.00  0.00     0.210 HD
ENDBRANCH  15  20
BRANCH  16  22
HETATM   22  C19 UNL     1      14.168  52.133  19.743  1.00  0.00     0.198 C
BRANCH  22  23
HETATM   23  O7  UNL     1      15.345  51.521  20.169  1.00  0.00    -0.398 OA
ATOM     24  H7  UNL     1      15.737  52.000  20.890  1.00  0.00     0.209 HD
ENDBRANCH  22  23
ENDBRANCH  16  22
ENDBRANCH  11  12
ENDBRANCH   9  11
BRANCH   1  25
HETATM   25  C2  UNL     1      13.905  51.555  23.476  1.00  0.00     0.013 C
HETATM   26  C1  UNL     1      13.258  52.893  23.313  1.00  0.00     0.006 C
ENDBRANCH   1  25
BRANCH  10  27
HETATM   27  O9  UNL     1      13.944  49.773  25.369  1.00  0.00    -0.386 OA
ATOM     28  H9  UNL     1      13.500  50.273  26.045  1.00  0.00     0.210 HD
ENDBRANCH  10  27
BRANCH   6  29
HETATM   29  C9  UNL     1      12.538  46.599  25.524  1.00  0.00     0.087 C
HETATM   30  N1  UNL     1      12.138  45.465  25.941  1.00  0.00    -0.311 N
ATOM     31  H1  UNL     1      11.694  44.829  25.278  1.00  0.00     0.185 HD
BRANCH  30  32
HETATM   32  N2  UNL     1      12.281  45.058  27.262  1.00  0.00    -0.251 N
HETATM   33  C10 UNL     1      11.205  45.137  28.176  1.00  0.00     0.358 C
HETATM   34  O1  UNL     1      10.069  45.577  27.839  1.00  0.00    -0.243 OA
HETATM   35  N3  UNL     1      11.392  44.713  29.508  1.00  0.00    -0.216 N
ATOM     36  H3  UNL     1      12.299  44.354  29.807  1.00  0.00     0.199 HD
ATOM     37  H2  UNL     1      13.181  44.695  27.578  1.00  0.00     0.191 HD
BRANCH  35  38
HETATM   38  O2  UNL     1      10.375  44.783  30.382  1.00  0.00    -0.281 OA
HETATM   39  C11 UNL     1      10.667  44.082  31.550  1.00  0.00     0.237 C
ENDBRANCH  35  38
ENDBRANCH  30  32
ENDBRANCH   6  29
TORSDOF 11
ENDMDL