MODEL 4
REMARK VINA RESULT: -6.554556576      4.281      6.268
REMARK  21 active torsions:
REMARK  status: ('A' for Active; 'I' for Inactive)
REMARK    1  A    between atoms: O1_2  and  C2_3
REMARK    2  A    between atoms: C5_6  and  C6_7
REMARK    3  A    between atoms: C6_7  and  C8_9
REMARK       I    between atoms: C8_9  and  N1_11
REMARK    4  A    between atoms: N1_11  and  C9_13
REMARK    5  A    between atoms: C10_16  and  N3_17
REMARK    6  A    between atoms: C11_22  and  N5_23
REMARK    7  A    between atoms: N5_23  and  N6_25
REMARK    8  A    between atoms: C12_32  and  O3_33
REMARK    9  A    between atoms: O3_33  and  C13_34
REMARK   10  A    between atoms: C13_34  and  C14_35
REMARK   11  A    between atoms: C14_35  and  C15_36
REMARK   12  A    between atoms: C14_35  and  O5_39
REMARK   13  A    between atoms: C15_36  and  O4_37
REMARK   14  A    between atoms: O5_39  and  C16_40
REMARK   15  A    between atoms: C16_40  and  O6_41
REMARK   16  A    between atoms: C16_40  and  C17_43
REMARK   17  A    between atoms: C17_43  and  N9_44
REMARK   18  A    between atoms: C17_43  and  C18_48
REMARK   19  A    between atoms: C18_48  and  O7_49
REMARK   20  A    between atoms: C18_48  and  C19_51
REMARK   21  A    between atoms: C19_51  and  O8_52
ROOT
HETATM    1  C2  UNL     1      -8.649   4.139  68.406  1.00  0.00     0.119 A
HETATM    2  C3  UNL     1      -7.886   3.506  69.357  1.00  0.00     0.043 A
HETATM    3  C4  UNL     1      -8.187   2.210  69.720  1.00  0.00     0.029 A
HETATM    4  C5  UNL     1      -9.255   1.601  69.103  1.00  0.00     0.024 A
HETATM    5  N8  UNL     1      -9.981   2.243  68.179  1.00  0.00    -0.337 N
ATOM      6  H8  UNL     1     -10.765   1.757  67.744  1.00  0.00     0.168 HD
HETATM    7  C12 UNL     1      -9.711   3.505  67.806  1.00  0.00     0.176 A
ENDROOT
BRANCH   4   8
HETATM    8  C6  UNL     1      -9.649   0.204  69.441  1.00  0.00     0.124 C
HETATM    9  C7  UNL     1      -8.420  -0.668  69.603  1.00  0.00     0.026 C
BRANCH   8  10
HETATM   10  C8  UNL     1     -10.437  -0.319  68.294  1.00  0.00     0.245 C
HETATM   11  O2  UNL     1      -9.867  -0.734  67.264  1.00  0.00    -0.272 OA
HETATM   12  N1  UNL     1     -11.841  -0.349  68.366  1.00  0.00    -0.158 N
ATOM     13  H1  UNL     1     -12.369   0.522  68.311  1.00  0.00     0.187 HD
BRANCH  12  14
HETATM   14  C9  UNL     1     -12.459  -1.461  68.501  1.00  0.00     0.714 A
HETATM   15  N2  UNL     1     -13.742  -1.572  68.131  1.00  0.00    -0.021 N
HETATM   16  C10 UNL     1     -14.348  -2.754  68.289  1.00  0.00     0.705 A
ATOM     17  H2  UNL     1     -14.244  -0.775  67.739  1.00  0.00     0.203 HD
HETATM   18  N4  UNL     1     -13.701  -3.829  68.808  1.00  0.00    -0.020 N
HETATM   19  C11 UNL     1     -12.415  -3.728  69.182  1.00  0.00     0.725 A
ATOM     20  H4  UNL     1     -14.193  -4.716  68.915  1.00  0.00     0.203 HD
HETATM   21  N7  UNL     1     -11.823  -2.546  69.020  1.00  0.00    -0.020 N
ATOM     22  H7  UNL     1     -10.847  -2.450  69.298  1.00  0.00     0.203 HD
BRANCH  16  23
HETATM   23  N3  UNL     1     -15.586  -2.912  67.946  1.00  0.00    -0.234 N
ATOM     24  H32 UNL     1     -16.133  -2.071  67.758  1.00  0.00     0.174 HD
ATOM     25  H31 UNL     1     -15.991  -3.846  67.871  1.00  0.00     0.174 HD
ENDBRANCH  16  23
BRANCH  19  26
HETATM   26  N5  UNL     1     -11.769  -4.725  69.679  1.00  0.00    -0.138 N
ATOM     27  H5  UNL     1     -11.542  -5.526  69.089  1.00  0.00     0.205 HD
BRANCH  26  28
HETATM   28  N6  UNL     1     -11.377  -4.716  71.019  1.00  0.00    -0.331 N
ATOM     29  H62 UNL     1     -11.463  -5.576  71.561  1.00  0.00     0.177 HD
ATOM     30  H61 UNL     1     -11.012  -3.865  71.445  1.00  0.00     0.177 HD
ENDBRANCH  26  28
ENDBRANCH  19  26
ENDBRANCH  12  14
ENDBRANCH   8  10
ENDBRANCH   4   8
BRANCH   7  31
HETATM   31  O3  UNL     1     -10.514   4.093  66.843  1.00  0.00    -0.331 OA
BRANCH  31  32
HETATM   32  C13 UNL     1     -11.471   3.330  66.135  1.00  0.00     0.211 C
BRANCH  32  33
HETATM   33  C14 UNL     1     -11.101   3.397  64.670  1.00  0.00     0.172 C
BRANCH  33  34
HETATM   34  C15 UNL     1     -10.886   1.989  64.194  1.00  0.00     0.198 C
BRANCH  34  35
HETATM   35  O4  UNL     1     -10.717   1.188  65.319  1.00  0.00    -0.398 OA
ATOM     36  H4  UNL     1     -10.825   0.284  65.046  1.00  0.00     0.209 HD
ENDBRANCH  34  35
ENDBRANCH  33  34
BRANCH  33  37
HETATM   37  O5  UNL     1     -10.067   4.257  64.412  1.00  0.00    -0.350 OA
BRANCH  37  38
HETATM   38  C16 UNL     1      -8.922   3.674  63.909  1.00  0.00     0.290 C
BRANCH  38  39
HETATM   39  O6  UNL     1      -8.515   4.512  62.837  1.00  0.00    -0.369 OA
ATOM     40  H6  UNL     1      -9.319   4.778  62.407  1.00  0.00     0.212 HD
ENDBRANCH  38  39
BRANCH  38  41
HETATM   41  C17 UNL     1      -7.869   3.722  64.979  1.00  0.00     0.268 C
BRANCH  41  42
HETATM   42  N9  UNL     1      -7.326   5.080  65.041  1.00  0.00    -0.068 N
ATOM     43  H93 UNL     1      -8.056   5.788  65.125  1.00  0.00     0.275 HD
ATOM     44  H92 UNL     1      -6.845   5.268  65.920  1.00  0.00     0.275 HD
ATOM     45  H91 UNL     1      -6.729   5.229  64.228  1.00  0.00     0.275 HD
ENDBRANCH  41  42
BRANCH  41  46
HETATM   46  C18 UNL     1      -6.735   2.781  64.772  1.00  0.00     0.177 C
BRANCH  46  47
HETATM   47  O7  UNL     1      -6.001   3.028  63.627  1.00  0.00    -0.391 OA
ATOM     48  H7  UNL     1      -6.371   2.645  62.840  1.00  0.00     0.210 HD
ENDBRANCH  46  47
BRANCH  46  49
HETATM   49  C19 UNL     1      -7.161   1.328  64.798  1.00  0.00     0.198 C
BRANCH  49  50
HETATM   50  O8  UNL     1      -7.904   1.058  65.946  1.00  0.00    -0.398 OA
ATOM     51  H8  UNL     1      -7.385   0.565  66.570  1.00  0.00     0.209 HD
ENDBRANCH  49  50
ENDBRANCH  46  49
ENDBRANCH  41  46
ENDBRANCH  38  41
ENDBRANCH  37  38
ENDBRANCH  33  37
ENDBRANCH  32  33
ENDBRANCH  31  32
ENDBRANCH   7  31
BRANCH   1  52
HETATM   52  O1  UNL     1      -8.339   5.440  68.049  1.00  0.00    -0.352 OA
HETATM   53  C1  UNL     1      -8.783   6.562  68.760  1.00  0.00     0.210 C
ENDBRANCH   1  52
TORSDOF 21
ENDMDL