MODEL 2
REMARK VINA RESULT: -6.022395932      1.237      1.869
REMARK  20 active torsions:
REMARK  status: ('A' for Active; 'I' for Inactive)
REMARK    1  A    between atoms: N1_2  and  C2_5
REMARK    2  A    between atoms: C3_6  and  O1_7
REMARK    3  A    between atoms: C4_9  and  C5_10
REMARK    4  A    between atoms: C5_10  and  O2_11
REMARK    5  A    between atoms: C6_14  and  O4_15
REMARK    6  A    between atoms: O4_15  and  C7_16
REMARK    7  A    between atoms: C8_17  and  N2_18
REMARK    8  A    between atoms: C10_23  and  N3_24
REMARK    9  A    between atoms: C11_28  and  O5_29
REMARK   10  A    between atoms: O5_29  and  C12_30
REMARK   11  A    between atoms: C13_31  and  N4_32
REMARK   12  A    between atoms: C15_37  and  N5_38
REMARK   13  A    between atoms: C16_42  and  N6_43
REMARK   14  A    between atoms: C17_47  and  N7_48
REMARK   15  A    between atoms: C18_52  and  O6_53
REMARK   16  A    between atoms: O6_53  and  C19_54
REMARK   17  A    between atoms: C19_54  and  C20_55
REMARK   18  A    between atoms: C20_55  and  C21_56
REMARK   19  A    between atoms: C21_56  and  C22_57
REMARK   20  A    between atoms: C22_57  and  N8_58
ROOT
HETATM    1  C7  UNL     1     -10.177   1.760  68.698  1.00  0.00     0.186 C
HETATM    2  C8  UNL     1     -10.023   1.738  70.244  1.00  0.00     0.217 C
HETATM    3  C9  UNL     1      -9.043   0.611  70.507  1.00  0.00     0.071 C
HETATM    4  C10 UNL     1      -8.731   0.039  69.116  1.00  0.00     0.217 C
HETATM    5  C11 UNL     1     -10.112   0.270  68.475  1.00  0.00     0.183 C
ENDROOT
BRANCH   1   6
HETATM    6  O4  UNL     1      -9.022   2.427  68.294  1.00  0.00    -0.349 OA
BRANCH   6   7
HETATM    7  C6  UNL     1      -8.932   2.599  66.940  1.00  0.00     0.292 C
HETATM    8  O3  UNL     1      -9.639   3.774  66.647  1.00  0.00    -0.349 OA
HETATM    9  C4  UNL     1      -9.773   4.017  65.320  1.00  0.00     0.179 C
HETATM   10  C3  UNL     1      -8.458   4.250  64.684  1.00  0.00     0.182 C
HETATM   11  C2  UNL     1      -7.304   3.592  65.317  1.00  0.00     0.250 C
HETATM   12  C18 UNL     1      -7.577   2.568  66.399  1.00  0.00     0.209 C
BRANCH   9  13
HETATM   13  C5  UNL     1     -10.653   3.036  64.591  1.00  0.00     0.198 C
BRANCH  13  14
HETATM   14  O2  UNL     1     -11.488   3.676  63.665  1.00  0.00    -0.398 OA
ATOM     15  H2  UNL     1     -11.775   4.526  63.980  1.00  0.00     0.209 HD
ENDBRANCH  13  14
ENDBRANCH   9  13
BRANCH  10  16
HETATM   16  O1  UNL     1      -8.503   4.026  63.286  1.00  0.00    -0.391 OA
ATOM     17  H1  UNL     1      -7.858   3.390  63.002  1.00  0.00     0.210 HD
ENDBRANCH  10  16
BRANCH  11  18
HETATM   18  N1  UNL     1      -6.500   3.006  64.226  1.00  0.00    -0.070 N
HETATM   19  C1  UNL     1      -6.338   1.583  64.388  1.00  0.00     0.267 C
ATOM     20  H12 UNL     1      -5.599   3.475  64.136  1.00  0.00     0.277 HD
ATOM     21  H11 UNL     1      -6.892   3.233  63.312  1.00  0.00     0.277 HD
ENDBRANCH  11  18
BRANCH  12  22
HETATM   22  O6  UNL     1      -6.628   2.804  67.394  1.00  0.00    -0.379 OA
BRANCH  22  23
HETATM   23  C19 UNL     1      -6.026   4.029  67.373  1.00  0.00     0.168 C
BRANCH  23  24
HETATM   24  C20 UNL     1      -6.219   4.902  68.565  1.00  0.00     0.028 C
BRANCH  24  25
HETATM   25  C21 UNL     1      -7.485   5.725  68.418  1.00  0.00     0.029 C
BRANCH  25  26
HETATM   26  C22 UNL     1      -8.347   5.591  69.643  1.00  0.00     0.230 C
BRANCH  26  27
HETATM   27  N8  UNL     1      -9.722   5.326  69.217  1.00  0.00    -0.079 N
ATOM     28  H83 UNL     1     -10.412   5.684  69.878  1.00  0.00     0.274 HD
ATOM     29  H82 UNL     1      -9.997   5.885  68.410  1.00  0.00     0.274 HD
ATOM     30  H81 UNL     1      -9.822   4.324  69.052  1.00  0.00     0.274 HD
ENDBRANCH  26  27
ENDBRANCH  25  26
ENDBRANCH  24  25
ENDBRANCH  23  24
ENDBRANCH  22  23
ENDBRANCH  12  22
ENDBRANCH   6   7
ENDBRANCH   1   6
BRANCH   2  31
HETATM   31  N2  UNL     1     -11.284   1.576  70.901  1.00  0.00    -0.072 N
ATOM     32  H23 UNL     1     -12.013   1.299  70.244  1.00  0.00     0.274 HD
ATOM     33  H22 UNL     1     -11.287   0.749  71.499  1.00  0.00     0.274 HD
ATOM     34  H21 UNL     1     -11.550   2.412  71.421  1.00  0.00     0.274 HD
ENDBRANCH   2  31
BRANCH   5  35
HETATM   35  O5  UNL     1     -11.107  -0.295  69.279  1.00  0.00    -0.372 OA
BRANCH  35  36
HETATM   36  C12 UNL     1     -11.966  -1.142  68.596  1.00  0.00     0.185 C
HETATM   37  C13 UNL     1     -13.403  -0.725  68.826  1.00  0.00     0.216 C
HETATM   38  C14 UNL     1     -14.402  -1.681  68.264  1.00  0.00     0.070 C
HETATM   39  C15 UNL     1     -14.146  -3.119  68.567  1.00  0.00     0.218 C
HETATM   40  C16 UNL     1     -12.678  -3.471  68.453  1.00  0.00     0.246 C
HETATM   41  C17 UNL     1     -11.833  -2.529  69.245  1.00  0.00     0.246 C
BRANCH  37  42
HETATM   42  N4  UNL     1     -13.698   0.587  68.282  1.00  0.00    -0.072 N
ATOM     43  H43 UNL     1     -12.852   1.149  68.202  1.00  0.00     0.274 HD
ATOM     44  H42 UNL     1     -13.949   0.525  67.295  1.00  0.00     0.274 HD
ATOM     45  H41 UNL     1     -14.417   1.079  68.812  1.00  0.00     0.274 HD
ENDBRANCH  37  42
BRANCH  39  46
HETATM   46  N5  UNL     1     -14.854  -3.928  67.577  1.00  0.00    -0.073 N
ATOM     47  H53 UNL     1     -14.517  -3.771  66.627  1.00  0.00     0.274 HD
ATOM     48  H52 UNL     1     -14.624  -4.920  67.643  1.00  0.00     0.274 HD
ATOM     49  H51 UNL     1     -15.853  -3.748  67.674  1.00  0.00     0.274 HD
ENDBRANCH  39  46
BRANCH  40  50
HETATM   50  N6  UNL     1     -12.473  -4.852  68.775  1.00  0.00    -0.071 N
ATOM     51  H63 UNL     1     -12.375  -4.999  69.779  1.00  0.00     0.274 HD
ATOM     52  H62 UNL     1     -13.314  -5.407  68.623  1.00  0.00     0.274 HD
ATOM     53  H61 UNL     1     -11.675  -5.220  68.257  1.00  0.00     0.274 HD
ENDBRANCH  40  50
BRANCH  41  54
HETATM   54  N7  UNL     1     -12.217  -2.451  70.629  1.00  0.00    -0.070 N
ATOM     55  H73 UNL     1     -13.179  -2.133  70.745  1.00  0.00     0.274 HD
ATOM     56  H72 UNL     1     -12.316  -3.373  71.054  1.00  0.00     0.274 HD
ATOM     57  H71 UNL     1     -11.553  -1.864  71.135  1.00  0.00     0.274 HD
ENDBRANCH  41  54
ENDBRANCH  35  36
ENDBRANCH   5  35
BRANCH   4  58
HETATM   58  N3  UNL     1      -8.307  -1.302  69.125  1.00  0.00    -0.072 N
ATOM     59  H33 UNL     1      -8.795  -1.835  68.404  1.00  0.00     0.274 HD
ATOM     60  H32 UNL     1      -7.351  -1.376  68.777  1.00  0.00     0.274 HD
ATOM     61  H31 UNL     1      -8.394  -1.763  70.031  1.00  0.00     0.274 HD
ENDBRANCH   4  58
TORSDOF 20
ENDMDL