MODEL 4
REMARK VINA RESULT: -5.139309951      1.329      1.467
REMARK  20 active torsions:
REMARK  status: ('A' for Active; 'I' for Inactive)
REMARK    1  A    between atoms: N1_1  and  C1_5
REMARK    2  A    between atoms: C1_5  and  C2_6
REMARK    3  A    between atoms: C2_6  and  N2_7
REMARK    4  A    between atoms: N2_7  and  C3_9
REMARK    5  A    between atoms: C3_9  and  C4_10
REMARK    6  A    between atoms: C6_12  and  N3_13
REMARK    7  A    between atoms: C7_17  and  O1_18
REMARK    8  A    between atoms: O1_18  and  C8_19
REMARK    9  A    between atoms: C9_20  and  N4_21
REMARK   10  A    between atoms: C11_26  and  N5_27
REMARK   11  A    between atoms: C12_31  and  O2_32
REMARK   12  A    between atoms: O2_32  and  C13_33
REMARK   13  A    between atoms: C14_34  and  O3_35
REMARK   14  A    between atoms: C15_37  and  N6_38
REMARK   15  A    between atoms: C17_43  and  N7_44
REMARK   16  A    between atoms: C18_48  and  O4_49
REMARK   17  A    between atoms: O4_49  and  C19_50
REMARK   18  A    between atoms: C19_50  and  C20_51
REMARK   19  A    between atoms: C20_51  and  N8_52
REMARK   20  A    between atoms: C21_56  and  O5_57
ROOT
HETATM    1  C8  UNL     1      -8.800   3.386  65.315  1.00  0.00     0.186 C
HETATM    2  C9  UNL     1      -7.485   3.131  64.675  1.00  0.00     0.217 C
HETATM    3  C10 UNL     1      -6.969   1.741  64.717  1.00  0.00     0.071 C
HETATM    4  C11 UNL     1      -7.749   0.819  65.589  1.00  0.00     0.217 C
HETATM    5  C12 UNL     1      -8.220   1.465  66.866  1.00  0.00     0.183 C
HETATM    6  C21 UNL     1      -9.096   2.658  66.579  1.00  0.00     0.180 C
ENDROOT
BRANCH   5   7
HETATM    7  O2  UNL     1      -7.282   1.797  67.782  1.00  0.00    -0.370 OA
BRANCH   7   8
HETATM    8  C13 UNL     1      -6.613   0.828  68.452  1.00  0.00     0.183 C
HETATM    9  C14 UNL     1      -5.692   1.487  69.451  1.00  0.00     0.180 C
HETATM   10  C15 UNL     1      -4.730   0.455  70.059  1.00  0.00     0.216 C
HETATM   11  C16 UNL     1      -5.601  -0.493  70.856  1.00  0.00     0.071 C
HETATM   12  C17 UNL     1      -6.521  -1.165  69.860  1.00  0.00     0.217 C
HETATM   13  C18 UNL     1      -7.469  -0.131  69.259  1.00  0.00     0.183 C
BRANCH   9  14
HETATM   14  O3  UNL     1      -4.959   2.470  68.822  1.00  0.00    -0.391 OA
ATOM     15  H3  UNL     1      -4.912   2.283  67.892  1.00  0.00     0.210 HD
ENDBRANCH   9  14
BRANCH  10  16
HETATM   16  N6  UNL     1      -3.808   1.179  70.914  1.00  0.00    -0.072 N
ATOM     17  H63 UNL     1      -4.279   1.736  71.627  1.00  0.00     0.274 HD
ATOM     18  H62 UNL     1      -3.288   0.570  71.546  1.00  0.00     0.274 HD
ATOM     19  H61 UNL     1      -3.204   1.733  70.307  1.00  0.00     0.274 HD
ENDBRANCH  10  16
BRANCH  12  20
HETATM   20  N7  UNL     1      -5.690  -1.764  68.831  1.00  0.00    -0.072 N
ATOM     21  H73 UNL     1      -5.867  -1.378  67.903  1.00  0.00     0.274 HD
ATOM     22  H72 UNL     1      -4.710  -1.493  68.904  1.00  0.00     0.274 HD
ATOM     23  H71 UNL     1      -5.828  -2.774  68.874  1.00  0.00     0.274 HD
ENDBRANCH  12  20
BRANCH  13  24
HETATM   24  O4  UNL     1      -8.111   0.458  70.331  1.00  0.00    -0.379 OA
BRANCH  24  25
HETATM   25  C19 UNL     1      -9.484   0.470  70.173  1.00  0.00     0.195 C
BRANCH  25  26
HETATM   26  C20 UNL     1     -10.016   1.821  70.658  1.00  0.00     0.255 C
BRANCH  26  27
HETATM   27  N8  UNL     1      -8.988   2.787  70.414  1.00  0.00    -0.077 N
ATOM     28  H83 UNL     1      -8.971   3.538  71.106  1.00  0.00     0.274 HD
ATOM     29  H82 UNL     1      -8.050   2.428  70.590  1.00  0.00     0.274 HD
ATOM     30  H81 UNL     1      -9.116   3.124  69.460  1.00  0.00     0.274 HD
ENDBRANCH  26  27
ENDBRANCH  25  26
ENDBRANCH  24  25
ENDBRANCH  13  24
ENDBRANCH   7   8
ENDBRANCH   5   7
BRANCH   4  31
HETATM   31  N5  UNL     1      -8.991   0.469  64.861  1.00  0.00    -0.072 N
ATOM     32  H53 UNL     1      -9.815   0.456  65.462  1.00  0.00     0.274 HD
ATOM     33  H52 UNL     1      -9.302   1.204  64.226  1.00  0.00     0.274 HD
ATOM     34  H51 UNL     1      -8.827  -0.422  64.391  1.00  0.00     0.274 HD
ENDBRANCH   4  31
BRANCH   6  35
HETATM   35  O5  UNL     1      -9.101   3.528  67.669  1.00  0.00    -0.390 OA
ATOM     36  H5  UNL     1      -9.988   3.741  67.933  1.00  0.00     0.210 HD
ENDBRANCH   6  35
BRANCH   1  37
HETATM   37  O1  UNL     1      -9.869   3.307  64.395  1.00  0.00    -0.349 OA
BRANCH  37  38
HETATM   38  C7  UNL     1     -10.686   4.408  64.440  1.00  0.00     0.291 C
HETATM   39  C6  UNL     1     -12.114   3.982  64.215  1.00  0.00     0.241 C
HETATM   40  C5  UNL     1     -12.818   5.175  64.867  1.00  0.00     0.075 C
HETATM   41  C4  UNL     1     -11.896   5.528  65.989  1.00  0.00     0.164 C
HETATM   42  O6  UNL     1     -10.659   4.940  65.719  1.00  0.00    -0.349 OA
BRANCH  39  43
HETATM   43  N3  UNL     1     -12.341   2.793  65.003  1.00  0.00    -0.070 N
ATOM     44  H33 UNL     1     -11.608   2.096  64.868  1.00  0.00     0.274 HD
ATOM     45  H32 UNL     1     -12.202   2.960  66.000  1.00  0.00     0.274 HD
ATOM     46  H31 UNL     1     -13.268   2.419  64.802  1.00  0.00     0.274 HD
ENDBRANCH  39  43
BRANCH  41  47
HETATM   47  C3  UNL     1     -11.731   7.023  66.170  1.00  0.00     0.087 C
BRANCH  47  48
HETATM   48  N2  UNL     1     -10.537   7.501  66.702  1.00  0.00    -0.398 N
ATOM     49  H2  UNL     1      -9.816   7.846  66.068  1.00  0.00     0.158 HD
BRANCH  48  50
HETATM   50  C2  UNL     1     -10.292   7.524  68.090  1.00  0.00     0.146 C
BRANCH  50  51
HETATM   51  C1  UNL     1      -8.880   6.962  68.318  1.00  0.00     0.249 C
BRANCH  51  52
HETATM   52  N1  UNL     1      -8.325   6.467  67.096  1.00  0.00    -0.078 N
ATOM     53  H13 UNL     1      -7.442   5.981  67.253  1.00  0.00     0.274 HD
ATOM     54  H12 UNL     1      -8.868   5.686  66.725  1.00  0.00     0.274 HD
ATOM     55  H11 UNL     1      -8.226   7.217  66.412  1.00  0.00     0.274 HD
ENDBRANCH  51  52
ENDBRANCH  50  51
ENDBRANCH  48  50
ENDBRANCH  47  48
ENDBRANCH  41  47
ENDBRANCH  37  38
ENDBRANCH   1  37
BRANCH   2  56
HETATM   56  N4  UNL     1      -6.471   4.108  65.117  1.00  0.00    -0.072 N
ATOM     57  H43 UNL     1      -6.884   5.025  65.285  1.00  0.00     0.274 HD
ATOM     58  H42 UNL     1      -6.145   3.907  66.062  1.00  0.00     0.274 HD
ATOM     59  H41 UNL     1      -5.694   4.164  64.459  1.00  0.00     0.274 HD
ENDBRANCH   2  56
TORSDOF 20
ENDMDL