MODEL 1
REMARK VINA RESULT: -8.150732520      0.000      0.000
REMARK  15 active torsions:
REMARK  status: ('A' for Active; 'I' for Inactive)
REMARK    1  A    between atoms: C1_4  and  C2_5
REMARK    2  A    between atoms: C1_4  and  N8_31
REMARK    3  A    between atoms: C2_5  and  C3_6
REMARK    4  A    between atoms: C3_6  and  C4_7
REMARK    5  A    between atoms: C4_7  and  C5_8
REMARK    6  A    between atoms: C4_7  and  S1_11
REMARK    7  A    between atoms: S1_11  and  C6_14
REMARK    8  A    between atoms: N4_18  and  C7_19
REMARK    9  A    between atoms: C7_19  and  C8_20
REMARK   10  A    between atoms: C8_20  and  C9_21
REMARK   11  A    between atoms: C9_21  and  N5_22
REMARK   12  A    between atoms: C9_21  and  C10_26
REMARK   13  A    between atoms: N8_31  and  N9_33
REMARK       I    between atoms: N9_33  and  C11_35
REMARK   14  A    between atoms: C11_35  and  C12_37
REMARK   15  A    between atoms: C13_40  and  N11_41
ROOT
HETATM    1  C3  UNL     1      -6.850   3.107  65.038  1.00  0.00     0.039 C
ENDROOT
BRANCH   1   2
HETATM    2  C2  UNL     1      -6.907   4.386  65.809  1.00  0.00     0.079 C
BRANCH   2   3
HETATM    3  C1  UNL     1      -6.215   4.198  67.126  1.00  0.00     0.089 C
HETATM    4  N1  UNL     1      -6.503   4.954  68.105  1.00  0.00    -0.388 N
ATOM      5  H12 UNL     1      -7.212   5.673  67.961  1.00  0.00     0.157 HD
ATOM      6  H11 UNL     1      -6.032   4.826  69.001  1.00  0.00     0.157 HD
BRANCH   3   7
HETATM    7  N8  UNL     1      -5.236   3.207  67.324  1.00  0.00    -0.286 N
ATOM      8  H8  UNL     1      -5.506   2.224  67.285  1.00  0.00     0.188 HD
BRANCH   7   9
HETATM    9  N9  UNL     1      -3.891   3.542  67.575  1.00  0.00    -0.262 N
HETATM   10  C11 UNL     1      -3.252   3.126  68.753  1.00  0.00     0.304 C
HETATM   11  O6  UNL     1      -3.922   2.442  69.580  1.00  0.00    -0.263 OA
ATOM     12  H9  UNL     1      -3.374   4.094  66.891  1.00  0.00     0.190 HD
BRANCH  10  13
HETATM   13  C12 UNL     1      -1.864   3.464  69.025  1.00  0.00     0.195 A
HETATM   14  N10 UNL     1      -1.255   2.781  70.028  1.00  0.00    -0.171 N
HETATM   15  C13 UNL     1       0.024   3.060  70.312  1.00  0.00     0.681 A
ATOM     16  H10 UNL     1      -1.763   2.070  70.555  1.00  0.00     0.186 HD
HETATM   17  N12 UNL     1       0.713   3.992  69.633  1.00  0.00    -0.141 N
HETATM   18  C14 UNL     1       0.102   4.657  68.648  1.00  0.00     0.340 A
ATOM     19  H12 UNL     1       1.687   4.189  69.865  1.00  0.00     0.189 HD
HETATM   20  O7  UNL     1       0.714   5.535  67.990  1.00  0.00    -0.246 OA
HETATM   21  N13 UNL     1      -1.184   4.400  68.337  1.00  0.00    -0.289 N
ATOM     22  H13 UNL     1      -1.641   4.914  67.583  1.00  0.00     0.172 HD
BRANCH  15  23
HETATM   23  N11 UNL     1       0.593   2.404  71.269  1.00  0.00    -0.234 N
ATOM     24 2H11 UNL     1       0.166   2.378  72.195  1.00  0.00     0.174 HD
ATOM     25 1H11 UNL     1       1.470   1.923  71.067  1.00  0.00     0.174 HD
ENDBRANCH  15  23
ENDBRANCH  10  13
ENDBRANCH   7   9
ENDBRANCH   3   7
ENDBRANCH   2   3
ENDBRANCH   1   2
BRANCH   1  26
HETATM   26  C4  UNL     1      -8.056   2.322  64.950  1.00  0.00     0.217 C
BRANCH  26  27
HETATM   27  C5  UNL     1      -9.182   2.729  64.174  1.00  0.00     0.192 C
HETATM   28  O1  UNL     1      -9.231   2.650  62.913  1.00  0.00    -0.647 OA
HETATM   29  O2  UNL     1     -10.295   3.248  64.877  1.00  0.00    -0.647 OA
ENDBRANCH  26  27
BRANCH  26  30
HETATM   30  S1  UNL     1      -8.227   1.015  65.801  1.00  0.00     0.223 S
HETATM   31  O3  UNL     1      -6.830   0.412  65.539  1.00  0.00    -0.219 OA
HETATM   32  O4  UNL     1      -9.411  -0.024  65.338  1.00  0.00    -0.219 OA
BRANCH  30  33
HETATM   33  C6  UNL     1      -8.294   1.381  67.510  1.00  0.00     0.232 A
HETATM   34  N2  UNL     1      -9.153   2.103  68.219  1.00  0.00    -0.257 N
HETATM   35  N3  UNL     1      -8.780   2.079  69.486  1.00  0.00    -0.002 NA
ATOM     36  H2  UNL     1      -9.966   2.595  67.847  1.00  0.00     0.186 HD
HETATM   37  N4  UNL     1      -7.674   1.338  69.609  1.00  0.00    -0.216 N
HETATM   38  N7  UNL     1      -7.391   0.923  68.409  1.00  0.00    -0.260 N
ATOM     39  H7  UNL     1      -6.594   0.329  68.176  1.00  0.00     0.190 HD
BRANCH  37  40
HETATM   40  C7  UNL     1      -7.035   1.129  70.893  1.00  0.00     0.169 C
BRANCH  40  41
HETATM   41  C8  UNL     1      -6.564  -0.308  70.989  1.00  0.00     0.065 C
BRANCH  41  42
HETATM   42  C9  UNL     1      -5.281  -0.542  70.263  1.00  0.00     0.273 C
BRANCH  42  43
HETATM   43  N5  UNL     1      -4.120  -0.459  71.111  1.00  0.00    -0.067 N
ATOM     44  H53 UNL     1      -3.268  -0.413  70.552  1.00  0.00     0.275 HD
ATOM     45  H52 UNL     1      -4.072   0.450  71.569  1.00  0.00     0.275 HD
ATOM     46  H51 UNL     1      -4.062  -1.213  71.796  1.00  0.00     0.275 HD
ENDBRANCH  42  43
BRANCH  42  47
HETATM   47  C10 UNL     1      -5.339  -1.881  69.638  1.00  0.00     0.261 C
HETATM   48  N6  UNL     1      -4.952  -3.045  70.331  1.00  0.00    -0.060 NA
HETATM   49  O5  UNL     1      -5.755  -1.952  68.442  1.00  0.00    -0.275 OA
ENDBRANCH  42  47
ENDBRANCH  41  42
ENDBRANCH  40  41
ENDBRANCH  37  40
ENDBRANCH  30  33
ENDBRANCH  26  30
ENDBRANCH   1  26
TORSDOF 15
ENDMDL