MODEL 1
REMARK VINA RESULT: -6.911174434      0.000      0.000
REMARK  17 active torsions:
REMARK  status: ('A' for Active; 'I' for Inactive)
REMARK    1  A    between atoms: O1_2  and  N1_3
REMARK       I    between atoms: N1_3  and  C2_5
REMARK    2  A    between atoms: C2_5  and  C3_7
REMARK    3  A    between atoms: C3_7  and  O3_8
REMARK    4  A    between atoms: C3_7  and  N2_10
REMARK    5  A    between atoms: N2_10  and  C4_12
REMARK    6  A    between atoms: C4_12  and  C5_13
REMARK    7  A    between atoms: C4_12  and  C14_39
REMARK       I    between atoms: C5_13  and  N3_15
REMARK    8  A    between atoms: N3_15  and  C6_17
REMARK    9  A    between atoms: C6_17  and  C7_18
REMARK   10  A    between atoms: C6_17  and  C11_32
REMARK   11  A    between atoms: C7_18  and  O5_19
REMARK   12  A    between atoms: C7_18  and  C8_21
REMARK   13  A    between atoms: C8_21  and  C9_23
REMARK   14  A    between atoms: C9_23  and  N5_28
REMARK   15  A    between atoms: N4_24  and  O7_26
REMARK   16  A    between atoms: C11_32  and  O8_33
REMARK   17  A    between atoms: C16_42  and  N7_43
ROOT
HETATM    1  N5  UNL     1      -9.158   1.530  64.673  1.00  0.00    -0.275 N
ATOM      2  H5  UNL     1      -9.118   1.492  63.654  1.00  0.00     0.180 HD
HETATM    3  C10 UNL     1     -10.377   1.736  65.320  1.00  0.00     0.183 C
HETATM    4  N6  UNL     1     -11.391   1.890  65.838  1.00  0.00    -0.172 NA
ENDROOT
BRANCH   1   5
HETATM    5  C9  UNL     1      -7.967   1.373  65.445  1.00  0.00     0.183 C
HETATM    6  N4  UNL     1      -7.950   0.365  66.242  1.00  0.00    -0.249 N
ATOM      7  H4  UNL     1      -8.764  -0.248  66.290  1.00  0.00     0.196 HD
BRANCH   5   8
HETATM    8  C8  UNL     1      -6.824   2.234  65.369  1.00  0.00     0.226 C
HETATM    9  O6  UNL     1      -5.728   1.760  64.979  1.00  0.00    -0.286 OA
BRANCH   8  10
HETATM   10  C7  UNL     1      -6.830   3.675  65.723  1.00  0.00     0.222 C
BRANCH  10  11
HETATM   11  C6  UNL     1      -6.592   3.986  67.148  1.00  0.00     0.167 C
BRANCH  11  12
HETATM   12  N3  UNL     1      -5.570   3.020  67.617  1.00  0.00    -0.348 N
HETATM   13  C5  UNL     1      -4.486   3.368  68.453  1.00  0.00     0.246 C
HETATM   14  O4  UNL     1      -4.405   4.564  68.813  1.00  0.00    -0.271 OA
ATOM     15  H3  UNL     1      -5.654   2.049  67.319  1.00  0.00     0.163 HD
BRANCH  13  16
HETATM   16  C4  UNL     1      -3.503   2.323  68.867  1.00  0.00     0.223 C
BRANCH  16  17
HETATM   17  N2  UNL     1      -3.845   1.670  70.072  1.00  0.00    -0.372 N
ATOM     18  H2  UNL     1      -3.185   1.655  70.850  1.00  0.00     0.157 HD
BRANCH  17  19
HETATM   19  C3  UNL     1      -5.100   1.036  70.199  1.00  0.00     0.310 C
BRANCH  19  20
HETATM   20  C2  UNL     1      -4.944  -0.439  70.223  1.00  0.00     0.289 C
HETATM   21  N1  UNL     1      -4.130  -1.089  71.214  1.00  0.00    -0.232 N
ATOM     22  H1  UNL     1      -3.660  -0.511  71.912  1.00  0.00     0.197 HD
HETATM   23  O2  UNL     1      -5.501  -1.227  69.398  1.00  0.00    -0.266 OA
BRANCH  21  24
HETATM   24  O1  UNL     1      -3.961  -2.416  71.265  1.00  0.00    -0.283 OA
HETATM   25  C1  UNL     1      -2.828  -2.754  71.982  1.00  0.00     0.237 C
ENDBRANCH  21  24
ENDBRANCH  19  20
BRANCH  19  26
HETATM   26  O3  UNL     1      -5.662   1.411  71.423  1.00  0.00    -0.368 OA
ATOM     27  H3  UNL     1      -6.047   2.271  71.303  1.00  0.00     0.212 HD
ENDBRANCH  19  26
ENDBRANCH  17  19
ENDBRANCH  16  17
BRANCH  16  28
HETATM   28  C14 UNL     1      -2.149   3.036  69.088  1.00  0.00     0.049 A
HETATM   29  C15 UNL     1      -1.426   2.791  70.231  1.00  0.00     0.081 A
HETATM   30  S1  UNL     1      -0.070   3.807  70.029  1.00  0.00    -0.064 SA
HETATM   31  C16 UNL     1      -0.485   4.481  68.521  1.00  0.00     0.142 A
HETATM   32  N8  UNL     1      -1.647   3.900  68.235  1.00  0.00    -0.338 N
ATOM     33  H8  UNL     1      -2.139   4.120  67.369  1.00  0.00     0.168 HD
BRANCH  31  34
HETATM   34  N7  UNL     1       0.169   5.375  67.797  1.00  0.00    -0.380 N
ATOM     35  H72 UNL     1       0.831   6.076  68.127  1.00  0.00     0.158 HD
ATOM     36  H71 UNL     1       0.146   5.529  66.789  1.00  0.00     0.158 HD
ENDBRANCH  31  34
ENDBRANCH  16  28
ENDBRANCH  13  16
ENDBRANCH  11  12
BRANCH  11  37
HETATM   37  C11 UNL     1      -7.698   4.035  68.106  1.00  0.00     0.190 C
HETATM   38  C12 UNL     1      -7.745   4.827  69.331  1.00  0.00     0.229 C
HETATM   39  O9  UNL     1      -7.558   3.654  70.148  1.00  0.00    -0.315 OA
HETATM   40  C13 UNL     1      -7.866   2.891  68.990  1.00  0.00     0.298 C
HETATM   41  O10 UNL     1      -8.171   1.659  68.849  1.00  0.00    -0.262 OA
BRANCH  37  42
HETATM   42  O8  UNL     1      -8.899   4.236  67.347  1.00  0.00    -0.376 OA
ATOM     43  H8  UNL     1      -8.899   5.143  67.065  1.00  0.00     0.211 HD
ENDBRANCH  37  42
ENDBRANCH  11  37
ENDBRANCH  10  11
BRANCH  10  44
HETATM   44  O5  UNL     1      -6.067   4.456  64.857  1.00  0.00    -0.385 OA
ATOM     45  H5  UNL     1      -5.533   3.942  64.262  1.00  0.00     0.210 HD
ENDBRANCH  10  44
ENDBRANCH   8  10
ENDBRANCH   5   8
BRANCH   6  46
HETATM   46  O7  UNL     1      -6.862   0.097  67.027  1.00  0.00    -0.288 OA
ATOM     47  H7  UNL     1      -6.845   0.335  67.947  1.00  0.00     0.244 HD
ENDBRANCH   6  46
ENDBRANCH   1   5
TORSDOF 17
ENDMDL