MODEL 1
REMARK VINA RESULT: -7.491995202      0.000      0.000
REMARK  17 active torsions:
REMARK  status: ('A' for Active; 'I' for Inactive)
REMARK    1  A    between atoms: O1_2  and  C2_3
REMARK    2  A    between atoms: C2_3  and  C3_5
REMARK    3  A    between atoms: C3_5  and  N1_6
REMARK       I    between atoms: N1_6  and  C4_8
REMARK    4  A    between atoms: C4_8  and  C5_10
REMARK       I    between atoms: C5_10  and  N2_12
REMARK    5  A    between atoms: N2_12  and  N3_14
REMARK    6  A    between atoms: C8_19  and  N4_20
REMARK    7  A    between atoms: N4_20  and  C9_22
REMARK    8  A    between atoms: C9_22  and  O5_23
REMARK    9  A    between atoms: C9_22  and  C10_25
REMARK   10  A    between atoms: C10_25  and  C11_26
REMARK   11  A    between atoms: C10_25  and  N5_28
REMARK   12  A    between atoms: N5_28  and  C12_31
REMARK   13  A    between atoms: C12_31  and  C13_32
REMARK   14  A    between atoms: C13_32  and  C14_33
REMARK   15  A    between atoms: C14_33  and  N6_34
REMARK   16  A    between atoms: C17_39  and  N8_40
REMARK   17  A    between atoms: C18_45  and  N10_46
ROOT
HETATM    1  C10 UNL     1      -6.827   2.985  64.562  1.00  0.00     0.294 C
ENDROOT
BRANCH   1   2
HETATM    2  C9  UNL     1      -8.260   3.162  64.290  1.00  0.00     0.251 C
BRANCH   2   3
HETATM    3  N4  UNL     1      -9.025   2.072  63.949  1.00  0.00    -0.387 N
ATOM      4  H4  UNL     1      -8.662   1.479  63.203  1.00  0.00     0.156 HD
BRANCH   3   5
HETATM    5  C8  UNL     1     -10.252   1.684  64.515  1.00  0.00     0.105 C
HETATM    6  C7  UNL     1     -10.328   1.818  65.956  1.00  0.00    -0.003 C
HETATM    7  C6  UNL     1     -11.445   2.455  66.279  1.00  0.00     0.012 C
HETATM    8  C3  UNL     1     -12.265   2.828  65.094  1.00  0.00     0.141 C
HETATM    9  C20 UNL     1     -11.415   2.482  63.962  1.00  0.00     0.075 C
BRANCH   8  10
HETATM   10  C2  UNL     1     -13.472   1.907  65.232  1.00  0.00     0.291 C
HETATM   11  O2  UNL     1     -14.121   1.600  64.252  1.00  0.00    -0.262 OA
BRANCH  10  12
HETATM   12  O1  UNL     1     -13.770   1.463  66.485  1.00  0.00    -0.324 OA
HETATM   13  C1  UNL     1     -15.040   1.203  67.013  1.00  0.00     0.213 C
ENDBRANCH  10  12
ENDBRANCH   8  10
BRANCH   8  14
HETATM   14  N1  UNL     1     -12.711   4.194  65.162  1.00  0.00    -0.331 N
HETATM   15  C4  UNL     1     -11.880   5.338  65.213  1.00  0.00     0.312 C
HETATM   16  O3  UNL     1     -10.654   5.233  65.231  1.00  0.00    -0.262 OA
ATOM     17  H1  UNL     1     -13.719   4.352  65.176  1.00  0.00     0.164 HD
BRANCH  15  18
HETATM   18  C5  UNL     1     -12.478   6.697  65.243  1.00  0.00     0.327 C
HETATM   19  O4  UNL     1     -13.675   6.883  64.944  1.00  0.00    -0.261 OA
HETATM   20  N2  UNL     1     -11.694   7.817  65.617  1.00  0.00    -0.268 N
ATOM     21  H2  UNL     1     -10.714   7.694  65.873  1.00  0.00     0.190 HD
BRANCH  20  22
HETATM   22  N3  UNL     1     -12.268   9.082  65.632  1.00  0.00    -0.342 N
ATOM     23  H32 UNL     1     -12.910   9.346  64.884  1.00  0.00     0.176 HD
ATOM     24  H31 UNL     1     -12.042   9.728  66.388  1.00  0.00     0.176 HD
ENDBRANCH  20  22
ENDBRANCH  15  18
ENDBRANCH   8  14
ENDBRANCH   3   5
ENDBRANCH   2   3
BRANCH   2  25
HETATM   25  O5  UNL     1      -8.428   4.211  63.313  1.00  0.00    -0.375 OA
ATOM     26  H5  UNL     1      -7.928   4.978  63.567  1.00  0.00     0.212 HD
ENDBRANCH   2  25
ENDBRANCH   1   2
BRANCH   1  27
HETATM   27  C11 UNL     1      -6.540   1.558  64.925  1.00  0.00     0.268 C
HETATM   28  O6  UNL     1      -6.411   0.664  64.111  1.00  0.00    -0.304 OA
ENDBRANCH   1  27
BRANCH   1  29
HETATM   29  N5  UNL     1      -6.420   3.728  65.791  1.00  0.00    -0.060 N
ATOM     30  H52 UNL     1      -5.412   3.868  65.864  1.00  0.00     0.278 HD
ATOM     31  H51 UNL     1      -6.683   4.714  65.774  1.00  0.00     0.278 HD
BRANCH  29  32
HETATM   32  C12 UNL     1      -6.978   3.007  66.910  1.00  0.00     0.235 C
BRANCH  32  33
HETATM   33  C13 UNL     1      -6.113   3.132  68.147  1.00  0.00     0.048 C
BRANCH  33  34
HETATM   34  C14 UNL     1      -4.760   3.671  67.771  1.00  0.00     0.133 C
BRANCH  34  35
HETATM   35  N6  UNL     1      -3.799   3.122  68.709  1.00  0.00    -0.327 N
HETATM   36  C15 UNL     1      -4.127   2.151  69.614  1.00  0.00     0.185 A
HETATM   37  N7  UNL     1      -3.053   1.845  70.353  1.00  0.00    -0.346 N
HETATM   38  C16 UNL     1      -2.017   2.631  69.918  1.00  0.00     0.123 A
ATOM     39  H7  UNL     1      -3.013   1.154  71.103  1.00  0.00     0.167 HD
HETATM   40  C17 UNL     1      -0.705   2.718  70.328  1.00  0.00     0.145 A
HETATM   41  C19 UNL     1      -2.517   3.416  68.892  1.00  0.00     0.155 A
HETATM   42  N9  UNL     1       0.103   3.599  69.701  1.00  0.00    -0.175 N
HETATM   43  C18 UNL     1      -0.401   4.353  68.704  1.00  0.00     0.679 A
ATOM     44  H9  UNL     1       1.081   3.693  69.978  1.00  0.00     0.186 HD
HETATM   45  N11 UNL     1      -1.661   4.288  68.290  1.00  0.00    -0.174 N
ATOM     46  H11 UNL     1      -1.985   4.886  67.529  1.00  0.00     0.186 HD
BRANCH  40  47
HETATM   47  N8  UNL     1      -0.286   1.979  71.270  1.00  0.00    -0.383 N
ATOM     48  H82 UNL     1      -0.561   2.136  72.240  1.00  0.00     0.157 HD
ATOM     49  H81 UNL     1       0.347   1.205  71.068  1.00  0.00     0.157 HD
ENDBRANCH  40  47
BRANCH  43  50
HETATM   50  N10 UNL     1       0.412   5.196  68.107  1.00  0.00    -0.234 N
ATOM     51 2H10 UNL     1       0.926   5.864  68.681  1.00  0.00     0.174 HD
ATOM     52 1H10 UNL     1       0.485   5.143  67.091  1.00  0.00     0.174 HD
ENDBRANCH  43  50
ENDBRANCH  34  35
ENDBRANCH  33  34
ENDBRANCH  32  33
ENDBRANCH  29  32
ENDBRANCH   1  29
TORSDOF 17
ENDMDL