MODEL 3
REMARK VINA RESULT: -6.629786696      2.430      5.202
REMARK  21 active torsions:
REMARK  status: ('A' for Active; 'I' for Inactive)
REMARK    1  A    between atoms: C2_2  and  N2_6
REMARK    2  A    between atoms: C3_8  and  O1_10
REMARK    3  A    between atoms: O1_10  and  C4_11
REMARK    4  A    between atoms: C4_11  and  N4_12
REMARK    5  A    between atoms: C4_11  and  C16_36
REMARK    6  A    between atoms: N4_12  and  C5_14
REMARK    7  A    between atoms: C5_14  and  C7_16
REMARK       I    between atoms: C7_16  and  N5_18
REMARK    8  A    between atoms: N5_18  and  C8_19
REMARK    9  A    between atoms: C8_19  and  C9_20
REMARK   10  A    between atoms: C8_19  and  C14_30
REMARK   11  A    between atoms: C9_20  and  N6_21
REMARK   12  A    between atoms: C14_30  and  O5_31
REMARK   13  A    between atoms: C14_30  and  C15_33
REMARK   14  A    between atoms: C15_33  and  O6_34
REMARK   15  A    between atoms: C16_36  and  N8_37
REMARK   16  A    between atoms: C16_36  and  C17_41
REMARK   17  A    between atoms: C17_41  and  O7_42
REMARK   18  A    between atoms: C17_41  and  C18_44
REMARK   19  A    between atoms: C18_44  and  C19_46
REMARK   20  A    between atoms: C19_46  and  O9_47
REMARK   21  A    between atoms: C19_46  and  O10_49
ROOT
HETATM    1  C4  UNL     1      -6.588   1.567  66.785  1.00  0.00     0.260 C
ENDROOT
BRANCH   1   2
HETATM    2  O1  UNL     1      -7.163   0.469  67.483  1.00  0.00    -0.296 OA
BRANCH   2   3
HETATM    3  C3  UNL     1      -6.844   0.038  68.723  1.00  0.00     0.234 C
HETATM    4  N2  UNL     1      -6.408  -1.167  68.883  1.00  0.00    -0.315 N
ATOM      5  H2  UNL     1      -6.295  -1.808  68.098  1.00  0.00     0.170 HD
HETATM    6  N3  UNL     1      -7.013   0.958  69.809  1.00  0.00    -0.056 NA
BRANCH   4   7
HETATM    7  C2  UNL     1      -6.095  -1.548  70.217  1.00  0.00     0.073 C
HETATM    8  C1  UNL     1      -4.698  -1.612  70.707  1.00  0.00     0.088 C
HETATM    9  N1  UNL     1      -7.034  -1.837  71.031  1.00  0.00    -0.389 N
ATOM     10  H12 UNL     1      -6.810  -2.110  71.987  1.00  0.00     0.157 HD
ATOM     11  H11 UNL     1      -7.995  -1.793  70.693  1.00  0.00     0.157 HD
ENDBRANCH   4   7
ENDBRANCH   2   3
ENDBRANCH   1   2
BRANCH   1  12
HETATM   12  N4  UNL     1      -6.989   2.766  67.413  1.00  0.00    -0.381 N
ATOM     13  H4  UNL     1      -7.942   2.891  67.756  1.00  0.00     0.156 HD
BRANCH  12  14
HETATM   14  C5  UNL     1      -6.003   3.800  67.550  1.00  0.00     0.182 C
HETATM   15  C6  UNL     1      -4.727   3.273  68.183  1.00  0.00     0.043 C
BRANCH  14  16
HETATM   16  C7  UNL     1      -6.568   4.810  68.528  1.00  0.00     0.313 C
HETATM   17  O2  UNL     1      -5.667   5.588  69.050  1.00  0.00    -0.255 OA
HETATM   18  N5  UNL     1      -7.819   4.951  68.878  1.00  0.00    -0.373 NA
BRANCH  18  19
HETATM   19  C8  UNL     1      -8.983   5.112  69.153  1.00  0.00     0.115 C
BRANCH  19  20
HETATM   20  C9  UNL     1      -9.520   5.707  70.396  1.00  0.00     0.204 C
BRANCH  20  21
HETATM   21  N6  UNL     1      -8.954   6.961  70.768  1.00  0.00    -0.303 N
HETATM   22  C10 UNL     1      -9.416   8.090  70.215  1.00  0.00     0.101 A
HETATM   23  C11 UNL     1      -8.864   9.331  70.567  1.00  0.00     0.092 A
HETATM   24  C12 UNL     1      -7.853   9.387  71.474  1.00  0.00     0.250 A
HETATM   25  O3  UNL     1      -7.367  10.502  71.782  1.00  0.00    -0.268 OA
HETATM   26  N7  UNL     1      -7.408   8.229  72.016  1.00  0.00    -0.275 N
HETATM   27  C13 UNL     1      -7.964   7.035  71.655  1.00  0.00     0.329 A
ATOM     28  H7  UNL     1      -6.651   8.248  72.699  1.00  0.00     0.173 HD
HETATM   29  O4  UNL     1      -7.496   6.020  72.201  1.00  0.00    -0.246 OA
ENDBRANCH  20  21
ENDBRANCH  19  20
BRANCH  19  30
HETATM   30  C14 UNL     1      -9.997   4.663  68.129  1.00  0.00     0.203 C
BRANCH  30  31
HETATM   31  O5  UNL     1     -11.095   5.511  68.057  1.00  0.00    -0.386 OA
ATOM     32  H5  UNL     1     -11.894   5.103  68.369  1.00  0.00     0.210 HD
ENDBRANCH  30  31
BRANCH  30  33
HETATM   33  C15 UNL     1     -10.470   3.281  68.445  1.00  0.00     0.203 C
BRANCH  33  34
HETATM   34  O6  UNL     1      -9.484   2.355  68.705  1.00  0.00    -0.398 OA
ATOM     35  H6  UNL     1      -9.785   1.484  68.936  1.00  0.00     0.209 HD
ENDBRANCH  33  34
ENDBRANCH  30  33
ENDBRANCH  19  30
ENDBRANCH  18  19
ENDBRANCH  14  16
ENDBRANCH  12  14
ENDBRANCH   1  12
BRANCH   1  36
HETATM   36  C16 UNL     1      -7.136   1.424  65.368  1.00  0.00     0.268 C
BRANCH  36  37
HETATM   37  N8  UNL     1      -6.401   2.335  64.477  1.00  0.00    -0.068 N
ATOM     38  H83 UNL     1      -6.597   3.316  64.677  1.00  0.00     0.275 HD
ATOM     39  H82 UNL     1      -5.401   2.346  64.673  1.00  0.00     0.275 HD
ATOM     40  H81 UNL     1      -6.605   2.087  63.509  1.00  0.00     0.275 HD
ENDBRANCH  36  37
BRANCH  36  41
HETATM   41  C17 UNL     1      -8.545   2.020  65.428  1.00  0.00     0.227 C
BRANCH  41  42
HETATM   42  O7  UNL     1      -9.478   1.099  65.890  1.00  0.00    -0.386 OA
ATOM     43  H7  UNL     1      -9.952   1.424  66.645  1.00  0.00     0.210 HD
ENDBRANCH  41  42
BRANCH  41  44
HETATM   44  C18 UNL     1      -8.952   2.615  64.127  1.00  0.00     0.211 C
HETATM   45  O8  UNL     1      -9.174   1.970  63.137  1.00  0.00    -0.290 OA
BRANCH  44  46
HETATM   46  C19 UNL     1      -9.095   4.104  64.029  1.00  0.00     0.328 C
BRANCH  46  47
HETATM   47  O9  UNL     1      -8.567   4.611  62.861  1.00  0.00    -0.365 OA
ATOM     48  H9  UNL     1      -8.965   5.436  62.609  1.00  0.00     0.213 HD
ENDBRANCH  46  47
BRANCH  46  49
HETATM   49  O10 UNL     1      -8.359   4.676  65.089  1.00  0.00    -0.365 OA
ATOM     50  H10 UNL     1      -8.864   5.404  65.431  1.00  0.00     0.213 HD
ENDBRANCH  46  49
ENDBRANCH  44  46
ENDBRANCH  41  44
ENDBRANCH  36  41
ENDBRANCH   1  36
TORSDOF 21
ENDMDL