MODEL 4
REMARK VINA RESULT: -6.422954886      2.752      3.894
REMARK  18 active torsions:
REMARK  status: ('A' for Active; 'I' for Inactive)
REMARK    1  A    between atoms: N1_1  and  C1_4
REMARK    2  A    between atoms: C2_10  and  C3_11
REMARK    3  A    between atoms: C3_11  and  C4_12
REMARK    4  A    between atoms: C3_11  and  N5_28
REMARK    5  A    between atoms: C4_12  and  C5_13
REMARK    6  A    between atoms: C5_13  and  N4_14
REMARK    7  A    between atoms: C5_13  and  C6_18
REMARK    8  A    between atoms: C6_18  and  O3_20
REMARK    9  A    between atoms: O3_20  and  C7_21
REMARK   10  A    between atoms: C7_21  and  C8_22
REMARK   11  A    between atoms: C8_22  and  O4_23
REMARK   12  A    between atoms: C8_22  and  C9_25
REMARK   13  A    between atoms: C9_25  and  O5_26
REMARK       I    between atoms: N5_28  and  C10_30
REMARK   14  A    between atoms: C10_30  and  C11_32
REMARK   15  A    between atoms: C11_32  and  C12_33
REMARK   16  A    between atoms: N6_35  and  C14_36
REMARK   17  A    between atoms: C14_36  and  C15_37
REMARK   18  A    between atoms: C18_43  and  N8_44
ROOT
HETATM    1  C3  UNL     1      -4.920   2.602  68.554  1.00  0.00     0.047 C
ENDROOT
BRANCH   1   2
HETATM    2  C2  UNL     1      -3.655   2.904  68.693  1.00  0.00     0.124 C
HETATM    3  C1  UNL     1      -2.628   2.603  69.654  1.00  0.00     0.152 C
HETATM    4  N2  UNL     1      -1.422   3.259  69.153  1.00  0.00    -0.224 N
HETATM    5  O1  UNL     1      -1.825   4.260  68.353  1.00  0.00    -0.155 OA
ATOM      6  H2  UNL     1      -0.458   3.006  69.370  1.00  0.00     0.198 HD
HETATM    7  N3  UNL     1      -2.899   3.721  67.718  1.00  0.00    -0.236 N
ATOM      8  H3  UNL     1      -3.143   3.856  66.736  1.00  0.00     0.197 HD
BRANCH   3   9
HETATM    9  N1  UNL     1      -2.667   1.937  70.732  1.00  0.00    -0.382 N
ATOM     10  H12 UNL     1      -1.955   1.774  71.444  1.00  0.00     0.157 HD
ATOM     11  H11 UNL     1      -3.490   1.425  71.048  1.00  0.00     0.157 HD
ENDBRANCH   3   9
ENDBRANCH   1   2
BRANCH   1  12
HETATM   12  C4  UNL     1      -5.613   3.471  67.420  1.00  0.00     0.103 C
BRANCH  12  13
HETATM   13  C5  UNL     1      -6.816   4.050  68.048  1.00  0.00     0.287 C
BRANCH  13  14
HETATM   14  N4  UNL     1      -6.770   5.389  68.508  1.00  0.00    -0.066 N
ATOM     15  H43 UNL     1      -6.882   6.015  67.711  1.00  0.00     0.275 HD
ATOM     16  H42 UNL     1      -7.619   5.586  69.036  1.00  0.00     0.275 HD
ATOM     17  H41 UNL     1      -5.964   5.693  69.055  1.00  0.00     0.275 HD
ENDBRANCH  13  14
BRANCH  13  18
HETATM   18  C6  UNL     1      -7.977   3.933  67.073  1.00  0.00     0.290 C
HETATM   19  O2  UNL     1      -8.776   4.873  66.999  1.00  0.00    -0.263 OA
BRANCH  18  20
HETATM   20  O3  UNL     1      -8.080   2.786  66.323  1.00  0.00    -0.317 OA
BRANCH  20  21
HETATM   21  C7  UNL     1      -9.250   2.026  66.287  1.00  0.00     0.212 C
BRANCH  21  22
HETATM   22  C8  UNL     1      -9.173   0.999  65.193  1.00  0.00     0.166 C
BRANCH  22  23
HETATM   23  O4  UNL     1      -9.153  -0.265  65.786  1.00  0.00    -0.391 OA
ATOM     24  H4  UNL     1      -8.928  -0.901  65.117  1.00  0.00     0.210 HD
ENDBRANCH  22  23
BRANCH  22  25
HETATM   25  C9  UNL     1      -7.848   1.194  64.461  1.00  0.00     0.198 C
BRANCH  25  26
HETATM   26  O5  UNL     1      -6.857   0.455  65.068  1.00  0.00    -0.398 OA
ATOM     27  H5  UNL     1      -6.005   0.824  64.868  1.00  0.00     0.209 HD
ENDBRANCH  25  26
ENDBRANCH  22  25
ENDBRANCH  21  22
ENDBRANCH  20  21
ENDBRANCH  18  20
ENDBRANCH  13  18
ENDBRANCH  12  13
ENDBRANCH   1  12
BRANCH   1  28
HETATM   28  N5  UNL     1      -5.837   1.732  69.093  1.00  0.00    -0.328 N
HETATM   29  C10 UNL     1      -6.597   0.637  68.786  1.00  0.00     0.227 C
HETATM   30  O6  UNL     1      -6.689   0.004  67.736  1.00  0.00    -0.273 OA
ATOM     31  H5  UNL     1      -6.013   1.995  70.063  1.00  0.00     0.168 HD
BRANCH  29  32
HETATM   32  C11 UNL     1      -7.508   0.068  69.919  1.00  0.00     0.162 C
BRANCH  32  33
HETATM   33  C12 UNL     1      -8.765  -0.377  69.314  1.00  0.00     0.049 A
HETATM   34  C13 UNL     1      -9.993   0.212  69.467  1.00  0.00     0.135 A
HETATM   35  N6  UNL     1     -10.872  -0.531  68.733  1.00  0.00    -0.279 N
HETATM   36  N10 UNL     1     -10.210  -1.529  68.158  1.00  0.00    -0.020 NA
HETATM   37  N11 UNL     1      -8.939  -1.433  68.510  1.00  0.00    -0.286 N
ATOM     38  H11 UNL     1      -8.200  -2.069  68.213  1.00  0.00     0.184 HD
BRANCH  35  39
HETATM   39  C14 UNL     1     -12.294  -0.232  68.631  1.00  0.00     0.203 C
BRANCH  39  40
HETATM   40  C15 UNL     1     -13.079  -1.480  68.407  1.00  0.00     0.051 A
HETATM   41  C16 UNL     1     -14.391  -1.404  67.940  1.00  0.00     0.102 A
HETATM   42  C17 UNL     1     -15.065  -2.573  67.751  1.00  0.00     0.261 A
HETATM   43  O7  UNL     1     -16.247  -2.528  67.332  1.00  0.00    -0.268 OA
HETATM   44  N7  UNL     1     -14.506  -3.769  68.002  1.00  0.00    -0.156 N
HETATM   45  C18 UNL     1     -13.242  -3.821  68.451  1.00  0.00     0.679 A
ATOM     46  H7  UNL     1     -15.036  -4.627  67.852  1.00  0.00     0.187 HD
HETATM   47  N9  UNL     1     -12.533  -2.687  68.653  1.00  0.00    -0.194 N
ATOM     48  H9  UNL     1     -11.574  -2.746  68.996  1.00  0.00     0.184 HD
BRANCH  45  49
HETATM   49  N8  UNL     1     -12.656  -4.958  68.709  1.00  0.00    -0.234 N
ATOM     50  H82 UNL     1     -12.321  -5.510  67.919  1.00  0.00     0.174 HD
ATOM     51  H81 UNL     1     -12.533  -5.290  69.665  1.00  0.00     0.174 HD
ENDBRANCH  45  49
ENDBRANCH  39  40
ENDBRANCH  35  39
ENDBRANCH  32  33
ENDBRANCH  29  32
ENDBRANCH   1  28
TORSDOF 18
ENDMDL