MODEL 1
REMARK VINA RESULT: -6.062465613      0.000      0.000
REMARK  19 active torsions:
REMARK  status: ('A' for Active; 'I' for Inactive)
REMARK    1  A    between atoms: O1_2  and  C2_3
REMARK    2  A    between atoms: C3_4  and  N1_5
REMARK    3  A    between atoms: C5_10  and  N2_11
REMARK    4  A    between atoms: C6_15  and  O2_16
REMARK    5  A    between atoms: O2_16  and  C7_17
REMARK    6  A    between atoms: C8_19  and  C9_20
REMARK    7  A    between atoms: C9_20  and  N3_21
REMARK       I    between atoms: N3_21  and  C10_22
REMARK    8  A    between atoms: C10_22  and  C11_24
REMARK    9  A    between atoms: C11_24  and  C12_25
REMARK   10  A    between atoms: C12_25  and  C13_26
REMARK   11  A    between atoms: C13_26  and  C14_27
REMARK   12  A    between atoms: C14_27  and  C15_28
REMARK   13  A    between atoms: C15_28  and  N4_29
REMARK   14  A    between atoms: C16_33  and  N5_34
REMARK   15  A    between atoms: C18_39  and  N6_40
REMARK   16  A    between atoms: C19_44  and  O5_45
REMARK   17  A    between atoms: C20_47  and  N7_48
REMARK   18  A    between atoms: C21_52  and  O6_53
REMARK   19  A    between atoms: O6_53  and  N8_54
ROOT
HETATM    1  C7  UNL     1      -9.193   1.754  66.806  1.00  0.00     0.292 C
HETATM    2  O3  UNL     1      -9.129   3.113  66.637  1.00  0.00    -0.345 OA
HETATM    3  C8  UNL     1      -9.963   3.669  65.671  1.00  0.00     0.207 C
HETATM    4  C16 UNL     1      -9.161   3.850  64.442  1.00  0.00     0.220 C
HETATM    5  C17 UNL     1      -8.941   2.584  63.635  1.00  0.00     0.071 C
HETATM    6  C18 UNL     1      -8.577   1.382  64.421  1.00  0.00     0.219 C
HETATM    7  C19 UNL     1      -9.526   1.034  65.528  1.00  0.00     0.203 C
ENDROOT
BRANCH   1   8
HETATM    8  O2  UNL     1      -7.914   1.398  67.292  1.00  0.00    -0.349 OA
BRANCH   8   9
HETATM    9  C6  UNL     1      -7.880   1.300  68.694  1.00  0.00     0.188 C
HETATM   10  C5  UNL     1      -9.030   0.460  69.122  1.00  0.00     0.216 C
HETATM   11  C4  UNL     1      -9.358   0.561  70.575  1.00  0.00     0.071 C
HETATM   12  C3  UNL     1      -8.332  -0.024  71.497  1.00  0.00     0.217 C
HETATM   13  C2  UNL     1      -7.115   0.842  71.487  1.00  0.00     0.184 C
HETATM   14  C21 UNL     1      -6.130   0.602  70.409  1.00  0.00     0.215 C
HETATM   15  C20 UNL     1      -6.523   0.719  69.012  1.00  0.00     0.248 C
BRANCH  10  16
HETATM   16  N2  UNL     1      -8.842  -0.918  68.691  1.00  0.00    -0.072 N
ATOM     17  H23 UNL     1      -9.629  -1.503  68.974  1.00  0.00     0.274 HD
ATOM     18  H22 UNL     1      -8.932  -1.003  67.679  1.00  0.00     0.274 HD
ATOM     19  H21 UNL     1      -7.957  -1.308  69.017  1.00  0.00     0.274 HD
ENDBRANCH  10  16
BRANCH  12  20
HETATM   20  N1  UNL     1      -8.123  -1.394  71.167  1.00  0.00    -0.072 N
ATOM     21  H13 UNL     1      -8.356  -1.554  70.187  1.00  0.00     0.274 HD
ATOM     22  H12 UNL     1      -7.123  -1.598  71.152  1.00  0.00     0.274 HD
ATOM     23  H11 UNL     1      -8.606  -2.073  71.754  1.00  0.00     0.274 HD
ENDBRANCH  12  20
BRANCH  13  24
HETATM   24  O1  UNL     1      -6.481   0.801  72.756  1.00  0.00    -0.386 OA
HETATM   25  C1  UNL     1      -6.933   1.735  73.637  1.00  0.00     0.202 C
ENDBRANCH  13  24
BRANCH  14  26
HETATM   26  O6  UNL     1      -5.080   1.531  70.650  1.00  0.00    -0.277 OA
BRANCH  26  27
HETATM   27  N8  UNL     1      -3.943   0.951  71.017  1.00  0.00    -0.311 N
ATOM     28  H82 UNL     1      -3.909   0.015  71.419  1.00  0.00     0.184 HD
ATOM     29  H81 UNL     1      -3.122   1.536  70.856  1.00  0.00     0.184 HD
ENDBRANCH  26  27
ENDBRANCH  14  26
BRANCH  15  30
HETATM   30  N7  UNL     1      -6.319  -0.577  68.341  1.00  0.00    -0.070 N
ATOM     31  H73 UNL     1      -6.706  -0.573  67.397  1.00  0.00     0.274 HD
ATOM     32  H72 UNL     1      -5.337  -0.727  68.110  1.00  0.00     0.274 HD
ATOM     33  H71 UNL     1      -6.694  -1.347  68.894  1.00  0.00     0.274 HD
ENDBRANCH  15  30
ENDBRANCH   8   9
ENDBRANCH   1   8
BRANCH   7  34
HETATM   34  O5  UNL     1      -9.481  -0.368  65.681  1.00  0.00    -0.389 OA
ATOM     35  H5  UNL     1      -9.643  -0.822  64.862  1.00  0.00     0.210 HD
ENDBRANCH   7  34
BRANCH   3  36
HETATM   36  C9  UNL     1     -10.351   5.047  66.250  1.00  0.00     0.193 C
BRANCH  36  37
HETATM   37  N3  UNL     1      -9.449   5.700  67.031  1.00  0.00    -0.385 NA
HETATM   38  C10 UNL     1      -8.539   6.359  67.819  1.00  0.00     0.290 C
HETATM   39  O4  UNL     1      -8.390   7.602  67.929  1.00  0.00    -0.257 OA
BRANCH  38  40
HETATM   40  C11 UNL     1      -7.570   5.566  68.678  1.00  0.00     0.119 C
BRANCH  40  41
HETATM   41  C12 UNL     1      -6.486   4.925  67.879  1.00  0.00     0.010 C
BRANCH  41  42
HETATM   42  C13 UNL     1      -5.392   4.290  68.675  1.00  0.00     0.002 C
BRANCH  42  43
HETATM   43  C14 UNL     1      -4.412   3.547  67.760  1.00  0.00     0.027 C
BRANCH  43  44
HETATM   44  C15 UNL     1      -3.063   3.411  68.474  1.00  0.00     0.229 C
BRANCH  44  45
HETATM   45  N4  UNL     1      -1.980   3.764  67.594  1.00  0.00    -0.079 N
ATOM     46  H43 UNL     1      -2.010   4.751  67.337  1.00  0.00     0.274 HD
ATOM     47  H42 UNL     1      -1.082   3.758  68.079  1.00  0.00     0.274 HD
ATOM     48  H41 UNL     1      -1.968   3.160  66.771  1.00  0.00     0.274 HD
ENDBRANCH  44  45
ENDBRANCH  43  44
ENDBRANCH  42  43
ENDBRANCH  41  42
ENDBRANCH  40  41
ENDBRANCH  38  40
ENDBRANCH  36  37
ENDBRANCH   3  36
BRANCH   6  49
HETATM   49  N6  UNL     1      -7.228   1.392  64.926  1.00  0.00    -0.072 N
ATOM     50  H63 UNL     1      -6.624   1.944  64.318  1.00  0.00     0.274 HD
ATOM     51  H62 UNL     1      -7.171   1.949  65.779  1.00  0.00     0.274 HD
ATOM     52  H61 UNL     1      -6.831   0.466  65.077  1.00  0.00     0.274 HD
ENDBRANCH   6  49
BRANCH   4  53
HETATM   53  N5  UNL     1      -7.920   4.509  64.741  1.00  0.00    -0.072 N
ATOM     54  H53 UNL     1      -7.771   5.326  64.147  1.00  0.00     0.274 HD
ATOM     55  H52 UNL     1      -7.951   4.982  65.645  1.00  0.00     0.274 HD
ATOM     56  H51 UNL     1      -7.143   3.852  64.684  1.00  0.00     0.274 HD
ENDBRANCH   4  53
TORSDOF 19
ENDMDL