MODEL 4
REMARK VINA RESULT: -6.021056820      2.458      2.860
REMARK  16 active torsions:
REMARK  status: ('A' for Active; 'I' for Inactive)
REMARK    1  A    between atoms: N1_1  and  C1_4
REMARK    2  A    between atoms: C3_8  and  N3_9
REMARK    3  A    between atoms: C6_16  and  C7_17
REMARK       I    between atoms: C7_17  and  N6_19
REMARK    4  A    between atoms: N6_19  and  C8_21
REMARK    5  A    between atoms: C8_21  and  C9_22
REMARK    6  A    between atoms: C8_21  and  C12_29
REMARK    7  A    between atoms: C9_22  and  C10_23
REMARK    8  A    between atoms: C10_23  and  C11_24
REMARK    9  A    between atoms: C11_24  and  N7_25
REMARK       I    between atoms: C12_29  and  N8_31
REMARK   10  A    between atoms: N8_31  and  C13_33
REMARK   11  A    between atoms: C13_33  and  C14_34
REMARK   12  A    between atoms: C13_33  and  C15_37
REMARK   13  A    between atoms: C14_34  and  O3_35
REMARK   14  A    between atoms: C15_37  and  O4_38
REMARK   15  A    between atoms: O4_38  and  S1_39
REMARK   16  A    between atoms: N9_43  and  N10_45
ROOT
HETATM    1  C7  UNL     1      -7.668   0.080  68.665  1.00  0.00     0.270 C
HETATM    2  O1  UNL     1      -8.281  -1.020  68.493  1.00  0.00    -0.269 OA
HETATM    3  N6  UNL     1      -7.783   1.038  67.620  1.00  0.00    -0.344 N
ATOM      4  H6  UNL     1      -7.312   1.938  67.710  1.00  0.00     0.163 HD
ENDROOT
BRANCH   1   5
HETATM    5  C6  UNL     1      -6.876   0.344  69.896  1.00  0.00     0.395 C
HETATM    6  N3  UNL     1      -6.442   1.703  69.907  1.00  0.00    -0.251 N
HETATM    7  N4  UNL     1      -7.316   2.633  70.547  1.00  0.00    -0.134 NA
HETATM    8  C4  UNL     1      -7.251   2.319  71.962  1.00  0.00     0.162 C
HETATM    9  C5  UNL     1      -7.403   0.840  72.214  1.00  0.00     0.253 C
HETATM   10  N5  UNL     1      -7.758   0.112  71.019  1.00  0.00    -0.043 N
ATOM     11  H52 UNL     1      -7.827  -0.886  71.217  1.00  0.00     0.280 HD
ATOM     12  H51 UNL     1      -8.724   0.305  70.757  1.00  0.00     0.280 HD
BRANCH   6  13
HETATM   13  C3  UNL     1      -5.262   2.242  69.363  1.00  0.00     0.112 A
HETATM   14  C2  UNL     1      -5.267   3.044  68.227  1.00  0.00     0.141 A
HETATM   15  N2  UNL     1      -4.126   3.551  67.728  1.00  0.00    -0.200 N
HETATM   16  C1  UNL     1      -2.938   3.301  68.308  1.00  0.00     0.677 A
ATOM     17  H2  UNL     1      -4.162   4.137  66.895  1.00  0.00     0.183 HD
HETATM   18  N11 UNL     1      -2.887   2.530  69.406  1.00  0.00    -0.173 N
HETATM   19  C16 UNL     1      -4.035   2.006  69.931  1.00  0.00     0.164 A
ATOM     20  H11 UNL     1      -1.990   2.337  69.850  1.00  0.00     0.186 HD
HETATM   21  N9  UNL     1      -3.982   1.266  70.987  1.00  0.00    -0.290 N
ATOM     22  H9  UNL     1      -4.838   0.873  71.379  1.00  0.00     0.188 HD
BRANCH  16  23
HETATM   23  N1  UNL     1      -1.831   3.788  67.828  1.00  0.00    -0.234 N
ATOM     24  H12 UNL     1      -1.540   4.724  68.111  1.00  0.00     0.174 HD
ATOM     25  H11 UNL     1      -1.251   3.256  67.179  1.00  0.00     0.174 HD
ENDBRANCH  16  23
BRANCH  21  26
HETATM   26  N10 UNL     1      -2.757   1.006  71.588  1.00  0.00    -0.344 N
ATOM     27 2H10 UNL     1      -2.012   1.700  71.517  1.00  0.00     0.176 HD
ATOM     28 1H10 UNL     1      -2.614   0.130  72.092  1.00  0.00     0.176 HD
ENDBRANCH  21  26
ENDBRANCH   6  13
ENDBRANCH   1   5
BRANCH   3  29
HETATM   29  C8  UNL     1      -8.568   0.755  66.414  1.00  0.00     0.176 C
BRANCH  29  30
HETATM   30  C9  UNL     1      -7.587   0.814  65.283  1.00  0.00     0.036 C
BRANCH  30  31
HETATM   31  C10 UNL     1      -6.464   1.772  65.417  1.00  0.00     0.030 C
BRANCH  31  32
HETATM   32  C11 UNL     1      -6.713   2.880  64.369  1.00  0.00     0.230 C
BRANCH  32  33
HETATM   33  N7  UNL     1      -6.416   4.169  64.917  1.00  0.00    -0.079 N
ATOM     34  H73 UNL     1      -7.204   4.810  64.824  1.00  0.00     0.274 HD
ATOM     35  H72 UNL     1      -6.360   4.144  65.934  1.00  0.00     0.274 HD
ATOM     36  H71 UNL     1      -5.566   4.550  64.500  1.00  0.00     0.274 HD
ENDBRANCH  32  33
ENDBRANCH  31  32
ENDBRANCH  30  31
ENDBRANCH  29  30
BRANCH  29  37
HETATM   37  C12 UNL     1      -9.712   1.660  66.293  1.00  0.00     0.240 C
HETATM   38  O2  UNL     1     -10.860   1.186  65.968  1.00  0.00    -0.271 OA
HETATM   39  N8  UNL     1      -9.684   3.060  66.500  1.00  0.00    -0.351 N
ATOM     40  H8  UNL     1      -8.792   3.486  66.752  1.00  0.00     0.163 HD
BRANCH  39  41
HETATM   41  C13 UNL     1     -10.828   3.919  66.378  1.00  0.00     0.133 C
BRANCH  41  42
HETATM   42  C14 UNL     1     -10.863   4.663  65.053  1.00  0.00     0.191 C
BRANCH  42  43
HETATM   43  O3  UNL     1      -9.538   4.748  64.612  1.00  0.00    -0.399 OA
ATOM     44  H3  UNL     1      -9.552   5.270  63.819  1.00  0.00     0.209 HD
ENDBRANCH  42  43
ENDBRANCH  41  42
BRANCH  41  45
HETATM   45  C15 UNL     1     -10.879   4.964  67.475  1.00  0.00     0.218 C
BRANCH  45  46
HETATM   46  O4  UNL     1     -10.295   6.139  66.985  1.00  0.00    -0.260 OA
BRANCH  46  47
HETATM   47  S1  UNL     1      -8.793   6.368  67.715  1.00  0.00     0.401 S
HETATM   48  O5  UNL     1      -8.359   7.791  67.623  1.00  0.00    -0.179 OA
HETATM   49  O6  UNL     1      -7.751   5.501  67.097  1.00  0.00    -0.179 OA
ENDBRANCH  46  47
ENDBRANCH  45  46
ENDBRANCH  41  45
ENDBRANCH  39  41
ENDBRANCH  29  37
ENDBRANCH   3  29
TORSDOF 16
ENDMDL