MODEL 2
REMARK VINA RESULT: -7.515463515      6.352      9.357
REMARK  11 active torsions:
REMARK  status: ('A' for Active; 'I' for Inactive)
REMARK    1  A    between atoms: C2_4  and  C3_5
REMARK    2  A    between atoms: N2_11  and  C9_12
REMARK    3  A    between atoms: C12_15  and  N3_16
REMARK    4  A    between atoms: N3_16  and  C13_18
REMARK    5  A    between atoms: C13_18  and  C14_19
REMARK    6  A    between atoms: C14_19  and  C15_20
REMARK    7  A    between atoms: C15_20  and  C16_21
REMARK    8  A    between atoms: C16_21  and  C17_22
REMARK    9  A    between atoms: C17_22  and  C18_23
REMARK   10  A    between atoms: C18_23  and  C19_24
REMARK   11  A    between atoms: C19_24  and  C20_25
ROOT
HETATM    1  C9  UNL     1     190.782 121.587  31.895  1.00  0.00     0.116 C
HETATM    2  C10 UNL     1     190.305 120.330  31.281  1.00  0.00     0.031 C
HETATM    3  C11 UNL     1     188.864 120.210  30.955  1.00  0.00     0.056 C
HETATM    4  C12 UNL     1     188.040 121.440  31.023  1.00  0.00     0.280 C
HETATM    5  N5  UNL     1     188.888 122.588  30.717  1.00  0.00    -0.053 N
ATOM      6  H51 UNL     1     188.368 123.439  30.503  1.00  0.00     0.279 HD
ATOM      7  H52 UNL     1     189.372 122.516  29.822  1.00  0.00     0.279 HD
HETATM    8  C23 UNL     1     189.777 122.715  31.856  1.00  0.00     0.260 C
ENDROOT
BRANCH   4   9
HETATM    9  N3  UNL     1     187.420 121.706  32.281  1.00  0.00    -0.396 N
ATOM     10  H3  UNL     1     187.699 122.490  32.870  1.00  0.00     0.155 HD
BRANCH   9  11
HETATM   11  C13 UNL     1     186.371 120.791  32.663  1.00  0.00     0.115 C
BRANCH  11  12
HETATM   12  C14 UNL     1     185.295 120.711  31.626  1.00  0.00     0.019 C
BRANCH  12  13
HETATM   13  C15 UNL     1     184.004 121.438  32.033  1.00  0.00     0.005 C
BRANCH  13  14
HETATM   14  C16 UNL     1     184.078 122.887  31.769  1.00  0.00     0.027 C
BRANCH  14  15
HETATM   15  C17 UNL     1     183.950 123.773  32.932  1.00  0.00    -0.031 C
BRANCH  15  16
HETATM   16  C18 UNL     1     183.649 125.197  32.825  1.00  0.00    -0.029 C
BRANCH  16  17
HETATM   17  C19 UNL     1     183.319 125.848  31.553  1.00  0.00     0.059 C
BRANCH  17  18
HETATM   18  C20 UNL     1     183.968 127.185  31.302  1.00  0.00     0.190 C
HETATM   19  C21 UNL     1     182.886 128.159  30.824  1.00  0.00     0.060 C
HETATM   20  C22 UNL     1     183.370 127.786  29.455  1.00  0.00     0.235 C
HETATM   21  N4  UNL     1     184.609 127.335  30.008  1.00  0.00    -0.070 N
ATOM     22  H42 UNL     1     185.449 127.906  29.915  1.00  0.00     0.277 HD
ATOM     23  H41 UNL     1     185.100 126.547  29.586  1.00  0.00     0.277 HD
ENDBRANCH  17  18
ENDBRANCH  16  17
ENDBRANCH  15  16
ENDBRANCH  14  15
ENDBRANCH  13  14
ENDBRANCH  12  13
ENDBRANCH  11  12
ENDBRANCH   9  11
ENDBRANCH   4   9
BRANCH   1  24
HETATM   24  N2  UNL     1     192.005 122.097  31.274  1.00  0.00    -0.345 N
HETATM   25  C1  UNL     1     192.902 121.408  30.542  1.00  0.00     0.183 A
HETATM   26  N1  UNL     1     193.889 122.239  30.139  1.00  0.00    -0.354 N
HETATM   27  C2  UNL     1     193.617 123.458  30.618  1.00  0.00     0.030 A
ATOM     28  H1  UNL     1     194.698 121.982  29.571  1.00  0.00     0.166 HD
HETATM   29  C8  UNL     1     192.438 123.347  31.322  1.00  0.00     0.117 A
BRANCH  27  30
HETATM   30  C3  UNL     1     194.403 124.694  30.426  1.00  0.00     0.037 C
HETATM   31  C4  UNL     1     194.524 125.011  28.921  1.00  0.00     0.011 C
HETATM   32  C5  UNL     1     195.497 126.195  29.020  1.00  0.00     0.001 C
HETATM   33  C6  UNL     1     196.476 125.767  30.116  1.00  0.00     0.001 C
HETATM   34  C7  UNL     1     195.835 124.590  30.822  1.00  0.00     0.011 C
ENDBRANCH  27  30
ENDBRANCH   1  24
TORSDOF 11
ENDMDL