MODEL 2
REMARK VINA RESULT: -6.615274023      2.776      5.175
REMARK  11 active torsions:
REMARK  status: ('A' for Active; 'I' for Inactive)
REMARK    1  A    between atoms: C5_6  and  N2_7
REMARK    2  A    between atoms: N2_7  and  C6_9
REMARK    3  A    between atoms: C6_9  and  C7_10
REMARK    4  A    between atoms: C7_10  and  C8_11
REMARK    5  A    between atoms: C8_11  and  N3_12
REMARK    6  A    between atoms: N3_12  and  C9_14
REMARK    7  A    between atoms: C13_18  and  C14_19
REMARK    8  A    between atoms: C14_19  and  N4_20
REMARK    9  A    between atoms: N4_20  and  C15_23
REMARK   10  A    between atoms: C15_23  and  C16_24
REMARK   11  A    between atoms: C16_24  and  C17_25
ROOT
HETATM    1  N1  UNL     1     184.556 125.232  25.189  1.00  0.00    -0.191 NA
HETATM    2  C1  UNL     1     184.422 125.874  26.142  1.00  0.00     0.099 C
HETATM    3  C2  UNL     1     184.278 126.669  27.350  1.00  0.00     0.044 A
HETATM    4  C3  UNL     1     185.404 127.148  27.985  1.00  0.00     0.025 A
HETATM    5  C4  UNL     1     185.319 127.926  29.152  1.00  0.00     0.030 A
HETATM    6  C5  UNL     1     184.089 128.237  29.701  1.00  0.00     0.028 A
HETATM    7  C24 UNL     1     182.964 127.751  29.051  1.00  0.00     0.030 A
HETATM    8  C25 UNL     1     183.053 126.977  27.891  1.00  0.00     0.025 A
ENDROOT
BRANCH   6   9
HETATM    9  N2  UNL     1     184.016 129.030  30.891  1.00  0.00    -0.390 N
ATOM     10  H2  UNL     1     183.126 129.397  31.226  1.00  0.00     0.159 HD
BRANCH   9  11
HETATM   11  C6  UNL     1     185.247 129.292  31.601  1.00  0.00     0.121 C
BRANCH  11  12
HETATM   12  C7  UNL     1     185.349 128.234  32.698  1.00  0.00     0.039 C
BRANCH  12  13
HETATM   13  C8  UNL     1     186.730 127.669  32.702  1.00  0.00     0.121 C
BRANCH  13  14
HETATM   14  N3  UNL     1     186.909 126.348  33.209  1.00  0.00    -0.390 N
ATOM     15  H3  UNL     1     186.792 126.140  34.200  1.00  0.00     0.159 HD
BRANCH  14  16
HETATM   16  C9  UNL     1     187.258 125.326  32.271  1.00  0.00     0.028 A
HETATM   17  C10 UNL     1     187.359 125.645  30.911  1.00  0.00     0.029 A
HETATM   18  C11 UNL     1     187.632 124.673  29.971  1.00  0.00     0.003 A
HETATM   19  C12 UNL     1     187.809 123.363  30.381  1.00  0.00     0.009 A
HETATM   20  C13 UNL     1     187.713 123.032  31.719  1.00  0.00    -0.031 A
HETATM   21  C23 UNL     1     187.445 123.997  32.659  1.00  0.00     0.038 A
BRANCH  20  22
HETATM   22  C14 UNL     1     187.777 121.614  32.119  1.00  0.00     0.270 C
BRANCH  22  23
HETATM   23  N4  UNL     1     186.552 121.172  32.744  1.00  0.00    -0.071 N
ATOM     24  H42 UNL     1     186.725 120.467  33.459  1.00  0.00     0.277 HD
ATOM     25  H41 UNL     1     186.147 121.897  33.337  1.00  0.00     0.277 HD
BRANCH  23  26
HETATM   26  C15 UNL     1     185.639 120.721  31.779  1.00  0.00     0.237 C
BRANCH  26  27
HETATM   27  C16 UNL     1     184.226 121.126  31.930  1.00  0.00     0.066 C
BRANCH  27  28
HETATM   28  C17 UNL     1     184.010 122.560  31.923  1.00  0.00    -0.057 A
HETATM   29  C18 UNL     1     184.038 123.181  30.653  1.00  0.00     0.007 A
HETATM   30  C19 UNL     1     183.880 124.501  30.510  1.00  0.00     0.001 A
HETATM   31  C20 UNL     1     183.684 125.265  31.645  1.00  0.00     0.000 A
HETATM   32  C21 UNL     1     183.647 124.682  32.898  1.00  0.00     0.001 A
HETATM   33  C22 UNL     1     183.812 123.322  33.032  1.00  0.00     0.007 A
ENDBRANCH  27  28
ENDBRANCH  26  27
ENDBRANCH  23  26
ENDBRANCH  22  23
ENDBRANCH  20  22
ENDBRANCH  14  16
ENDBRANCH  13  14
ENDBRANCH  12  13
ENDBRANCH  11  12
ENDBRANCH   9  11
ENDBRANCH   6   9
TORSDOF 11
ENDMDL