MODEL 3
REMARK VINA RESULT: -7.677281771      3.503      6.818
REMARK  11 active torsions:
REMARK  status: ('A' for Active; 'I' for Inactive)
REMARK    1  A    between atoms: C5_5  and  C6_6
REMARK    2  A    between atoms: C6_6  and  N1_7
REMARK    3  A    between atoms: N1_7  and  C7_9
REMARK    4  A    between atoms: C12_14  and  C13_15
REMARK    5  A    between atoms: C13_15  and  N2_16
REMARK    6  A    between atoms: N2_16  and  C14_19
REMARK    7  A    between atoms: C14_19  and  C15_20
REMARK    8  A    between atoms: C15_20  and  C16_21
REMARK    9  A    between atoms: C16_21  and  N3_22
REMARK   10  A    between atoms: N3_22  and  C17_24
REMARK   11  A    between atoms: C17_24  and  C18_25
ROOT
HETATM    1  C13 UNL     1     185.415 123.875  30.703  1.00  0.00     0.273 C
ENDROOT
BRANCH   1   2
HETATM    2  C12 UNL     1     184.509 122.729  30.518  1.00  0.00    -0.006 A
HETATM    3  C7  UNL     1     184.748 121.603  31.337  1.00  0.00     0.036 A
HETATM    4  C8  UNL     1     184.031 120.469  31.100  1.00  0.00     0.030 A
HETATM    5  C9  UNL     1     183.066 120.356  30.092  1.00  0.00     0.002 A
HETATM    6  C10 UNL     1     182.835 121.448  29.302  1.00  0.00     0.001 A
HETATM    7  C11 UNL     1     183.569 122.597  29.549  1.00  0.00     0.011 A
BRANCH   3   8
HETATM    8  N1  UNL     1     185.639 121.664  32.423  1.00  0.00    -0.385 N
ATOM      9  H1  UNL     1     185.566 122.505  32.995  1.00  0.00     0.160 HD
BRANCH   8  10
HETATM   10  C6  UNL     1     186.631 120.728  32.847  1.00  0.00     0.158 C
BRANCH  10  11
HETATM   11  C5  UNL     1     187.992 120.899  32.317  1.00  0.00    -0.041 A
HETATM   12  C4  UNL     1     188.918 121.686  33.009  1.00  0.00     0.009 A
HETATM   13  C3  UNL     1     190.207 121.883  32.586  1.00  0.00     0.007 A
HETATM   14  C2  UNL     1     190.650 121.293  31.432  1.00  0.00    -0.062 A
HETATM   15  C1  UNL     1     192.060 121.513  30.987  1.00  0.00     0.048 C
HETATM   16  C24 UNL     1     189.760 120.497  30.708  1.00  0.00     0.007 A
HETATM   17  C23 UNL     1     188.464 120.314  31.155  1.00  0.00     0.009 A
ENDBRANCH  10  11
ENDBRANCH   8  10
ENDBRANCH   3   8
ENDBRANCH   1   2
BRANCH   1  18
HETATM   18  N2  UNL     1     184.972 125.137  30.151  1.00  0.00    -0.071 N
ATOM     19  H22 UNL     1     185.706 125.612  29.625  1.00  0.00     0.277 HD
ATOM     20  H21 UNL     1     184.307 125.015  29.387  1.00  0.00     0.277 HD
BRANCH  18  21
HETATM   21  C14 UNL     1     184.432 125.968  31.239  1.00  0.00     0.234 C
BRANCH  21  22
HETATM   22  C15 UNL     1     183.157 126.610  31.045  1.00  0.00     0.046 C
BRANCH  22  23
HETATM   23  C16 UNL     1     183.112 128.041  30.611  1.00  0.00     0.115 C
BRANCH  23  24
HETATM   24  N3  UNL     1     183.015 128.203  29.202  1.00  0.00    -0.417 N
ATOM     25  H3  UNL     1     182.149 128.038  28.690  1.00  0.00     0.153 HD
BRANCH  24  26
HETATM   26  C17 UNL     1     184.232 128.617  28.553  1.00  0.00     0.154 C
BRANCH  26  27
HETATM   27  C18 UNL     1     183.976 128.692  27.097  1.00  0.00    -0.025 A
HETATM   28  C19 UNL     1     183.126 127.745  26.518  1.00  0.00     0.011 A
HETATM   29  C20 UNL     1     182.767 127.796  25.202  1.00  0.00     0.018 A
HETATM   30  C21 UNL     1     183.274 128.830  24.417  1.00  0.00     0.087 A
HETATM   31  N4  UNL     1     184.093 129.733  24.978  1.00  0.00    -0.375 N
HETATM   32  C22 UNL     1     184.444 129.672  26.295  1.00  0.00     0.096 A
ATOM     33  H4  UNL     1     184.464 130.489  24.402  1.00  0.00     0.164 HD
ENDBRANCH  26  27
ENDBRANCH  24  26
ENDBRANCH  23  24
ENDBRANCH  22  23
ENDBRANCH  21  22
ENDBRANCH  18  21
ENDBRANCH   1  18
TORSDOF 11
ENDMDL