MODEL 4
REMARK VINA RESULT: -8.096412854      2.483      5.376
REMARK  11 active torsions:
REMARK  status: ('A' for Active; 'I' for Inactive)
REMARK    1  A    between atoms: C5_5  and  C6_6
REMARK    2  A    between atoms: C6_6  and  N1_7
REMARK    3  A    between atoms: N1_7  and  C7_10
REMARK    4  A    between atoms: C7_10  and  C8_11
REMARK    5  A    between atoms: C8_11  and  C9_12
REMARK    6  A    between atoms: C9_12  and  C10_13
REMARK    7  A    between atoms: C10_13  and  C11_14
REMARK    8  A    between atoms: C11_14  and  C12_15
REMARK    9  A    between atoms: C12_15  and  N2_16
REMARK   10  A    between atoms: N2_16  and  C13_18
REMARK   11  A    between atoms: C13_18  and  C14_19
ROOT
HETATM    1  C8  UNL     1     191.202 124.380  29.952  1.00  0.00     0.027 C
ENDROOT
BRANCH   1   2
HETATM    2  C7  UNL     1     192.373 124.519  30.929  1.00  0.00     0.232 C
BRANCH   2   3
HETATM    3  N1  UNL     1     191.795 124.396  32.248  1.00  0.00    -0.071 N
ATOM      4  H12 UNL     1     190.842 124.758  32.254  1.00  0.00     0.277 HD
ATOM      5  H11 UNL     1     192.235 125.054  32.892  1.00  0.00     0.277 HD
BRANCH   3   6
HETATM    6  C6  UNL     1     191.830 123.068  32.788  1.00  0.00     0.273 C
BRANCH   6   7
HETATM    7  C5  UNL     1     190.446 122.723  33.231  1.00  0.00    -0.005 A
HETATM    8  C4  UNL     1     189.628 121.845  32.553  1.00  0.00    -0.000 A
HETATM    9  C3  UNL     1     189.725 121.071  31.418  1.00  0.00     0.014 A
HETATM   10  C22 UNL     1     188.439 121.804  33.282  1.00  0.00     0.043 A
HETATM   11  C2  UNL     1     188.682 120.267  30.997  1.00  0.00     0.001 A
HETATM   12  C1  UNL     1     187.508 120.226  31.719  1.00  0.00     0.002 A
HETATM   13  C23 UNL     1     187.404 121.003  32.859  1.00  0.00     0.030 A
HETATM   14  N3  UNL     1     188.564 122.629  34.344  1.00  0.00    -0.365 N
HETATM   15  C21 UNL     1     189.774 123.204  34.342  1.00  0.00     0.098 A
ATOM     16  H3  UNL     1     187.842 122.791  35.047  1.00  0.00     0.165 HD
ENDBRANCH   6   7
ENDBRANCH   3   6
ENDBRANCH   2   3
ENDBRANCH   1   2
BRANCH   1  17
HETATM   17  C9  UNL     1     190.004 125.186  30.412  1.00  0.00     0.002 C
BRANCH  17  18
HETATM   18  C10 UNL     1     188.723 124.419  30.220  1.00  0.00     0.002 C
BRANCH  18  19
HETATM   19  C11 UNL     1     187.678 124.861  31.230  1.00  0.00     0.020 C
BRANCH  19  20
HETATM   20  C12 UNL     1     186.932 126.116  30.727  1.00  0.00     0.119 C
BRANCH  20  21
HETATM   21  N2  UNL     1     185.921 125.681  29.869  1.00  0.00    -0.400 N
ATOM     22  H2  UNL     1     186.191 125.268  28.977  1.00  0.00     0.158 HD
BRANCH  21  23
HETATM   23  C13 UNL     1     184.571 125.780  30.165  1.00  0.00     0.087 C
BRANCH  23  24
HETATM   24  C14 UNL     1     183.808 124.612  30.674  1.00  0.00     0.169 C
HETATM   25  C15 UNL     1     184.072 124.308  32.117  1.00  0.00     0.043 C
HETATM   26  C16 UNL     1     184.213 122.875  32.478  1.00  0.00     0.046 C
HETATM   27  C17 UNL     1     183.782 121.902  31.476  1.00  0.00     0.002 A
HETATM   28  C18 UNL     1     183.316 120.609  31.528  1.00  0.00     0.036 A
HETATM   29  C20 UNL     1     183.806 122.231  30.135  1.00  0.00     0.192 A
HETATM   30  C19 UNL     1     183.086 120.228  30.223  1.00  0.00     0.145 A
HETATM   31  O1  UNL     1     183.390 121.227  29.405  1.00  0.00    -0.300 OA
HETATM   32  O2  UNL     1     184.247 123.504  29.846  1.00  0.00    -0.319 OA
ENDBRANCH  23  24
ENDBRANCH  21  23
ENDBRANCH  20  21
ENDBRANCH  19  20
ENDBRANCH  18  19
ENDBRANCH  17  18
ENDBRANCH   1  17
TORSDOF 11
ENDMDL