MODEL 2
REMARK VINA RESULT: -7.509630584      1.673      2.744
REMARK  11 active torsions:
REMARK  status: ('A' for Active; 'I' for Inactive)
REMARK    1  A    between atoms: C1_2  and  C2_3
REMARK    2  A    between atoms: C2_3  and  C3_4
REMARK    3  A    between atoms: C3_4  and  N1_5
REMARK    4  A    between atoms: N1_5  and  C4_8
REMARK    5  A    between atoms: C4_8  and  C5_9
REMARK    6  A    between atoms: C5_9  and  C6_10
REMARK    7  A    between atoms: C6_10  and  C7_11
REMARK    8  A    between atoms: C7_11  and  N2_12
REMARK    9  A    between atoms: N2_12  and  C8_15
REMARK   10  A    between atoms: C8_15  and  C9_16
REMARK   11  A    between atoms: C12_19  and  C13_20
ROOT
HETATM    1  C9  UNL     1     183.856 122.468  31.392  1.00  0.00    -0.033 A
HETATM    2  C10 UNL     1     184.143 123.294  30.342  1.00  0.00     0.010 A
HETATM    3  C11 UNL     1     184.461 124.635  30.551  1.00  0.00     0.014 A
HETATM    4  C12 UNL     1     184.497 125.164  31.798  1.00  0.00    -0.009 A
HETATM    5  C22 UNL     1     184.203 124.314  32.864  1.00  0.00     0.014 A
HETATM    6  C23 UNL     1     183.892 123.002  32.662  1.00  0.00     0.010 A
ENDROOT
BRANCH   1   7
HETATM    7  C8  UNL     1     183.506 121.031  31.170  1.00  0.00     0.270 C
BRANCH   7   8
HETATM    8  N2  UNL     1     184.341 120.248  32.046  1.00  0.00    -0.071 N
ATOM      9  H22 UNL     1     183.971 119.303  32.157  1.00  0.00     0.277 HD
ATOM     10  H21 UNL     1     184.262 120.570  33.011  1.00  0.00     0.277 HD
BRANCH   8  11
HETATM   11  C7  UNL     1     185.730 120.219  31.617  1.00  0.00     0.232 C
BRANCH  11  12
HETATM   12  C6  UNL     1     186.616 120.231  32.828  1.00  0.00     0.029 C
BRANCH  12  13
HETATM   13  C5  UNL     1     187.361 121.534  32.908  1.00  0.00     0.029 C
BRANCH  13  14
HETATM   14  C4  UNL     1     187.513 122.129  31.556  1.00  0.00     0.232 C
BRANCH  14  15
HETATM   15  N1  UNL     1     188.909 122.226  31.142  1.00  0.00    -0.075 N
ATOM     16  H12 UNL     1     189.500 122.541  31.911  1.00  0.00     0.277 HD
ATOM     17  H11 UNL     1     189.049 123.004  30.498  1.00  0.00     0.277 HD
BRANCH  15  18
HETATM   18  C3  UNL     1     189.398 121.008  30.586  1.00  0.00     0.233 C
BRANCH  18  19
HETATM   19  C2  UNL     1     190.669 120.608  31.286  1.00  0.00     0.038 C
BRANCH  19  20
HETATM   20  C1  UNL     1     191.569 121.803  31.445  1.00  0.00     0.088 C
HETATM   21  S1  UNL     1     193.034 121.762  30.392  1.00  0.00    -0.098 SA
ENDBRANCH  19  20
ENDBRANCH  18  19
ENDBRANCH  15  18
ENDBRANCH  14  15
ENDBRANCH  13  14
ENDBRANCH  12  13
ENDBRANCH  11  12
ENDBRANCH   8  11
ENDBRANCH   7   8
ENDBRANCH   1   7
BRANCH   4  22
HETATM   22  C13 UNL     1     184.816 126.546  32.106  1.00  0.00     0.043 A
HETATM   23  C14 UNL     1     184.177 127.598  31.495  1.00  0.00     0.031 A
HETATM   24  C15 UNL     1     184.468 128.928  31.778  1.00  0.00     0.016 A
HETATM   25  C16 UNL     1     185.442 129.188  32.712  1.00  0.00    -0.009 A
HETATM   26  C17 UNL     1     185.808 130.472  33.067  1.00  0.00     0.013 A
HETATM   27  C21 UNL     1     186.071 128.132  33.313  1.00  0.00     0.043 A
HETATM   28  C18 UNL     1     186.780 130.721  34.003  1.00  0.00     0.001 A
HETATM   29  C19 UNL     1     187.411 129.628  34.605  1.00  0.00     0.002 A
HETATM   30  C20 UNL     1     187.069 128.344  34.271  1.00  0.00     0.030 A
HETATM   31  N3  UNL     1     185.761 126.862  33.012  1.00  0.00    -0.355 N
ATOM     32  H3  UNL     1     186.258 126.109  33.486  1.00  0.00     0.166 HD
ENDBRANCH   4  22
TORSDOF 11
ENDMDL