MODEL 2
REMARK VINA RESULT: -8.041108764      2.925      8.024
REMARK  12 active torsions:
REMARK  status: ('A' for Active; 'I' for Inactive)
REMARK    1  A    between atoms: N1_1  and  C1_5
REMARK    2  A    between atoms: C6_10  and  N2_11
REMARK    3  A    between atoms: N2_11  and  C7_13
REMARK    4  A    between atoms: C7_13  and  C8_14
REMARK    5  A    between atoms: C8_14  and  C9_15
REMARK    6  A    between atoms: C9_15  and  C10_16
REMARK    7  A    between atoms: C10_16  and  C11_17
REMARK    8  A    between atoms: C11_17  and  C12_18
REMARK    9  A    between atoms: C12_18  and  N3_19
REMARK   10  A    between atoms: N3_19  and  C13_21
REMARK   11  A    between atoms: C16_26  and  C17_27
REMARK   12  A    between atoms: C17_27  and  C18_28
ROOT
HETATM    1  C11 UNL     1     187.690 127.855  34.251  1.00  0.00     0.020 C
ENDROOT
BRANCH   1   2
HETATM    2  C10 UNL     1     188.329 126.627  33.604  1.00  0.00     0.002 C
BRANCH   2   3
HETATM    3  C9  UNL     1     187.275 125.665  33.169  1.00  0.00     0.002 C
BRANCH   3   4
HETATM    4  C8  UNL     1     187.357 125.279  31.748  1.00  0.00     0.019 C
BRANCH   4   5
HETATM    5  C7  UNL     1     188.649 124.499  31.464  1.00  0.00     0.114 C
BRANCH   5   6
HETATM    6  N2  UNL     1     188.422 123.094  31.571  1.00  0.00    -0.415 N
ATOM      7  H2  UNL     1     187.791 122.634  30.915  1.00  0.00     0.153 HD
BRANCH   6   8
HETATM    8  C6  UNL     1     189.053 122.341  32.567  1.00  0.00     0.106 C
HETATM    9  C1  UNL     1     189.740 121.109  32.071  1.00  0.00     0.205 C
HETATM   10  C2  UNL     1     188.766 120.421  31.135  1.00  0.00     0.035 C
HETATM   11  C3  UNL     1     187.350 120.480  31.649  1.00  0.00     0.002 C
HETATM   12  C4  UNL     1     187.205 120.742  33.103  1.00  0.00     0.002 C
HETATM   13  C5  UNL     1     188.065 121.863  33.626  1.00  0.00     0.027 C
BRANCH   9  14
HETATM   14  N1  UNL     1     190.968 121.369  31.408  1.00  0.00    -0.073 N
ATOM     15  H13 UNL     1     191.643 121.822  32.025  1.00  0.00     0.274 HD
ATOM     16  H12 UNL     1     191.485 120.510  31.220  1.00  0.00     0.274 HD
ATOM     17  H11 UNL     1     190.808 121.910  30.558  1.00  0.00     0.274 HD
ENDBRANCH   9  14
ENDBRANCH   6   8
ENDBRANCH   5   6
ENDBRANCH   4   5
ENDBRANCH   3   4
ENDBRANCH   2   3
ENDBRANCH   1   2
BRANCH   1  18
HETATM   18  C12 UNL     1     187.950 129.083  33.417  1.00  0.00     0.119 C
BRANCH  18  19
HETATM   19  N3  UNL     1     186.797 129.593  32.744  1.00  0.00    -0.390 N
ATOM     20  H3  UNL     1     186.392 130.466  33.083  1.00  0.00     0.159 HD
BRANCH  19  21
HETATM   21  C13 UNL     1     186.184 128.965  31.640  1.00  0.00     0.031 A
HETATM   22  C14 UNL     1     186.639 129.027  30.359  1.00  0.00     0.046 A
HETATM   23  C15 UNL     1     185.984 128.390  29.307  1.00  0.00     0.090 A
HETATM   24  N4  UNL     1     184.857 127.687  29.571  1.00  0.00    -0.369 N
HETATM   25  C16 UNL     1     184.377 127.603  30.822  1.00  0.00     0.015 A
ATOM     26  H4  UNL     1     184.367 127.215  28.811  1.00  0.00     0.165 HD
HETATM   27  C24 UNL     1     185.018 128.226  31.858  1.00  0.00     0.054 A
BRANCH  25  28
HETATM   28  C17 UNL     1     183.142 126.843  31.077  1.00  0.00     0.095 C
BRANCH  28  29
HETATM   29  C18 UNL     1     183.513 125.481  31.596  1.00  0.00    -0.053 A
HETATM   30  C19 UNL     1     183.882 124.531  30.679  1.00  0.00     0.007 A
HETATM   31  C20 UNL     1     184.220 123.273  31.164  1.00  0.00     0.001 A
HETATM   32  C21 UNL     1     184.200 122.948  32.499  1.00  0.00     0.000 A
HETATM   33  C22 UNL     1     183.821 123.937  33.394  1.00  0.00     0.001 A
HETATM   34  C23 UNL     1     183.476 125.205  32.947  1.00  0.00     0.007 A
ENDBRANCH  28  29
ENDBRANCH  25  28
ENDBRANCH  19  21
ENDBRANCH  18  19
ENDBRANCH   1  18
TORSDOF 12
ENDMDL