MODEL 1
REMARK VINA RESULT: -8.027735159      0.000      0.000
REMARK  13 active torsions:
REMARK  status: ('A' for Active; 'I' for Inactive)
REMARK    1  A    between atoms: C2_2  and  C3_3
REMARK    2  A    between atoms: C3_3  and  C4_4
REMARK    3  A    between atoms: C4_4  and  N1_5
REMARK    4  A    between atoms: N1_5  and  C5_7
REMARK    5  A    between atoms: C6_10  and  C7_11
REMARK    6  A    between atoms: C7_11  and  C8_12
REMARK    7  A    between atoms: C11_15  and  C12_16
REMARK    8  A    between atoms: C12_16  and  C13_17
REMARK    9  A    between atoms: C13_17  and  C14_18
REMARK   10  A    between atoms: C14_18  and  N3_19
REMARK   11  A    between atoms: C17_25  and  C18_26
REMARK   12  A    between atoms: C18_26  and  C19_27
REMARK   13  A    between atoms: C19_27  and  C20_28
ROOT
HETATM    1  C5  UNL     1     184.808 128.614  27.732  1.00  0.00     0.171 C
HETATM    2  N2  UNL     1     183.713 128.569  28.395  1.00  0.00    -0.356 N
ATOM      3  H2  UNL     1     182.784 128.470  27.988  1.00  0.00     0.163 HD
HETATM    4  C6  UNL     1     183.993 128.678  29.789  1.00  0.00     0.111 C
HETATM    5  C17 UNL     1     185.432 128.340  29.909  1.00  0.00     0.107 C
HETATM    6  N4  UNL     1     185.919 128.750  28.609  1.00  0.00    -0.356 N
ATOM      7  H4  UNL     1     186.858 129.068  28.372  1.00  0.00     0.163 HD
ENDROOT
BRANCH   4   8
HETATM    8  C7  UNL     1     183.071 127.915  30.684  1.00  0.00     0.065 C
BRANCH   8   9
HETATM    9  C8  UNL     1     183.343 126.479  30.762  1.00  0.00    -0.056 A
HETATM   10  C9  UNL     1     183.445 125.670  29.659  1.00  0.00     0.007 A
HETATM   11  C10 UNL     1     183.707 124.299  29.746  1.00  0.00     0.007 A
HETATM   12  C11 UNL     1     183.870 123.722  30.980  1.00  0.00    -0.058 A
HETATM   13  C15 UNL     1     183.769 124.528  32.097  1.00  0.00     0.007 A
HETATM   14  C16 UNL     1     183.513 125.863  31.986  1.00  0.00     0.007 A
BRANCH  12  15
HETATM   15  C12 UNL     1     184.157 122.283  31.096  1.00  0.00     0.040 C
BRANCH  15  16
HETATM   16  C13 UNL     1     185.280 121.930  32.011  1.00  0.00     0.032 C
BRANCH  16  17
HETATM   17  C14 UNL     1     185.657 120.473  32.019  1.00  0.00     0.230 C
BRANCH  17  18
HETATM   18  N3  UNL     1     186.717 120.172  32.932  1.00  0.00    -0.079 N
ATOM     19  H33 UNL     1     187.149 121.027  33.282  1.00  0.00     0.274 HD
ATOM     20  H32 UNL     1     186.349 119.799  33.807  1.00  0.00     0.274 HD
ATOM     21  H31 UNL     1     187.419 119.545  32.537  1.00  0.00     0.274 HD
ENDBRANCH  17  18
ENDBRANCH  16  17
ENDBRANCH  15  16
ENDBRANCH  12  15
ENDBRANCH   8   9
ENDBRANCH   4   8
BRANCH   5  22
HETATM   22  C18 UNL     1     186.149 129.002  31.056  1.00  0.00     0.028 C
BRANCH  22  23
HETATM   23  C19 UNL     1     186.469 127.944  32.066  1.00  0.00     0.007 C
BRANCH  23  24
HETATM   24  C20 UNL     1     186.028 128.369  33.473  1.00  0.00    -0.014 C
HETATM   25  C21 UNL     1     185.381 129.729  33.441  1.00  0.00     0.004 C
HETATM   26  C22 UNL     1     185.797 130.388  34.745  1.00  0.00     0.000 C
HETATM   27  C23 UNL     1     187.248 129.957  34.846  1.00  0.00     0.000 C
HETATM   28  C24 UNL     1     187.223 128.528  34.380  1.00  0.00     0.004 C
ENDBRANCH  23  24
ENDBRANCH  22  23
ENDBRANCH   5  22
BRANCH   1  29
HETATM   29  N1  UNL     1     184.821 128.524  26.298  1.00  0.00    -0.362 N
ATOM     30  H1  UNL     1     185.087 127.635  25.874  1.00  0.00     0.162 HD
BRANCH  29  31
HETATM   31  C4  UNL     1     184.481 129.609  25.435  1.00  0.00     0.122 C
BRANCH  31  32
HETATM   32  C3  UNL     1     183.030 129.557  25.002  1.00  0.00     0.019 C
BRANCH  32  33
HETATM   33  C2  UNL     1     182.630 128.131  24.728  1.00  0.00    -0.003 C
HETATM   34  C1  UNL     1     181.324 127.832  25.455  1.00  0.00     0.005 C
ENDBRANCH  32  33
ENDBRANCH  31  32
ENDBRANCH  29  31
ENDBRANCH   1  29
TORSDOF 13
ENDMDL