MODEL 5
REMARK VINA RESULT: -7.639604813      4.833      8.220
REMARK  13 active torsions:
REMARK  status: ('A' for Active; 'I' for Inactive)
REMARK    1  A    between atoms: C2_2  and  C3_3
REMARK    2  A    between atoms: C3_3  and  N1_4
REMARK    3  A    between atoms: N1_4  and  C4_6
REMARK    4  A    between atoms: C5_7  and  C6_8
REMARK    5  A    between atoms: C6_8  and  N2_9
REMARK    6  A    between atoms: N2_9  and  C7_11
REMARK    7  A    between atoms: C7_11  and  C8_12
REMARK    8  A    between atoms: C8_12  and  C9_13
REMARK    9  A    between atoms: C9_13  and  C10_14
REMARK   10  A    between atoms: C10_14  and  C11_15
REMARK   11  A    between atoms: C11_15  and  N3_16
REMARK   12  A    between atoms: C12_20  and  C13_21
REMARK   13  A    between atoms: N5_29  and  C19_30
ROOT
HETATM    1  C4  UNL     1     183.835 128.292  29.571  1.00  0.00     0.137 A
HETATM    2  C5  UNL     1     184.123 127.559  30.760  1.00  0.00     0.053 A
HETATM    3  C12 UNL     1     183.760 126.275  30.546  1.00  0.00     0.074 A
HETATM    4  N4  UNL     1     183.262 126.236  29.251  1.00  0.00    -0.290 N
ATOM      5  H4  UNL     1     182.903 125.400  28.791  1.00  0.00     0.187 HD
HETATM    6  N5  UNL     1     183.316 127.415  28.710  1.00  0.00    -0.239 N
ENDROOT
BRANCH   2   7
HETATM    7  C6  UNL     1     184.639 128.203  31.967  1.00  0.00     0.100 C
BRANCH   7   8
HETATM    8  N2  UNL     1     186.024 128.304  32.171  1.00  0.00    -0.398 N
ATOM      9  H2  UNL     1     186.718 127.601  31.919  1.00  0.00     0.158 HD
BRANCH   8  10
HETATM   10  C7  UNL     1     186.306 129.613  32.818  1.00  0.00     0.119 C
BRANCH  10  11
HETATM   11  C8  UNL     1     185.796 129.709  34.206  1.00  0.00     0.020 C
BRANCH  11  12
HETATM   12  C9  UNL     1     185.258 131.119  34.408  1.00  0.00     0.003 C
BRANCH  12  13
HETATM   13  C10 UNL     1     185.597 131.708  35.736  1.00  0.00     0.027 C
BRANCH  13  14
HETATM   14  C11 UNL     1     187.128 131.787  35.792  1.00  0.00     0.229 C
BRANCH  14  15
HETATM   15  N3  UNL     1     187.620 131.104  36.984  1.00  0.00    -0.079 N
ATOM     16  H33 UNL     1     187.227 131.498  37.839  1.00  0.00     0.274 HD
ATOM     17  H32 UNL     1     187.242 130.161  37.068  1.00  0.00     0.274 HD
ATOM     18  H31 UNL     1     188.640 131.110  36.993  1.00  0.00     0.274 HD
ENDBRANCH  14  15
ENDBRANCH  13  14
ENDBRANCH  12  13
ENDBRANCH  11  12
ENDBRANCH  10  11
ENDBRANCH   8  10
ENDBRANCH   7   8
ENDBRANCH   2   7
BRANCH   1  19
HETATM   19  N1  UNL     1     184.094 129.662  29.426  1.00  0.00    -0.371 N
ATOM     20  H1  UNL     1     183.336 130.283  29.707  1.00  0.00     0.161 HD
BRANCH  19  21
HETATM   21  C3  UNL     1     185.273 130.311  28.941  1.00  0.00     0.148 C
BRANCH  21  22
HETATM   22  C2  UNL     1     186.274 129.304  28.421  1.00  0.00    -0.018 C
HETATM   23  C1  UNL     1     187.466 129.174  28.955  1.00  0.00     0.008 C
ENDBRANCH  21  22
ENDBRANCH  19  21
ENDBRANCH   1  19
BRANCH   3  24
HETATM   24  C13 UNL     1     183.746 125.064  31.341  1.00  0.00    -0.007 A
HETATM   25  C14 UNL     1     183.977 123.854  30.691  1.00  0.00     0.014 A
HETATM   26  C15 UNL     1     184.054 122.658  31.375  1.00  0.00     0.001 A
HETATM   27  C16 UNL     1     183.890 122.730  32.740  1.00  0.00     0.000 A
HETATM   28  C17 UNL     1     183.661 123.904  33.405  1.00  0.00     0.001 A
HETATM   29  C18 UNL     1     183.592 125.079  32.683  1.00  0.00     0.014 A
ENDBRANCH   3  24
BRANCH   6  30
HETATM   30  C19 UNL     1     182.850 127.613  27.359  1.00  0.00     0.058 A
HETATM   31  C20 UNL     1     181.496 127.850  27.113  1.00  0.00     0.031 A
HETATM   32  C21 UNL     1     181.077 128.064  25.828  1.00  0.00     0.002 A
HETATM   33  C22 UNL     1     181.969 128.049  24.786  1.00  0.00     0.000 A
HETATM   34  C23 UNL     1     183.322 127.811  25.053  1.00  0.00     0.002 A
HETATM   35  C24 UNL     1     183.764 127.592  26.333  1.00  0.00     0.031 A
ENDBRANCH   6  30
TORSDOF 13
ENDMDL