MODEL 1
REMARK VINA RESULT: -7.358436641      0.000      0.000
REMARK  11 active torsions:
REMARK  status: ('A' for Active; 'I' for Inactive)
REMARK    1  A    between atoms: N1_2  and  C2_3
REMARK    2  A    between atoms: N1_2  and  C16_20
REMARK    3  A    between atoms: C2_3  and  C3_4
REMARK    4  A    between atoms: C3_4  and  N2_5
REMARK    5  A    between atoms: N2_5  and  C4_7
REMARK    6  A    between atoms: C7_10  and  C8_11
REMARK    7  A    between atoms: C8_11  and  C9_12
REMARK    8  A    between atoms: C9_12  and  C10_13
REMARK    9  A    between atoms: C10_13  and  C11_14
REMARK   10  A    between atoms: C11_14  and  C12_15
REMARK   11  A    between atoms: C16_20  and  C17_21
ROOT
HETATM    1  C12 UNL     1     182.492 120.828  30.001  1.00  0.00     0.124 C
HETATM    2  C13 UNL     1     182.989 121.452  28.724  1.00  0.00     0.059 C
HETATM    3  N3  UNL     1     183.387 121.933  27.754  1.00  0.00    -0.197 NA
ENDROOT
BRANCH   1   4
HETATM    4  C11 UNL     1     183.643 120.743  30.903  1.00  0.00     0.014 C
BRANCH   4   5
HETATM    5  C10 UNL     1     183.750 121.536  32.127  1.00  0.00     0.001 C
BRANCH   5   6
HETATM    6  C9  UNL     1     184.555 122.762  32.186  1.00  0.00     0.005 C
BRANCH   6   7
HETATM    7  C8  UNL     1     183.966 124.027  32.648  1.00  0.00     0.038 C
BRANCH   7   8
HETATM    8  C7  UNL     1     183.713 124.989  31.536  1.00  0.00    -0.058 A
HETATM    9  C6  UNL     1     183.808 124.737  30.199  1.00  0.00     0.009 A
HETATM   10  C5  UNL     1     183.539 125.686  29.230  1.00  0.00     0.029 A
HETATM   11  C4  UNL     1     183.151 126.971  29.610  1.00  0.00     0.028 A
HETATM   12  C15 UNL     1     183.059 127.215  30.952  1.00  0.00     0.029 A
HETATM   13  C14 UNL     1     183.327 126.270  31.919  1.00  0.00     0.009 A
BRANCH  11  14
HETATM   14  N2  UNL     1     182.853 127.956  28.635  1.00  0.00    -0.388 N
ATOM     15  H2  UNL     1     182.127 128.642  28.844  1.00  0.00     0.159 HD
BRANCH  14  16
HETATM   16  C3  UNL     1     183.521 128.036  27.371  1.00  0.00     0.150 C
BRANCH  16  17
HETATM   17  C2  UNL     1     184.293 129.295  27.187  1.00  0.00     0.292 C
BRANCH  17  18
HETATM   18  N1  UNL     1     184.993 129.704  28.415  1.00  0.00     0.092 N
HETATM   19  C1  UNL     1     184.926 131.151  28.455  1.00  0.00     0.310 C
BRANCH  18  20
HETATM   20  C16 UNL     1     186.347 129.218  28.299  1.00  0.00     0.348 C
BRANCH  20  21
HETATM   21  C17 UNL     1     186.645 128.118  29.236  1.00  0.00     0.111 A
HETATM   22  N4  UNL     1     186.593 128.083  30.578  1.00  0.00    -0.343 N
HETATM   23  C18 UNL     1     186.948 126.879  31.006  1.00  0.00     0.062 A
ATOM     24  H4  UNL     1     186.322 128.863  31.176  1.00  0.00     0.167 HD
HETATM   25  C19 UNL     1     187.086 126.253  32.236  1.00  0.00     0.058 A
HETATM   26  C23 UNL     1     187.235 126.125  29.893  1.00  0.00     0.060 A
HETATM   27  C20 UNL     1     187.490 124.940  32.351  1.00  0.00     0.048 A
HETATM   28  N5  UNL     1     187.631 124.295  33.613  1.00  0.00    -0.102 NA
HETATM   29  C21 UNL     1     187.774 124.198  31.225  1.00  0.00     0.029 A
HETATM   30  C22 UNL     1     187.645 124.798  29.973  1.00  0.00     0.034 A
HETATM   31  N6  UNL     1     187.044 126.898  28.832  1.00  0.00    -0.343 N
ATOM     32  H6  UNL     1     187.179 126.613  27.863  1.00  0.00     0.167 HD
ENDBRANCH  20  21
ENDBRANCH  18  20
ENDBRANCH  17  18
ENDBRANCH  16  17
ENDBRANCH  14  16
ENDBRANCH  11  14
ENDBRANCH   7   8
ENDBRANCH   6   7
ENDBRANCH   5   6
ENDBRANCH   4   5
ENDBRANCH   1   4
TORSDOF 11
ENDMDL