MODEL 1
REMARK VINA RESULT: -7.559485557      0.000      0.000
REMARK  13 active torsions:
REMARK  status: ('A' for Active; 'I' for Inactive)
REMARK    1  A    between atoms: N1_1  and  C1_5
REMARK    2  A    between atoms: C1_5  and  C2_6
REMARK    3  A    between atoms: C2_6  and  C3_7
REMARK    4  A    between atoms: C3_7  and  C4_8
REMARK    5  A    between atoms: C4_8  and  N2_9
REMARK    6  A    between atoms: N2_9  and  C5_11
REMARK    7  A    between atoms: C5_11  and  O1_12
REMARK    8  A    between atoms: C5_11  and  C6_14
REMARK    9  A    between atoms: C9_17  and  C10_18
REMARK   10  A    between atoms: C10_18  and  C11_19
REMARK   11  A    between atoms: C11_19  and  C12_20
REMARK   12  A    between atoms: C12_20  and  C13_21
REMARK   13  A    between atoms: C13_21  and  C14_22
ROOT
HETATM    1  C6  UNL     1     190.028 122.278  30.932  1.00  0.00     0.017 A
HETATM    2  C7  UNL     1     189.707 120.960  30.661  1.00  0.00     0.014 A
HETATM    3  C8  UNL     1     188.634 120.329  31.242  1.00  0.00     0.009 A
HETATM    4  C9  UNL     1     187.837 121.020  32.133  1.00  0.00    -0.046 A
HETATM    5  C20 UNL     1     188.115 122.320  32.431  1.00  0.00    -0.002 A
HETATM    6  C21 UNL     1     187.350 123.035  33.291  1.00  0.00     0.015 A
HETATM    7  C22 UNL     1     187.678 124.360  33.549  1.00  0.00     0.018 A
HETATM    8  C23 UNL     1     188.757 124.979  32.960  1.00  0.00     0.088 A
HETATM    9  N3  UNL     1     189.483 124.232  32.115  1.00  0.00    -0.365 N
ATOM     10  H3  UNL     1     190.288 124.667  31.665  1.00  0.00     0.165 HD
HETATM   11  C24 UNL     1     189.218 122.948  31.824  1.00  0.00     0.053 A
ENDROOT
BRANCH   1  12
HETATM   12  C5  UNL     1     191.189 122.968  30.311  1.00  0.00     0.250 C
BRANCH  12  13
HETATM   13  N2  UNL     1     191.926 122.157  29.419  1.00  0.00    -0.393 N
ATOM     14  H2  UNL     1     191.527 121.296  29.044  1.00  0.00     0.156 HD
BRANCH  13  15
HETATM   15  C4  UNL     1     193.232 122.569  29.057  1.00  0.00     0.116 C
BRANCH  15  16
HETATM   16  C3  UNL     1     194.045 122.702  30.323  1.00  0.00     0.021 C
BRANCH  16  17
HETATM   17  C2  UNL     1     194.650 124.074  30.385  1.00  0.00     0.029 C
BRANCH  17  18
HETATM   18  C1  UNL     1     194.237 124.895  29.193  1.00  0.00     0.229 C
BRANCH  18  19
HETATM   19  N1  UNL     1     193.370 125.955  29.723  1.00  0.00    -0.079 N
ATOM     20  H13 UNL     1     192.449 125.625  30.012  1.00  0.00     0.274 HD
ATOM     21  H12 UNL     1     193.663 126.307  30.634  1.00  0.00     0.274 HD
ATOM     22  H11 UNL     1     193.338 126.673  28.998  1.00  0.00     0.274 HD
ENDBRANCH  18  19
ENDBRANCH  17  18
ENDBRANCH  16  17
ENDBRANCH  15  16
ENDBRANCH  13  15
ENDBRANCH  12  13
BRANCH  12  23
HETATM   23  O1  UNL     1     190.796 124.154  29.685  1.00  0.00    -0.373 OA
ATOM     24  H1  UNL     1     191.210 124.903  30.099  1.00  0.00     0.212 HD
ENDBRANCH  12  23
ENDBRANCH   1  12
BRANCH   4  25
HETATM   25  C10 UNL     1     186.694 120.288  32.790  1.00  0.00     0.039 C
BRANCH  25  26
HETATM   26  C11 UNL     1     185.647 120.114  31.746  1.00  0.00     0.005 C
BRANCH  26  27
HETATM   27  C12 UNL     1     184.475 120.993  31.785  1.00  0.00     0.001 C
BRANCH  27  28
HETATM   28  C13 UNL     1     184.249 122.037  30.788  1.00  0.00     0.004 C
BRANCH  28  29
HETATM   29  C14 UNL     1     183.959 123.422  31.202  1.00  0.00    -0.014 C
HETATM   30  C15 UNL     1     185.090 124.366  30.813  1.00  0.00     0.004 C
HETATM   31  C16 UNL     1     184.680 125.755  31.184  1.00  0.00     0.000 C
HETATM   32  C17 UNL     1     184.477 125.871  32.681  1.00  0.00     0.000 C
HETATM   33  C18 UNL     1     183.531 124.798  33.174  1.00  0.00     0.000 C
HETATM   34  C19 UNL     1     183.982 123.435  32.760  1.00  0.00     0.004 C
ENDBRANCH  28  29
ENDBRANCH  27  28
ENDBRANCH  26  27
ENDBRANCH  25  26
ENDBRANCH   4  25
TORSDOF 13
ENDMDL