MODEL 5
REMARK VINA RESULT: -6.685209612      4.115      6.845
REMARK  11 active torsions:
REMARK  status: ('A' for Active; 'I' for Inactive)
REMARK    1  A    between atoms: C2_2  and  C3_3
REMARK    2  A    between atoms: C3_3  and  C5_5
REMARK    3  A    between atoms: C5_5  and  N1_6
REMARK    4  A    between atoms: C5_5  and  C8_11
REMARK       I    between atoms: N1_6  and  C6_8
REMARK    5  A    between atoms: C8_11  and  N2_12
REMARK    6  A    between atoms: C8_11  and  C13_23
REMARK    7  A    between atoms: N2_12  and  S1_14
REMARK    8  A    between atoms: S1_14  and  C9_16
REMARK    9  A    between atoms: C9_16  and  C10_17
REMARK   10  A    between atoms: C10_17  and  C11_18
REMARK   11  A    between atoms: C11_18  and  C12_19
ROOT
HETATM    1  C8  UNL     1      15.232 -14.082  21.400  1.00  0.00     0.079 C
ENDROOT
BRANCH   1   2
HETATM    2  C5  UNL     1      13.910 -14.776  21.469  1.00  0.00     0.041 C
BRANCH   2   3
HETATM    3  C3  UNL     1      13.816 -16.199  21.173  1.00  0.00     0.033 C
HETATM    4  C4  UNL     1      13.816 -17.193  22.284  1.00  0.00     0.016 C
BRANCH   3   5
HETATM    5  C2  UNL     1      12.559 -16.542  20.333  1.00  0.00     0.006 C
HETATM    6  C1  UNL     1      11.793 -17.696  20.846  1.00  0.00     0.006 C
ENDBRANCH   3   5
ENDBRANCH   2   3
BRANCH   2   7
HETATM    7  N1  UNL     1      13.033 -14.211  22.469  1.00  0.00    -0.329 N
HETATM    8  C6  UNL     1      12.372 -12.988  22.474  1.00  0.00     0.217 C
HETATM    9  C7  UNL     1      11.523 -12.628  23.624  1.00  0.00     0.117 C
HETATM   10  O1  UNL     1      12.456 -12.157  21.542  1.00  0.00    -0.274 OA
ATOM     11  H1  UNL     1      12.876 -14.795  23.291  1.00  0.00     0.168 HD
ENDBRANCH   2   7
ENDBRANCH   1   2
BRANCH   1  12
HETATM   12  N2  UNL     1      16.082 -14.080  22.504  1.00  0.00    -0.327 N
ATOM     13  H2  UNL     1      16.039 -13.282  23.138  1.00  0.00     0.174 HD
BRANCH  12  14
HETATM   14  S1  UNL     1      17.154 -15.288  22.850  1.00  0.00    -0.030 SA
HETATM   15 CL1  UNL     1      17.434 -16.756  21.482  1.00  0.00    -0.034 Cl
BRANCH  14  16
HETATM   16  C9  UNL     1      18.773 -14.531  23.200  1.00  0.00     0.102 C
BRANCH  16  17
HETATM   17  C10 UNL     1      19.052 -14.681  24.659  1.00  0.00     0.021 C
BRANCH  17  18
HETATM   18  C11 UNL     1      20.471 -14.598  25.036  1.00  0.00     0.118 C
BRANCH  18  19
HETATM   19  C12 UNL     1      20.748 -14.154  26.420  1.00  0.00     0.387 C
HETATM   20  F1  UNL     1      22.057 -14.536  26.815  1.00  0.00    -0.171 F
HETATM   21  F2  UNL     1      20.755 -12.751  26.465  1.00  0.00    -0.171 F
HETATM   22  F3  UNL     1      19.883 -14.624  27.372  1.00  0.00    -0.171 F
ENDBRANCH  18  19
ENDBRANCH  17  18
ENDBRANCH  16  17
ENDBRANCH  14  16
ENDBRANCH  12  14
ENDBRANCH   1  12
BRANCH   1  23
HETATM   23  C13 UNL     1      15.960 -14.373  20.077  1.00  0.00     0.331 C
HETATM   24  N3  UNL     1      14.983 -14.085  19.019  1.00  0.00    -0.036 N
HETATM   25  C14 UNL     1      14.851 -12.647  18.965  1.00  0.00     0.283 C
ATOM     26  H32 UNL     1      15.226 -14.502  18.120  1.00  0.00     0.281 HD
ATOM     27  H31 UNL     1      14.094 -14.568  19.147  1.00  0.00     0.281 HD
HETATM   28  C15 UNL     1      14.909 -12.268  17.481  1.00  0.00     0.063 C
HETATM   29  N4  UNL     1      16.070 -12.138  19.557  1.00  0.00    -0.331 N
HETATM   30  C16 UNL     1      16.930 -13.260  19.791  1.00  0.00     0.256 C
ATOM     31  H4  UNL     1      16.278 -11.162  19.770  1.00  0.00     0.164 HD
HETATM   32  O2  UNL     1      18.190 -13.280  19.757  1.00  0.00    -0.271 OA
ENDBRANCH   1  23
TORSDOF 11
ENDMDL