MODEL 5
REMARK VINA RESULT: -7.615731014      2.053      2.464
REMARK  11 active torsions:
REMARK  status: ('A' for Active; 'I' for Inactive)
REMARK    1  A    between atoms: C2_2  and  N1_3
REMARK    2  A    between atoms: C2_2  and  C12_26
REMARK       I    between atoms: N1_3  and  C3_5
REMARK    3  A    between atoms: C3_5  and  C4_7
REMARK    4  A    between atoms: C4_7  and  N2_8
REMARK    5  A    between atoms: C4_7  and  C11_23
REMARK       I    between atoms: N2_8  and  C5_10
REMARK    6  A    between atoms: C5_10  and  C6_12
REMARK    7  A    between atoms: C6_12  and  C7_13
REMARK    8  A    between atoms: C6_12  and  C9_19
REMARK    9  A    between atoms: C7_13  and  N3_14
REMARK       I    between atoms: N3_14  and  C8_16
REMARK   10  A    between atoms: C9_19  and  C10_20
REMARK   11  A    between atoms: C17_31  and  C18_32
ROOT
HETATM    1  C4  UNL     1      15.403 -13.013  18.829  1.00  0.00     0.266 C
ENDROOT
BRANCH   1   2
HETATM    2  C3  UNL     1      16.596 -12.839  19.681  1.00  0.00     0.249 C
HETATM    3  N1  UNL     1      17.594 -13.837  19.895  1.00  0.00    -0.354 N
ATOM      4  H1  UNL     1      17.488 -14.739  19.431  1.00  0.00     0.162 HD
HETATM    5  O1  UNL     1      16.714 -11.698  20.254  1.00  0.00    -0.271 OA
BRANCH   3   6
HETATM    6  C2  UNL     1      18.742 -13.626  20.738  1.00  0.00     0.085 C
HETATM    7  C1  UNL     1      20.025 -13.468  19.937  1.00  0.00     0.032 C
BRANCH   6   8
HETATM    8  C12 UNL     1      18.926 -14.699  21.798  1.00  0.00     0.017 C
HETATM    9  C13 UNL     1      20.093 -15.521  21.418  1.00  0.00     0.007 C
HETATM   10  C14 UNL     1      20.146 -16.912  21.937  1.00  0.00     0.000 C
HETATM   11  C15 UNL     1      18.799 -17.616  21.855  1.00  0.00     0.001 C
HETATM   12  C16 UNL     1      17.855 -16.796  22.663  1.00  0.00     0.010 C
HETATM   13  C17 UNL     1      17.648 -15.408  22.078  1.00  0.00     0.057 C
BRANCH  13  14
HETATM   14  C18 UNL     1      16.797 -14.702  23.145  1.00  0.00     0.357 C
HETATM   15  F3  UNL     1      17.588 -14.371  24.202  1.00  0.00    -0.214 F
HETATM   16  F4  UNL     1      16.009 -13.716  22.667  1.00  0.00    -0.214 F
ENDBRANCH  13  14
ENDBRANCH   6   8
ENDBRANCH   3   6
ENDBRANCH   1   2
BRANCH   1  17
HETATM   17  N2  UNL     1      14.326 -13.612  19.614  1.00  0.00    -0.340 N
HETATM   18  C5  UNL     1      13.421 -12.858  20.372  1.00  0.00     0.224 C
HETATM   19  O2  UNL     1      13.491 -11.620  20.413  1.00  0.00    -0.273 OA
ATOM     20  H2  UNL     1      14.229 -14.628  19.611  1.00  0.00     0.163 HD
BRANCH  18  21
HETATM   21  C6  UNL     1      12.317 -13.518  21.175  1.00  0.00     0.101 C
BRANCH  21  22
HETATM   22  C7  UNL     1      12.267 -14.959  20.767  1.00  0.00     0.138 C
BRANCH  22  23
HETATM   23  N3  UNL     1      12.703 -15.826  21.872  1.00  0.00    -0.344 N
HETATM   24  C8  UNL     1      13.869 -16.619  21.804  1.00  0.00     0.328 C
HETATM   25  N4  UNL     1      14.221 -17.424  22.904  1.00  0.00    -0.040 NA
HETATM   26  O3  UNL     1      14.605 -16.624  20.782  1.00  0.00    -0.251 OA
ATOM     27  H3  UNL     1      12.140 -15.856  22.721  1.00  0.00     0.163 HD
ENDBRANCH  22  23
ENDBRANCH  21  22
BRANCH  21  28
HETATM   28  C9  UNL     1      12.540 -13.254  22.618  1.00  0.00     0.086 C
BRANCH  28  29
HETATM   29  C10 UNL     1      11.460 -12.485  23.272  1.00  0.00     0.354 C
HETATM   30  F1  UNL     1      11.523 -12.320  24.616  1.00  0.00    -0.214 F
HETATM   31  F2  UNL     1      11.420 -11.184  22.728  1.00  0.00    -0.214 F
ENDBRANCH  28  29
ENDBRANCH  21  28
ENDBRANCH  18  21
ENDBRANCH   1  17
BRANCH   1  32
HETATM   32  C11 UNL     1      15.650 -13.815  17.604  1.00  0.00     0.263 C
HETATM   33  N5  UNL     1      16.087 -13.219  16.400  1.00  0.00    -0.060 NA
HETATM   34  O4  UNL     1      15.461 -15.049  17.655  1.00  0.00    -0.274 OA
ENDBRANCH   1  32
TORSDOF 11
ENDMDL