MODEL 3
REMARK VINA RESULT: -6.875518479      2.400      3.618
REMARK  15 active torsions:
REMARK  status: ('A' for Active; 'I' for Inactive)
REMARK    1  A    between atoms: N1_1  and  S1_4
REMARK    2  A    between atoms: S1_4  and  N2_7
REMARK    3  A    between atoms: N2_7  and  C1_9
REMARK    4  A    between atoms: C1_9  and  C2_10
REMARK    5  A    between atoms: C2_10  and  C3_11
REMARK    6  A    between atoms: C3_11  and  C4_12
REMARK    7  A    between atoms: C4_12  and  C5_13
REMARK    8  A    between atoms: C5_13  and  C6_14
REMARK    9  A    between atoms: C6_14  and  N3_15
REMARK   10  A    between atoms: N3_15  and  C7_17
REMARK   11  A    between atoms: C8_22  and  N6_23
REMARK   12  A    between atoms: N6_23  and  C9_25
REMARK   13  A    between atoms: C9_25  and  C10_26
REMARK   14  A    between atoms: C12_28  and  C13_30
REMARK   15  A    between atoms: C13_30  and  C14_32
ROOT
HETATM    1  C7  UNL     1      16.783 -12.816  20.248  1.00  0.00     0.707 A
HETATM    2  N4  UNL     1      17.968 -12.904  19.620  1.00  0.00    -0.117 N
ATOM      3  H4  UNL     1      18.146 -12.565  18.674  1.00  0.00     0.206 HD
HETATM    4  N5  UNL     1      18.872 -13.486  20.386  1.00  0.00    -0.117 N
ATOM      5  H5  UNL     1      19.847 -13.673  20.151  1.00  0.00     0.206 HD
HETATM    6  C8  UNL     1      18.246 -13.781  21.539  1.00  0.00     0.707 A
HETATM    7  N7  UNL     1      16.965 -13.371  21.458  1.00  0.00    -0.020 N
ATOM      8  H7  UNL     1      16.259 -13.465  22.188  1.00  0.00     0.203 HD
ENDROOT
BRANCH   1   9
HETATM    9  N3  UNL     1      15.661 -12.307  19.814  1.00  0.00    -0.224 N
ATOM     10  H3  UNL     1      15.299 -11.466  20.265  1.00  0.00     0.177 HD
BRANCH   9  11
HETATM   11  C6  UNL     1      14.917 -12.877  18.732  1.00  0.00     0.138 C
BRANCH  11  12
HETATM   12  C5  UNL     1      15.412 -14.286  18.383  1.00  0.00     0.020 C
BRANCH  12  13
HETATM   13  C4  UNL     1      14.418 -15.325  18.871  1.00  0.00     0.002 C
BRANCH  13  14
HETATM   14  C3  UNL     1      14.845 -16.079  20.060  1.00  0.00     0.002 C
BRANCH  14  15
HETATM   15  C2  UNL     1      13.888 -16.834  20.876  1.00  0.00     0.020 C
BRANCH  15  16
HETATM   16  C1  UNL     1      12.708 -16.198  21.485  1.00  0.00     0.133 C
BRANCH  16  17
HETATM   17  N2  UNL     1      12.959 -15.421  22.637  1.00  0.00    -0.303 N
ATOM     18  H2  UNL     1      13.221 -15.806  23.544  1.00  0.00     0.173 HD
BRANCH  17  19
HETATM   19  S1  UNL     1      12.764 -13.713  22.311  1.00  0.00     0.312 S
HETATM   20  O1  UNL     1      12.238 -13.607  20.917  1.00  0.00    -0.183 OA
HETATM   21  O2  UNL     1      14.089 -13.027  22.397  1.00  0.00    -0.183 OA
BRANCH  19  22
HETATM   22  N1  UNL     1      11.633 -13.095  23.448  1.00  0.00    -0.312 N
ATOM     23  H12 UNL     1      11.834 -12.320  24.080  1.00  0.00     0.170 HD
ATOM     24  H11 UNL     1      10.751 -13.605  23.402  1.00  0.00     0.170 HD
ENDBRANCH  19  22
ENDBRANCH  17  19
ENDBRANCH  16  17
ENDBRANCH  15  16
ENDBRANCH  14  15
ENDBRANCH  13  14
ENDBRANCH  12  13
ENDBRANCH  11  12
ENDBRANCH   9  11
ENDBRANCH   1   9
BRANCH   6  25
HETATM   25  N6  UNL     1      18.750 -14.359  22.578  1.00  0.00    -0.224 N
ATOM     26  H6  UNL     1      19.719 -14.186  22.846  1.00  0.00     0.177 HD
BRANCH  25  27
HETATM   27  C9  UNL     1      17.907 -15.271  23.373  1.00  0.00     0.144 C
BRANCH  27  28
HETATM   28  C10 UNL     1      18.851 -16.211  24.050  1.00  0.00     0.032 A
HETATM   29  C11 UNL     1      18.196 -16.821  25.325  1.00  0.00     0.037 A
HETATM   30  C12 UNL     1      19.486 -16.031  25.348  1.00  0.00     0.082 A
HETATM   31 CL1  UNL     1      20.918 -17.117  25.643  1.00  0.00    -0.115 Cl
BRANCH  30  32
HETATM   32  C13 UNL     1      19.613 -14.747  26.088  1.00  0.00     0.301 C
HETATM   33  F1  UNL     1      19.663 -15.108  27.461  1.00  0.00    -0.238 F
BRANCH  32  34
HETATM   34  C14 UNL     1      20.943 -14.040  25.883  1.00  0.00     0.419 C
HETATM   35  F2  UNL     1      21.405 -14.234  24.622  1.00  0.00    -0.168 F
HETATM   36  F3  UNL     1      21.816 -14.517  26.853  1.00  0.00    -0.168 F
HETATM   37  F4  UNL     1      20.819 -12.683  26.124  1.00  0.00    -0.168 F
ENDBRANCH  32  34
ENDBRANCH  30  32
ENDBRANCH  27  28
ENDBRANCH  25  27
ENDBRANCH   6  25
TORSDOF 15
ENDMDL