MODEL 5
REMARK VINA RESULT: -7.532155400      1.713      2.157
REMARK  12 active torsions:
REMARK  status: ('A' for Active; 'I' for Inactive)
REMARK    1  A    between atoms: C2_2  and  C4_4
REMARK    2  A    between atoms: C4_4  and  C5_5
REMARK    3  A    between atoms: C5_5  and  N1_6
REMARK    4  A    between atoms: C5_5  and  C17_28
REMARK       I    between atoms: N1_6  and  C6_8
REMARK    5  A    between atoms: C6_8  and  C7_10
REMARK    6  A    between atoms: C7_10  and  C8_11
REMARK    7  A    between atoms: C7_10  and  N3_23
REMARK    8  A    between atoms: C8_11  and  C9_12
REMARK    9  A    between atoms: C9_12  and  C10_13
REMARK   10  A    between atoms: C13_16  and  C14_17
REMARK       I    between atoms: C14_17  and  N2_19
REMARK       I    between atoms: N3_23  and  C16_25
REMARK   11  A    between atoms: C17_28  and  O4_30
REMARK   12  A    between atoms: C17_28  and  C19_32
ROOT
HETATM    1  C7  UNL     1      15.526 -15.735  21.699  1.00  0.00     0.178 C
ENDROOT
BRANCH   1   2
HETATM    2  C6  UNL     1      16.871 -15.947  22.312  1.00  0.00     0.240 C
HETATM    3  N1  UNL     1      17.060 -15.827  23.678  1.00  0.00    -0.351 N
ATOM      4  H1  UNL     1      16.244 -15.594  24.245  1.00  0.00     0.163 HD
HETATM    5  O1  UNL     1      17.780 -16.243  21.472  1.00  0.00    -0.271 OA
BRANCH   3   6
HETATM    6  C5  UNL     1      18.372 -16.013  24.394  1.00  0.00     0.128 C
BRANCH   6   7
HETATM    7  C4  UNL     1      18.840 -14.710  24.803  1.00  0.00     0.032 C
BRANCH   7   8
HETATM    8  C2  UNL     1      20.214 -14.316  25.084  1.00  0.00    -0.021 C
HETATM    9  C1  UNL     1      21.202 -15.402  24.509  1.00  0.00     0.009 C
HETATM   10  C3  UNL     1      20.604 -14.213  26.533  1.00  0.00     0.009 C
ENDBRANCH   7   8
ENDBRANCH   6   7
BRANCH   6  11
HETATM   11  C17 UNL     1      18.167 -17.184  25.231  1.00  0.00     0.172 C
HETATM   12  C18 UNL     1      18.704 -18.437  24.465  1.00  0.00     0.058 C
BRANCH  11  13
HETATM   13  O4  UNL     1      16.777 -17.508  25.298  1.00  0.00    -0.379 OA
ATOM     14  H4  UNL     1      16.597 -18.026  26.073  1.00  0.00     0.211 HD
ENDBRANCH  11  13
BRANCH  11  15
HETATM   15  C19 UNL     1      18.664 -17.350  26.593  1.00  0.00     0.419 C
HETATM   16  F2  UNL     1      17.990 -18.521  27.085  1.00  0.00    -0.168 F
HETATM   17  F3  UNL     1      18.181 -16.433  27.547  1.00  0.00    -0.168 F
HETATM   18  F4  UNL     1      19.978 -17.638  26.773  1.00  0.00    -0.168 F
ENDBRANCH  11  15
ENDBRANCH   6  11
ENDBRANCH   3   6
ENDBRANCH   1   2
BRANCH   1  19
HETATM   19  C8  UNL     1      15.471 -14.403  20.969  1.00  0.00     0.035 C
BRANCH  19  20
HETATM   20  C9  UNL     1      15.081 -13.299  21.885  1.00  0.00     0.012 C
BRANCH  20  21
HETATM   21  C10 UNL     1      13.747 -12.684  21.584  1.00  0.00    -0.031 A
HETATM   22  C11 UNL     1      12.507 -13.516  21.798  1.00  0.00     0.016 C
HETATM   23  C12 UNL     1      13.612 -11.702  20.458  1.00  0.00     0.025 A
HETATM   24  C13 UNL     1      13.646 -11.202  21.853  1.00  0.00     0.087 A
BRANCH  24  25
HETATM   25  C14 UNL     1      12.458 -10.655  22.534  1.00  0.00     0.228 C
HETATM   26  O2  UNL     1      11.559 -10.114  21.799  1.00  0.00    -0.273 OA
HETATM   27  N2  UNL     1      12.200 -10.658  23.909  1.00  0.00    -0.314 N
HETATM   28  C15 UNL     1      11.412 -11.589  24.395  1.00  0.00     0.283 C
ATOM     29  H2  UNL     1      12.614  -9.954  24.519  1.00  0.00     0.170 HD
HETATM   30  F1  UNL     1      11.099 -11.685  25.685  1.00  0.00    -0.201 F
ENDBRANCH  24  25
ENDBRANCH  20  21
ENDBRANCH  19  20
ENDBRANCH   1  19
BRANCH   1  31
HETATM   31  N3  UNL     1      15.163 -16.856  20.862  1.00  0.00    -0.332 N
HETATM   32  C16 UNL     1      14.141 -17.790  21.123  1.00  0.00     0.329 C
HETATM   33  N4  UNL     1      13.835 -18.877  20.266  1.00  0.00    -0.040 NA
HETATM   34  O3  UNL     1      13.436 -17.674  22.183  1.00  0.00    -0.251 OA
ATOM     35  H3  UNL     1      15.696 -16.984  20.003  1.00  0.00     0.164 HD
ENDBRANCH   1  31
TORSDOF 12
ENDMDL