MODEL 4
REMARK VINA RESULT: -7.363646296      4.031      8.345
REMARK  13 active torsions:
REMARK  status: ('A' for Active; 'I' for Inactive)
REMARK    1  A    between atoms: N1_1  and  N2_4
REMARK    2  A    between atoms: C1_6  and  C2_7
REMARK    3  A    between atoms: C1_6  and  N5_18
REMARK    4  A    between atoms: C2_7  and  C3_8
REMARK    5  A    between atoms: C3_8  and  C4_9
REMARK    6  A    between atoms: N4_11  and  C5_13
REMARK    7  A    between atoms: C5_13  and  C6_14
REMARK    8  A    between atoms: C6_14  and  C7_15
REMARK    9  A    between atoms: N5_18  and  C8_20
REMARK   10  A    between atoms: C8_20  and  C9_21
REMARK   11  A    between atoms: C8_20  and  C18_35
REMARK   12  A    between atoms: C10_22  and  C11_23
REMARK   13  A    between atoms: C13_25  and  N6_26
REMARK       I    between atoms: N6_26  and  C14_28
ROOT
HETATM    1  N5  UNL     1      21.725 -14.785  24.128  1.00  0.00    -0.368 N
ATOM      2  H5  UNL     1      21.844 -14.187  23.310  1.00  0.00     0.161 HD
ENDROOT
BRANCH   1   3
HETATM    3  C1  UNL     1      22.852 -15.501  24.604  1.00  0.00     0.092 C
HETATM    4  N2  UNL     1      24.002 -15.191  24.114  1.00  0.00    -0.296 N
ATOM      5  H2  UNL     1      24.026 -14.445  23.420  1.00  0.00     0.187 HD
BRANCH   4   6
HETATM    6  N1  UNL     1      25.202 -15.779  24.446  1.00  0.00    -0.344 N
ATOM      7  H12 UNL     1      25.243 -16.227  25.362  1.00  0.00     0.176 HD
ATOM      8  H11 UNL     1      26.035 -15.803  23.859  1.00  0.00     0.176 HD
ENDBRANCH   4   6
BRANCH   3   9
HETATM    9  C2  UNL     1      22.765 -16.565  25.602  1.00  0.00     0.084 C
BRANCH   9  10
HETATM   10  C3  UNL     1      22.191 -17.857  25.140  1.00  0.00     0.080 C
BRANCH  10  11
HETATM   11  C4  UNL     1      22.478 -18.160  23.715  1.00  0.00     0.089 C
HETATM   12  N3  UNL     1      23.803 -18.273  23.239  1.00  0.00    -0.088 NA
HETATM   13  N4  UNL     1      21.547 -18.329  22.837  1.00  0.00    -0.382 N
ATOM     14  H4  UNL     1      21.849 -18.533  21.884  1.00  0.00     0.160 HD
BRANCH  13  15
HETATM   15  C5  UNL     1      20.142 -18.260  23.061  1.00  0.00     0.126 C
BRANCH  15  16
HETATM   16  C6  UNL     1      19.431 -18.280  21.710  1.00  0.00     0.090 C
BRANCH  16  17
HETATM   17  C7  UNL     1      17.940 -18.321  21.892  1.00  0.00     0.354 C
HETATM   18  F1  UNL     1      17.653 -17.684  23.092  1.00  0.00    -0.214 F
HETATM   19  F2  UNL     1      17.296 -17.631  20.895  1.00  0.00    -0.214 F
ENDBRANCH  16  17
ENDBRANCH  15  16
ENDBRANCH  13  15
ENDBRANCH  10  11
ENDBRANCH   9  10
ENDBRANCH   3   9
ENDBRANCH   1   3
BRANCH   1  20
HETATM   20  C8  UNL     1      20.428 -14.853  24.732  1.00  0.00     0.134 C
BRANCH  20  21
HETATM   21  C9  UNL     1      19.310 -14.755  23.724  1.00  0.00    -0.003 C
HETATM   22  C10 UNL     1      19.526 -14.594  22.455  1.00  0.00    -0.022 C
BRANCH  22  23
HETATM   23  C11 UNL     1      18.537 -14.481  21.359  1.00  0.00     0.028 C
HETATM   24  C12 UNL     1      17.180 -14.588  21.992  1.00  0.00     0.035 C
HETATM   25  C13 UNL     1      16.038 -14.105  21.160  1.00  0.00     0.086 C
HETATM   26  C15 UNL     1      16.377 -13.984  19.711  1.00  0.00     0.027 C
HETATM   27  C16 UNL     1      17.620 -13.213  19.447  1.00  0.00     0.023 C
HETATM   28  C17 UNL     1      18.638 -13.234  20.556  1.00  0.00     0.090 C
HETATM   29 CL1  UNL     1      20.237 -13.195  19.707  1.00  0.00    -0.124 Cl
BRANCH  25  30
HETATM   30  N6  UNL     1      15.594 -12.794  21.649  1.00  0.00    -0.341 N
HETATM   31  C14 UNL     1      14.233 -12.428  21.573  1.00  0.00     0.329 C
HETATM   32  N7  UNL     1      13.817 -11.165  22.045  1.00  0.00    -0.040 NA
HETATM   33  O1  UNL     1      13.399 -13.218  21.091  1.00  0.00    -0.251 OA
ATOM     34  H6  UNL     1      16.273 -12.144  22.045  1.00  0.00     0.164 HD
ENDBRANCH  25  30
ENDBRANCH  22  23
ENDBRANCH  20  21
BRANCH  20  35
HETATM   35  C18 UNL     1      20.208 -13.877  25.856  1.00  0.00     0.251 C
HETATM   36  F3  UNL     1      20.171 -14.538  27.050  1.00  0.00    -0.253 F
ENDBRANCH  20  35
ENDBRANCH   1  20
TORSDOF 13
ENDMDL