MODEL 1
REMARK VINA RESULT: -8.222190080      0.000      0.000
REMARK  9 active torsions:
REMARK  status: ('A' for Active; 'I' for Inactive)
REMARK    1  A    between atoms: C2_2  and  C4_4
REMARK    2  A    between atoms: C4_4  and  C5_5
REMARK    3  A    between atoms: C5_5  and  N1_6
REMARK    4  A    between atoms: C5_5  and  C9_16
REMARK       I    between atoms: N1_6  and  C6_8
REMARK    5  A    between atoms: C6_8  and  C7_10
REMARK    6  A    between atoms: C7_10  and  C8_13
REMARK       I    between atoms: C9_16  and  N2_18
REMARK    7  A    between atoms: N2_18  and  C10_20
REMARK    8  A    between atoms: C15_25  and  C16_26
REMARK    9  A    between atoms: C17_29  and  N4_30
REMARK       I    between atoms: N4_30  and  C18_32
ROOT
HETATM    1  C9  UNL     1      16.199 -13.531  22.012  1.00  0.00     0.240 C
HETATM    2  O2  UNL     1      16.843 -12.482  21.847  1.00  0.00    -0.271 OA
HETATM    3  N2  UNL     1      16.710 -14.576  22.815  1.00  0.00    -0.353 N
ATOM      4  H2  UNL     1      16.154 -15.424  22.928  1.00  0.00     0.163 HD
ENDROOT
BRANCH   1   5
HETATM    5  C5  UNL     1      14.853 -13.714  21.359  1.00  0.00     0.177 C
BRANCH   5   6
HETATM    6  C4  UNL     1      14.631 -15.187  21.272  1.00  0.00     0.038 C
BRANCH   6   7
HETATM    7  C2  UNL     1      14.091 -15.682  19.964  1.00  0.00    -0.020 C
HETATM    8  C1  UNL     1      14.584 -14.886  18.792  1.00  0.00     0.009 C
HETATM    9  C3  UNL     1      12.614 -15.830  19.896  1.00  0.00     0.009 C
ENDBRANCH   6   7
ENDBRANCH   5   6
BRANCH   5  10
HETATM   10  N1  UNL     1      13.876 -13.009  22.148  1.00  0.00    -0.343 N
HETATM   11  C6  UNL     1      13.481 -11.716  21.746  1.00  0.00     0.297 C
HETATM   12  O1  UNL     1      13.963 -11.179  20.721  1.00  0.00    -0.266 OA
ATOM     13  H1  UNL     1      13.477 -13.437  22.983  1.00  0.00     0.163 HD
BRANCH  11  14
HETATM   14  C7  UNL     1      12.489 -10.972  22.530  1.00  0.00     0.379 C
HETATM   15  F1  UNL     1      13.081 -10.022  23.351  1.00  0.00    -0.189 F
HETATM   16  F2  UNL     1      11.602 -10.335  21.698  1.00  0.00    -0.189 F
BRANCH  14  17
HETATM   17  C8  UNL     1      11.737 -11.904  23.483  1.00  0.00     0.434 C
HETATM   18  F3  UNL     1      11.062 -11.231  24.455  1.00  0.00    -0.207 F
HETATM   19  F4  UNL     1      10.916 -12.709  22.705  1.00  0.00    -0.207 F
ENDBRANCH  14  17
ENDBRANCH  11  14
ENDBRANCH   5  10
ENDBRANCH   1   5
BRANCH   3  20
HETATM   20  C10 UNL     1      17.996 -14.489  23.483  1.00  0.00     0.108 C
HETATM   21  C11 UNL     1      17.940 -15.086  24.881  1.00  0.00     0.036 C
HETATM   22  C12 UNL     1      19.400 -15.544  25.029  1.00  0.00    -0.032 C
HETATM   23  C13 UNL     1      19.530 -16.503  26.205  1.00  0.00     0.016 C
HETATM   24  C14 UNL     1      20.196 -14.330  25.331  1.00  0.00     0.016 C
HETATM   25  C15 UNL     1      19.617 -16.205  23.720  1.00  0.00     0.107 C
HETATM   26  C17 UNL     1      19.002 -15.278  22.699  1.00  0.00     0.121 C
BRANCH  25  27
HETATM   27  C16 UNL     1      20.957 -16.671  23.413  1.00  0.00     0.238 C
HETATM   28  N3  UNL     1      21.312 -17.915  22.833  1.00  0.00    -0.062 NA
HETATM   29  O3  UNL     1      21.967 -15.925  23.671  1.00  0.00    -0.276 OA
ENDBRANCH  25  27
BRANCH  26  30
HETATM   30  N4  UNL     1      19.940 -14.454  22.002  1.00  0.00    -0.338 N
HETATM   31  C18 UNL     1      19.685 -13.950  20.705  1.00  0.00     0.329 C
HETATM   32  N5  UNL     1      20.655 -13.136  20.063  1.00  0.00    -0.040 NA
HETATM   33  O4  UNL     1      18.621 -14.189  20.075  1.00  0.00    -0.251 OA
ATOM     34  H4  UNL     1      20.823 -14.222  22.456  1.00  0.00     0.164 HD
ENDBRANCH  26  30
ENDBRANCH   3  20
TORSDOF 9
ENDMDL