MODEL 4
REMARK VINA RESULT: -8.191678029      0.980      1.308
REMARK  12 active torsions:
REMARK  status: ('A' for Active; 'I' for Inactive)
REMARK    1  A    between atoms: N1_2  and  C2_4
REMARK    2  A    between atoms: C2_4  and  C3_8
REMARK    3  A    between atoms: C3_8  and  C4_9
REMARK    4  A    between atoms: C4_9  and  N3_10
REMARK    5  A    between atoms: C4_9  and  C15_29
REMARK       I    between atoms: N3_10  and  C5_12
REMARK       I    between atoms: C5_12  and  N4_14
REMARK    6  A    between atoms: N4_14  and  C6_16
REMARK    7  A    between atoms: C6_16  and  C7_17
REMARK    8  A    between atoms: C7_17  and  C8_18
REMARK    9  A    between atoms: C8_18  and  C9_19
REMARK       I    between atoms: C9_19  and  N5_21
REMARK       I    between atoms: C15_29  and  N6_31
REMARK   10  A    between atoms: N6_31  and  C16_33
REMARK   11  A    between atoms: C16_33  and  C17_34
REMARK   12  A    between atoms: C17_34  and  C18_35
ROOT
HETATM    1  N3  UNL     1      14.099 -12.171  21.694  1.00  0.00    -0.329 N
ATOM      2  H3  UNL     1      13.932 -11.400  21.048  1.00  0.00     0.165 HD
HETATM    3  C5  UNL     1      15.417 -12.614  21.846  1.00  0.00     0.316 C
HETATM    4  O1  UNL     1      15.725 -13.549  22.612  1.00  0.00    -0.247 OA
HETATM    5  N4  UNL     1      16.455 -11.978  21.105  1.00  0.00    -0.343 N
ATOM      6  H4  UNL     1      16.236 -11.209  20.470  1.00  0.00     0.164 HD
ENDROOT
BRANCH   1   7
HETATM    7  C4  UNL     1      12.949 -12.730  22.390  1.00  0.00     0.185 C
BRANCH   7   8
HETATM    8  C3  UNL     1      11.898 -11.677  22.374  1.00  0.00     0.110 C
BRANCH   8   9
HETATM    9  C2  UNL     1      11.665 -10.925  23.607  1.00  0.00     0.072 C
HETATM   10  N2  UNL     1      10.739 -11.263  24.413  1.00  0.00    -0.389 N
ATOM     11  H22 UNL     1      10.577 -10.738  25.272  1.00  0.00     0.157 HD
ATOM     12  H21 UNL     1      10.171 -12.078  24.182  1.00  0.00     0.157 HD
BRANCH   9  13
HETATM   13  N1  UNL     1      12.449  -9.800  23.924  1.00  0.00    -0.384 N
HETATM   14  C1  UNL     1      11.890  -8.833  24.852  1.00  0.00     0.147 C
ATOM     15  H1  UNL     1      13.375  -9.669  23.518  1.00  0.00     0.160 HD
ENDBRANCH   9  13
ENDBRANCH   8   9
ENDBRANCH   7   8
BRANCH   7  16
HETATM   16  C15 UNL     1      12.650 -14.024  21.808  1.00  0.00     0.240 C
HETATM   17  O3  UNL     1      12.055 -14.079  20.672  1.00  0.00    -0.271 OA
HETATM   18  N6  UNL     1      12.940 -15.304  22.348  1.00  0.00    -0.359 N
ATOM     19  H6  UNL     1      13.416 -15.360  23.248  1.00  0.00     0.162 HD
BRANCH  18  20
HETATM   20  C16 UNL     1      12.590 -16.520  21.678  1.00  0.00     0.128 C
BRANCH  20  21
HETATM   21  C17 UNL     1      13.718 -17.344  21.201  1.00  0.00     0.090 C
BRANCH  21  22
HETATM   22  C18 UNL     1      14.301 -16.831  19.924  1.00  0.00     0.354 C
HETATM   23  F3  UNL     1      13.226 -16.435  19.120  1.00  0.00    -0.214 F
HETATM   24  F4  UNL     1      15.187 -15.825  20.147  1.00  0.00    -0.214 F
ENDBRANCH  21  22
ENDBRANCH  20  21
ENDBRANCH  18  20
ENDBRANCH   7  16
ENDBRANCH   1   7
BRANCH   5  25
HETATM   25  C6  UNL     1      17.801 -12.425  21.256  1.00  0.00     0.125 C
BRANCH  25  26
HETATM   26  C7  UNL     1      18.129 -13.600  20.360  1.00  0.00     0.029 C
BRANCH  26  27
HETATM   27  C8  UNL     1      18.193 -14.872  21.177  1.00  0.00     0.104 C
BRANCH  27  28
HETATM   28  C9  UNL     1      19.474 -14.998  21.899  1.00  0.00     0.219 C
HETATM   29  O2  UNL     1      20.519 -15.106  21.217  1.00  0.00    -0.273 OA
HETATM   30  N5  UNL     1      19.479 -14.991  23.319  1.00  0.00    -0.352 N
HETATM   31  C10 UNL     1      18.264 -14.865  24.085  1.00  0.00     0.131 C
HETATM   32  C14 UNL     1      20.733 -15.117  24.029  1.00  0.00     0.131 C
HETATM   33  C11 UNL     1      18.214 -15.878  25.217  1.00  0.00     0.099 C
HETATM   34  C12 UNL     1      19.521 -15.866  26.008  1.00  0.00     0.246 C
HETATM   35  F1  UNL     1      19.701 -14.610  26.525  1.00  0.00    -0.206 F
HETATM   36  F2  UNL     1      19.414 -16.801  26.999  1.00  0.00    -0.206 F
HETATM   37  C13 UNL     1      20.622 -16.228  25.037  1.00  0.00     0.099 C
ENDBRANCH  27  28
ENDBRANCH  26  27
ENDBRANCH  25  26
ENDBRANCH   5  25
TORSDOF 12
ENDMDL