MODEL 3
REMARK VINA RESULT: -7.232805767      2.844      4.047
REMARK  11 active torsions:
REMARK  status: ('A' for Active; 'I' for Inactive)
REMARK       I    between atoms: C1_4  and  N3_6
REMARK    1  A    between atoms: C3_8  and  C4_9
REMARK    2  A    between atoms: C3_8  and  C15_26
REMARK    3  A    between atoms: C4_9  and  O1_10
REMARK    4  A    between atoms: C4_9  and  C5_12
REMARK    5  A    between atoms: C5_12  and  C6_13
REMARK    6  A    between atoms: N5_18  and  C9_19
REMARK    7  A    between atoms: C9_19  and  C10_20
REMARK    8  A    between atoms: C10_20  and  C11_21
REMARK    9  A    between atoms: C11_21  and  C12_22
REMARK   10  A    between atoms: C12_22  and  C13_23
REMARK   11  A    between atoms: C13_23  and  C14_24
ROOT
HETATM    1  C4  UNL     1      14.445 -14.210  21.736  1.00  0.00     0.161 C
ENDROOT
BRANCH   1   2
HETATM    2  C3  UNL     1      13.737 -13.010  21.216  1.00  0.00     0.191 C
HETATM    3  C2  UNL     1      12.225 -13.066  21.313  1.00  0.00     0.188 C
HETATM    4  N3  UNL     1      12.367 -12.304  22.551  1.00  0.00    -0.265 N
HETATM    5  C1  UNL     1      11.527 -12.007  23.648  1.00  0.00     0.200 C
HETATM    6  N6  UNL     1      13.690 -11.969  22.226  1.00  0.00    -0.112 NA
HETATM    7  N1  UNL     1      10.682 -12.874  24.046  1.00  0.00    -0.373 N
HETATM    8  N2  UNL     1      11.621 -10.759  24.299  1.00  0.00    -0.062 NA
ATOM      9  H12 UNL     1      10.076 -12.660  24.838  1.00  0.00     0.158 HD
ATOM     10  H11 UNL     1      10.613 -13.776  23.575  1.00  0.00     0.158 HD
BRANCH   2  11
HETATM   11  C15 UNL     1      14.168 -12.481  19.883  1.00  0.00     0.415 C
HETATM   12  F1  UNL     1      14.128 -13.546  18.980  1.00  0.00    -0.168 F
HETATM   13  F2  UNL     1      13.356 -11.503  19.394  1.00  0.00    -0.168 F
HETATM   14  F3  UNL     1      15.513 -12.090  19.922  1.00  0.00    -0.168 F
ENDBRANCH   2  11
ENDBRANCH   1   2
BRANCH   1  15
HETATM   15  O1  UNL     1      15.172 -13.867  22.858  1.00  0.00    -0.393 OA
ATOM     16  H1  UNL     1      14.613 -13.403  23.469  1.00  0.00     0.210 HD
ENDBRANCH   1  15
BRANCH   1  17
HETATM   17  C5  UNL     1      13.530 -15.362  22.069  1.00  0.00     0.092 C
BRANCH  17  18
HETATM   18  C6  UNL     1      13.674 -16.372  20.982  1.00  0.00     0.030 A
HETATM   19  C7  UNL     1      12.731 -16.474  19.936  1.00  0.00     0.114 A
HETATM   20  N4  UNL     1      13.096 -17.441  19.096  1.00  0.00    -0.360 N
HETATM   21  C8  UNL     1      14.225 -17.944  19.577  1.00  0.00     0.183 A
ATOM     22  H4  UNL     1      12.605 -17.736  18.253  1.00  0.00     0.166 HD
HETATM   23  N5  UNL     1      14.578 -17.296  20.727  1.00  0.00    -0.345 N
BRANCH  23  24
HETATM   24  C9  UNL     1      15.720 -17.663  21.525  1.00  0.00     0.130 C
BRANCH  24  25
HETATM   25  C10 UNL     1      16.916 -16.794  21.320  1.00  0.00     0.020 C
BRANCH  25  26
HETATM   26  C11 UNL     1      17.643 -16.420  22.555  1.00  0.00     0.002 C
BRANCH  26  27
HETATM   27  C12 UNL     1      18.458 -15.145  22.327  1.00  0.00     0.001 C
BRANCH  27  28
HETATM   28  C13 UNL     1      18.046 -14.552  20.991  1.00  0.00     0.011 C
BRANCH  28  29
HETATM   29  C14 UNL     1      18.557 -13.160  20.808  1.00  0.00     0.085 C
HETATM   30 BR1  UNL     1      20.224 -13.226  19.852  1.00  0.00    -0.097 Br
ENDBRANCH  28  29
ENDBRANCH  27  28
ENDBRANCH  26  27
ENDBRANCH  25  26
ENDBRANCH  24  25
ENDBRANCH  23  24
ENDBRANCH  17  18
ENDBRANCH   1  17
TORSDOF 11
ENDMDL