MODEL 3
REMARK VINA RESULT: -7.158095922      2.763      3.234
REMARK  12 active torsions:
REMARK  status: ('A' for Active; 'I' for Inactive)
REMARK       I    between atoms: C1_4  and  N3_6
REMARK    1  A    between atoms: N3_6  and  C2_8
REMARK    2  A    between atoms: C2_8  and  C3_9
REMARK    3  A    between atoms: C2_8  and  C8_15
REMARK    4  A    between atoms: C3_9  and  C4_10
REMARK    5  A    between atoms: C4_10  and  C5_11
REMARK    6  A    between atoms: C5_11  and  C6_12
REMARK    7  A    between atoms: C6_12  and  C7_13
REMARK    8  A    between atoms: C8_15  and  N4_16
REMARK    9  A    between atoms: C8_15  and  N5_19
REMARK   10  A    between atoms: N5_19  and  C9_21
REMARK   11  A    between atoms: C9_21  and  C10_23
REMARK       I    between atoms: C10_23  and  N6_25
REMARK   12  A    between atoms: C14_30  and  C15_31
ROOT
HETATM    1  C8  UNL     1      14.192 -12.598  19.717  1.00  0.00     0.124 C
ENDROOT
BRANCH   1   2
HETATM    2  C2  UNL     1      13.249 -12.152  20.685  1.00  0.00     0.074 C
BRANCH   2   3
HETATM    3  N3  UNL     1      12.712 -13.198  21.584  1.00  0.00    -0.328 N
HETATM    4  C1  UNL     1      12.628 -14.560  21.312  1.00  0.00     0.186 C
HETATM    5  N1  UNL     1      13.097 -15.347  22.273  1.00  0.00    -0.373 N
HETATM    6  N2  UNL     1      12.130 -15.226  20.188  1.00  0.00    -0.064 NA
ATOM      7  H12 UNL     1      13.036 -16.345  22.074  1.00  0.00     0.158 HD
ATOM      8  H11 UNL     1      13.461 -14.860  23.093  1.00  0.00     0.158 HD
ATOM      9  H3  UNL     1      12.370 -12.889  22.493  1.00  0.00     0.168 HD
ENDBRANCH   2   3
BRANCH   2  10
HETATM   10  C3  UNL     1      13.396 -10.951  21.507  1.00  0.00     0.007 C
BRANCH  10  11
HETATM   11  C4  UNL     1      12.292 -10.296  22.197  1.00  0.00     0.029 C
BRANCH  11  12
HETATM   12  C5  UNL     1      12.517  -9.798  23.589  1.00  0.00     0.006 C
BRANCH  12  13
HETATM   13  C6  UNL     1      11.389 -10.203  24.531  1.00  0.00     0.032 C
BRANCH  13  14
HETATM   14  C7  UNL     1      11.186 -11.692  24.586  1.00  0.00     0.222 C
HETATM   15  F1  UNL     1      11.146 -12.069  25.932  1.00  0.00    -0.255 F
ENDBRANCH  13  14
ENDBRANCH  12  13
ENDBRANCH  11  12
ENDBRANCH  10  11
ENDBRANCH   2  10
ENDBRANCH   1   2
BRANCH   1  16
HETATM   16  N4  UNL     1      14.375 -12.115  18.563  1.00  0.00    -0.384 N
ATOM     17  H42 UNL     1      13.648 -11.452  18.297  1.00  0.00     0.157 HD
ATOM     18  H41 UNL     1      15.137 -12.340  17.924  1.00  0.00     0.157 HD
ENDBRANCH   1  16
BRANCH   1  19
HETATM   19  N5  UNL     1      15.094 -13.705  20.010  1.00  0.00    -0.337 N
ATOM     20  H5  UNL     1      14.734 -14.654  19.909  1.00  0.00     0.164 HD
BRANCH  19  21
HETATM   21  C9  UNL     1      16.443 -13.544  20.429  1.00  0.00     0.364 C
HETATM   22  F2  UNL     1      16.731 -12.176  20.353  1.00  0.00    -0.216 F
BRANCH  21  23
HETATM   23  C10 UNL     1      16.658 -14.033  21.806  1.00  0.00     0.274 C
HETATM   24  O1  UNL     1      15.768 -13.696  22.660  1.00  0.00    -0.268 OA
HETATM   25  N6  UNL     1      17.743 -14.828  22.236  1.00  0.00    -0.340 N
HETATM   26  C11 UNL     1      17.869 -15.289  23.623  1.00  0.00     0.163 C
HETATM   27  C14 UNL     1      18.850 -15.339  21.476  1.00  0.00     0.100 C
HETATM   28  C12 UNL     1      18.654 -16.553  23.540  1.00  0.00     0.190 C
HETATM   29  F3  UNL     1      17.891 -17.656  23.880  1.00  0.00    -0.248 F
HETATM   30  C13 UNL     1      19.084 -16.717  22.096  1.00  0.00     0.065 C
BRANCH  27  31
HETATM   31  C15 UNL     1      20.096 -14.520  21.504  1.00  0.00     0.110 C
HETATM   32 BR1  UNL     1      20.251 -13.255  20.060  1.00  0.00    -0.094 Br
ENDBRANCH  27  31
ENDBRANCH  21  23
ENDBRANCH  19  21
ENDBRANCH   1  19
TORSDOF 12
ENDMDL