MODEL 4
REMARK VINA RESULT: -7.044872070      2.906      3.594
REMARK  11 active torsions:
REMARK  status: ('A' for Active; 'I' for Inactive)
REMARK    1  A    between atoms: C1_2  and  C2_4
REMARK    2  A    between atoms: C2_4  and  C3_5
REMARK    3  A    between atoms: C2_4  and  N3_12
REMARK    4  A    between atoms: N2_6  and  C4_8
REMARK    5  A    between atoms: C4_8  and  C5_10
REMARK       I    between atoms: N3_12  and  C6_14
REMARK       I    between atoms: C6_14  and  N4_16
REMARK    6  A    between atoms: N4_16  and  C7_18
REMARK    7  A    between atoms: C7_18  and  C8_19
REMARK    8  A    between atoms: C7_18  and  C13_28
REMARK    9  A    between atoms: C8_19  and  C9_20
REMARK   10  A    between atoms: C9_20  and  C10_21
REMARK   11  A    between atoms: C10_21  and  N5_22
ROOT
HETATM    1  N3  UNL     1      14.808 -15.348  21.239  1.00  0.00    -0.326 N
ATOM      2  H3  UNL     1      15.015 -16.005  20.486  1.00  0.00     0.165 HD
HETATM    3  C6  UNL     1      15.806 -14.495  21.711  1.00  0.00     0.317 C
HETATM    4  O2  UNL     1      15.530 -13.678  22.655  1.00  0.00    -0.247 OA
HETATM    5  N4  UNL     1      17.101 -14.524  21.164  1.00  0.00    -0.336 N
ATOM      6  H4  UNL     1      17.302 -15.183  20.411  1.00  0.00     0.164 HD
ENDROOT
BRANCH   1   7
HETATM    7  C2  UNL     1      13.437 -15.303  21.831  1.00  0.00     0.213 C
BRANCH   7   8
HETATM    8  C1  UNL     1      12.961 -16.678  21.742  1.00  0.00     0.259 C
HETATM    9  N1  UNL     1      11.907 -17.052  20.873  1.00  0.00    -0.060 NA
HETATM   10  O1  UNL     1      13.467 -17.608  22.451  1.00  0.00    -0.274 OA
ENDBRANCH   7   8
BRANCH   7  11
HETATM   11  C3  UNL     1      12.706 -14.281  21.027  1.00  0.00     0.092 C
HETATM   12  N2  UNL     1      12.612 -12.959  21.322  1.00  0.00    -0.370 N
ATOM     13  H2  UNL     1      13.149 -12.343  20.712  1.00  0.00     0.161 HD
BRANCH  12  14
HETATM   14  C4  UNL     1      11.903 -12.320  22.319  1.00  0.00     0.278 C
HETATM   15  F1  UNL     1      12.124 -13.120  23.509  1.00  0.00    -0.226 F
BRANCH  14  16
HETATM   16  C5  UNL     1      12.526 -10.985  22.753  1.00  0.00     0.144 C
HETATM   17 BR1  UNL     1      11.537 -10.332  24.292  1.00  0.00    -0.092 Br
ENDBRANCH  14  16
ENDBRANCH  12  14
ENDBRANCH   7  11
ENDBRANCH   1   7
BRANCH   5  18
HETATM   18  C7  UNL     1      18.173 -13.641  21.638  1.00  0.00     0.119 C
BRANCH  18  19
HETATM   19  C8  UNL     1      19.100 -14.479  22.403  1.00  0.00     0.030 C
BRANCH  19  20
HETATM   20  C9  UNL     1      18.853 -14.744  23.833  1.00  0.00     0.041 C
BRANCH  20  21
HETATM   21  C10 UNL     1      20.229 -14.699  24.531  1.00  0.00     0.124 A
HETATM   22  C11 UNL     1      20.308 -15.353  25.860  1.00  0.00     0.041 A
HETATM   23  C12 UNL     1      20.452 -13.901  25.731  1.00  0.00     0.041 A
BRANCH  21  24
HETATM   24  N5  UNL     1      21.342 -14.966  23.657  1.00  0.00    -0.070 N
ATOM     25  H53 UNL     1      22.222 -14.905  24.170  1.00  0.00     0.275 HD
ATOM     26  H52 UNL     1      21.363 -15.952  23.397  1.00  0.00     0.275 HD
ATOM     27  H51 UNL     1      21.372 -14.376  22.825  1.00  0.00     0.275 HD
ENDBRANCH  21  24
ENDBRANCH  20  21
ENDBRANCH  19  20
ENDBRANCH  18  19
BRANCH  18  28
HETATM   28  C13 UNL     1      18.662 -12.929  20.432  1.00  0.00     0.201 C
HETATM   29 CL1  UNL     1      20.315 -13.276  19.945  1.00  0.00    -0.106 Cl
HETATM   30 CL2  UNL     1      17.527 -13.051  19.059  1.00  0.00    -0.106 Cl
ENDBRANCH  18  28
ENDBRANCH   5  18
TORSDOF 11
ENDMDL