MODEL 5
REMARK VINA RESULT: -5.216432839      0.861      1.111
REMARK  6 active torsions:
REMARK  status: ('A' for Active; 'I' for Inactive)
REMARK    1  A    between atoms: C3_3  and  C4_4
REMARK    2  A    between atoms: C5_5  and  C6_6
REMARK    3  A    between atoms: C6_6  and  C7_7
REMARK    4  A    between atoms: C7_7  and  N1_8
REMARK       I    between atoms: N1_8  and  C8_10
REMARK       I    between atoms: C8_10  and  N3_14
REMARK    5  A    between atoms: N3_14  and  C9_16
REMARK    6  A    between atoms: C9_16  and  C10_17
ROOT
HETATM    1  C1  UNL     1      33.563   4.693  28.226  1.00  0.00     0.113 C
HETATM    2  C2  UNL     1      32.219   5.269  28.331  1.00  0.00    -0.097 C
HETATM    3  C3  UNL     1      31.112   5.756  28.434  1.00  0.00    -0.015 C
ENDROOT
BRANCH   3   4
HETATM    4  C4  UNL     1      29.827   6.341  28.556  1.00  0.00    -0.015 C
HETATM    5  C5  UNL     1      28.738   6.861  28.656  1.00  0.00    -0.091 C
BRANCH   5   6
HETATM    6  C6  UNL     1      27.412   7.512  28.754  1.00  0.00     0.115 C
BRANCH   6   7
HETATM    7  C7  UNL     1      27.504   8.545  29.869  1.00  0.00     0.150 C
BRANCH   7   8
HETATM    8  N1  UNL     1      28.762   9.254  29.818  1.00  0.00    -0.226 N
HETATM    9  C8  UNL     1      29.556   9.569  30.927  1.00  0.00     0.667 C
HETATM   10  N2  UNL     1      29.070   9.521  32.109  1.00  0.00    -0.235 N
HETATM   11  N3  UNL     1      30.909   9.941  30.700  1.00  0.00    -0.225 N
ATOM     12  H22 UNL     1      28.100   9.254  32.272  1.00  0.00     0.174 HD
ATOM     13  H21 UNL     1      29.649   9.749  32.918  1.00  0.00     0.174 HD
ATOM     14  H3  UNL     1      31.388   9.673  29.840  1.00  0.00     0.177 HD
ATOM     15  H1  UNL     1      29.097   9.549  28.901  1.00  0.00     0.177 HD
BRANCH  11  16
HETATM   16  C9  UNL     1      31.589  10.709  31.719  1.00  0.00     0.171 C
BRANCH  16  17
HETATM   17  C10 UNL     1      31.308  12.189  31.544  1.00  0.00     0.209 C
HETATM   18  C11 UNL     1      31.731  13.026  32.740  1.00  0.00     0.063 C
HETATM   19  C12 UNL     1      32.589  13.783  31.736  1.00  0.00     0.239 C
HETATM   20  N4  UNL     1      32.253  12.848  30.689  1.00  0.00    -0.069 N
HETATM   21  C13 UNL     1      31.578  13.463  29.547  1.00  0.00     0.272 C
HETATM   22  C14 UNL     1      33.387  12.031  30.259  1.00  0.00     0.272 C
ENDBRANCH  16  17
ENDBRANCH  11  16
ENDBRANCH   7   8
ENDBRANCH   6   7
ENDBRANCH   5   6
ENDBRANCH   3   4
TORSDOF 6
ENDMDL