MODEL 4
REMARK VINA RESULT: -5.068970697      2.970      5.441
REMARK  4 active torsions:
REMARK  status: ('A' for Active; 'I' for Inactive)
REMARK    1  A    between atoms: C2_2  and  N1_3
REMARK       I    between atoms: N1_3  and  C3_5
REMARK       I    between atoms: C3_5  and  N3_9
REMARK    2  A    between atoms: N3_9  and  C4_11
REMARK    3  A    between atoms: C9_17  and  C10_18
REMARK    4  A    between atoms: C10_18  and  N5_19
ROOT
HETATM    1  C4  UNL     1      29.812   6.926  29.430  1.00  0.00     0.146 C
HETATM    2  C5  UNL     1      28.886   6.032  30.214  1.00  0.00     0.033 C
HETATM    3  C6  UNL     1      27.440   6.400  30.063  1.00  0.00     0.022 C
HETATM    4  C7  UNL     1      27.255   7.044  28.712  1.00  0.00     0.122 C
HETATM    5  N4  UNL     1      27.938   8.315  28.780  1.00  0.00    -0.389 N
HETATM    6  C8  UNL     1      27.263   9.510  28.479  1.00  0.00     0.149 C
HETATM    7  C9  UNL     1      29.193   8.248  29.134  1.00  0.00     0.034 C
ENDROOT
BRANCH   1   8
HETATM    8  N3  UNL     1      30.277   6.212  28.278  1.00  0.00    -0.217 N
HETATM    9  C3  UNL     1      31.703   6.125  28.097  1.00  0.00     0.668 C
HETATM   10  N1  UNL     1      32.376   4.896  27.920  1.00  0.00    -0.227 N
HETATM   11  N2  UNL     1      32.386   7.208  28.099  1.00  0.00    -0.235 N
ATOM     12  H1  UNL     1      31.948   4.051  28.299  1.00  0.00     0.177 HD
ATOM     13  H22 UNL     1      33.396   7.146  27.970  1.00  0.00     0.174 HD
ATOM     14  H21 UNL     1      31.901   8.096  28.227  1.00  0.00     0.174 HD
ATOM     15  H3  UNL     1      29.629   5.784  27.617  1.00  0.00     0.178 HD
BRANCH  10  16
HETATM   16  C2  UNL     1      33.641   4.773  27.228  1.00  0.00     0.133 C
HETATM   17  C1  UNL     1      34.788   4.652  28.236  1.00  0.00     0.027 C
ENDBRANCH  10  16
ENDBRANCH   1   8
BRANCH   7  18
HETATM   18  C10 UNL     1      29.908   9.508  29.239  1.00  0.00     0.290 C
BRANCH  18  19
HETATM   19  N5  UNL     1      30.084  10.117  30.508  1.00  0.00    -0.074 N
HETATM   20  C11 UNL     1      31.395  10.049  31.068  1.00  0.00     0.272 C
HETATM   21  C12 UNL     1      29.803  11.572  30.369  1.00  0.00     0.272 C
HETATM   22  C13 UNL     1      29.132   9.681  31.521  1.00  0.00     0.272 C
ENDBRANCH  18  19
ENDBRANCH   7  18
TORSDOF 4
ENDMDL