MODEL 5
REMARK VINA RESULT: -5.209709160      1.466      1.786
REMARK  7 active torsions:
REMARK  status: ('A' for Active; 'I' for Inactive)
REMARK    1  A    between atoms: C4_8  and  C5_9
REMARK    2  A    between atoms: C5_9  and  C6_10
REMARK    3  A    between atoms: C6_10  and  N3_11
REMARK    4  A    between atoms: C6_10  and  C7_15
REMARK    5  A    between atoms: C7_15  and  N4_16
REMARK    6  A    between atoms: N4_16  and  C8_18
REMARK    7  A    between atoms: C8_18  and  N5_20
ROOT
HETATM    1  C6  UNL     1      28.754  11.413  30.876  1.00  0.00     0.203 C
ENDROOT
BRANCH   1   2
HETATM    2  C5  UNL     1      30.196  11.036  30.809  1.00  0.00     0.061 C
BRANCH   2   3
HETATM    3  C4  UNL     1      31.079  11.678  31.824  1.00  0.00     0.110 C
HETATM    4  C2  UNL     1      32.073  12.557  31.050  1.00  0.00     0.046 C
HETATM    5  C1  UNL     1      32.508  13.745  31.843  1.00  0.00     0.018 C
HETATM    6  C3  UNL     1      33.178  11.539  30.853  1.00  0.00     0.086 C
HETATM    7  N1  UNL     1      33.015  10.702  31.973  1.00  0.00    -0.319 N
HETATM    8  N2  UNL     1      31.920  10.749  32.511  1.00  0.00    -0.332 N
ATOM      9  H1  UNL     1      33.762  10.097  32.313  1.00  0.00     0.185 HD
ATOM     10  H2  UNL     1      31.647  10.206  33.330  1.00  0.00     0.180 HD
ENDBRANCH   2   3
ENDBRANCH   1   2
BRANCH   1  11
HETATM   11  N3  UNL     1      28.651  12.554  31.788  1.00  0.00    -0.073 N
ATOM     12  H33 UNL     1      27.721  12.661  32.192  1.00  0.00     0.274 HD
ATOM     13  H32 UNL     1      29.158  12.415  32.662  1.00  0.00     0.274 HD
ATOM     14  H31 UNL     1      28.961  13.377  31.272  1.00  0.00     0.274 HD
ENDBRANCH   1  11
BRANCH   1  15
HETATM   15  C7  UNL     1      27.936  10.259  31.346  1.00  0.00     0.154 C
BRANCH  15  16
HETATM   16  N4  UNL     1      28.599   8.992  31.221  1.00  0.00    -0.364 N
ATOM     17  H4  UNL     1      29.369   8.764  31.851  1.00  0.00     0.162 HD
BRANCH  16  18
HETATM   18  C8  UNL     1      28.205   8.058  30.241  1.00  0.00     0.186 C
HETATM   19  S1  UNL     1      27.071   8.481  29.128  1.00  0.00    -0.040 SA
BRANCH  18  20
HETATM   20  N5  UNL     1      28.765   6.756  30.192  1.00  0.00    -0.279 N
HETATM   21  N6  UNL     1      29.860   6.457  29.671  1.00  0.00    -0.334 N
HETATM   22  C9  UNL     1      30.706   7.449  29.036  1.00  0.00     0.170 C
HETATM   23  C10 UNL     1      30.305   5.092  29.697  1.00  0.00     0.170 C
ATOM     24  H5  UNL     1      28.229   6.000  30.619  1.00  0.00     0.189 HD
ENDBRANCH  18  20
ENDBRANCH  16  18
ENDBRANCH  15  16
ENDBRANCH   1  15
TORSDOF 7
ENDMDL