MODEL 3
REMARK VINA RESULT: -5.742746208      1.900      2.150
REMARK  6 active torsions:
REMARK  status: ('A' for Active; 'I' for Inactive)
REMARK    1  A    between atoms: C5_6  and  C6_7
REMARK    2  A    between atoms: C6_7  and  N2_8
REMARK    3  A    between atoms: N2_8  and  C7_10
REMARK    4  A    between atoms: C7_10  and  N3_12
REMARK    5  A    between atoms: N3_12  and  C8_14
REMARK    6  A    between atoms: C8_14  and  C9_15
ROOT
HETATM    1  N2  UNL     1      28.328   8.428  31.061  1.00  0.00    -0.367 N
ATOM      2  H2  UNL     1      28.391   8.086  32.020  1.00  0.00     0.161 HD
ENDROOT
BRANCH   1   3
HETATM    3  C6  UNL     1      28.380   9.860  30.826  1.00  0.00     0.126 C
BRANCH   3   4
HETATM    4  C5  UNL     1      29.639  10.455  31.411  1.00  0.00     0.006 C
HETATM    5  C4  UNL     1      29.687  11.944  31.334  1.00  0.00     0.034 C
HETATM    6  C3  UNL     1      30.880  12.452  30.555  1.00  0.00     0.237 C
HETATM    7  N1  UNL     1      32.100  12.001  31.194  1.00  0.00    -0.075 N
HETATM    8  C1  UNL     1      33.262  12.144  30.337  1.00  0.00     0.272 C
HETATM    9  C2  UNL     1      32.326  12.855  32.359  1.00  0.00     0.272 C
HETATM   10  C12 UNL     1      32.042  10.601  31.579  1.00  0.00     0.237 C
HETATM   11  C11 UNL     1      30.902   9.889  30.834  1.00  0.00     0.034 C
ENDBRANCH   3   4
ENDBRANCH   1   3
BRANCH   1  12
HETATM   12  C7  UNL     1      28.194   7.490  30.010  1.00  0.00     0.167 C
HETATM   13  S1  UNL     1      27.268   7.786  28.708  1.00  0.00    -0.041 SA
BRANCH  12  14
HETATM   14  N3  UNL     1      28.886   6.259  30.093  1.00  0.00    -0.365 N
ATOM     15  H3  UNL     1      29.003   5.832  31.012  1.00  0.00     0.161 HD
BRANCH  14  16
HETATM   16  C8  UNL     1      29.439   5.571  28.945  1.00  0.00     0.156 C
BRANCH  16  17
HETATM   17  C9  UNL     1      30.962   5.528  29.060  1.00  0.00     0.229 A
HETATM   18  C10 UNL     1      31.695   6.502  28.247  1.00  0.00     0.267 A
HETATM   19  N4  UNL     1      31.709   5.046  27.923  1.00  0.00    -0.066 N
ATOM     20  H42 UNL     1      32.436   4.345  27.782  1.00  0.00     0.277 HD
ATOM     21  H41 UNL     1      31.489   4.487  27.099  1.00  0.00     0.277 HD
ENDBRANCH  16  17
ENDBRANCH  14  16
ENDBRANCH  12  14
ENDBRANCH   1  12
TORSDOF 6
ENDMDL