MODEL 3
REMARK VINA RESULT: -5.496015274      0.896      1.053
REMARK  3 active torsions:
REMARK  status: ('A' for Active; 'I' for Inactive)
REMARK    1  A    between atoms: C2_2  and  C3_3
REMARK    2  A    between atoms: C3_3  and  C4_4
REMARK    3  A    between atoms: C4_4  and  N1_5
ROOT
HETATM    1  N1  UNL     1      28.412   8.264  28.992  1.00  0.00    -0.170 N
HETATM    2  C5  UNL     1      28.348   9.607  29.456  1.00  0.00     0.122 C
HETATM    3  N2  UNL     1      29.218  10.059  30.280  1.00  0.00    -0.387 N
ATOM      4  H21 UNL     1      29.172  11.022  30.612  1.00  0.00     0.157 HD
ATOM      5  H22 UNL     1      29.961   9.449  30.619  1.00  0.00     0.157 HD
HETATM    6  C6  UNL     1      27.283  10.480  28.971  1.00  0.00     0.344 C
HETATM    7  N3  UNL     1      26.020   9.875  28.719  1.00  0.00     0.059 N
HETATM    8  C7  UNL     1      25.484  10.250  27.400  1.00  0.00     0.296 C
HETATM    9  C8  UNL     1      23.986  10.132  27.712  1.00  0.00     0.269 C
HETATM   10  N4  UNL     1      23.928  10.911  28.932  1.00  0.00    -0.047 N
HETATM   11  C9  UNL     1      24.022  12.318  28.565  1.00  0.00     0.274 C
HETATM   12  C10 UNL     1      22.689  10.710  29.668  1.00  0.00     0.274 C
HETATM   13  C11 UNL     1      25.065  10.444  29.672  1.00  0.00     0.500 C
HETATM   14  N5  UNL     1      26.012   8.503  28.763  1.00  0.00    -0.045 N
ATOM     15  H5  UNL     1      25.114   8.040  28.907  1.00  0.00     0.213 HD
HETATM   16  C12 UNL     1      27.183   7.662  28.620  1.00  0.00     0.700 C
HETATM   17  N6  UNL     1      27.091   6.475  28.195  1.00  0.00    -0.233 N
ATOM     18  H61 UNL     1      26.208   6.044  27.927  1.00  0.00     0.174 HD
ATOM     19  H62 UNL     1      27.916   5.884  28.094  1.00  0.00     0.174 HD
ENDROOT
BRANCH   1  20
HETATM   20  C4  UNL     1      29.649   7.525  28.917  1.00  0.00     0.149 C
BRANCH  20  21
HETATM   21  C3  UNL     1      29.718   6.390  29.892  1.00  0.00     0.020 C
BRANCH  21  22
HETATM   22  C2  UNL     1      30.621   5.276  29.353  1.00  0.00    -0.003 C
HETATM   23  C1  UNL     1      31.695   5.792  28.436  1.00  0.00     0.005 C
ENDBRANCH  21  22
ENDBRANCH  20  21
ENDBRANCH   1  20
TORSDOF 3
ENDMDL