MODEL 1
REMARK VINA RESULT: -6.056510668      0.000      0.000
REMARK  6 active torsions:
REMARK  status: ('A' for Active; 'I' for Inactive)
REMARK    1  A    between atoms: N1_2  and  C2_3
REMARK    2  A    between atoms: C2_3  and  C3_4
REMARK    3  A    between atoms: C3_4  and  C4_5
REMARK    4  A    between atoms: C4_5  and  N2_6
REMARK    5  A    between atoms: C7_9  and  O1_10
REMARK    6  A    between atoms: C14_18  and  O2_19
ROOT
HETATM    1  C3  UNL     1      27.700   8.363  28.926  1.00  0.00     0.056 C
ENDROOT
BRANCH   1   2
HETATM    2  C2  UNL     1      27.723   8.952  30.284  1.00  0.00     0.241 C
BRANCH   2   3
HETATM    3  N1  UNL     1      28.614  10.025  30.530  1.00  0.00    -0.045 N
HETATM    4  C1  UNL     1      29.985   9.642  30.700  1.00  0.00     0.275 C
HETATM    5  C11 UNL     1      28.505  11.130  29.619  1.00  0.00     0.240 C
HETATM    6  C12 UNL     1      27.316  11.964  30.041  1.00  0.00     0.032 C
HETATM    7  C13 UNL     1      27.010  11.515  31.446  1.00  0.00     0.063 C
HETATM    8  C14 UNL     1      28.194  10.668  31.787  1.00  0.00     0.322 C
BRANCH   8   9
HETATM    9  O2  UNL     1      27.885   9.683  32.740  1.00  0.00    -0.369 OA
ATOM     10  H2  UNL     1      28.397   9.828  33.527  1.00  0.00     0.212 HD
ENDBRANCH   8   9
ENDBRANCH   2   3
ENDBRANCH   1   2
BRANCH   1  11
HETATM   11  C4  UNL     1      27.796   6.880  28.917  1.00  0.00     0.239 C
BRANCH  11  12
HETATM   12  N2  UNL     1      29.149   6.391  28.769  1.00  0.00    -0.066 N
HETATM   13  C5  UNL     1      30.042   7.192  27.997  1.00  0.00     0.240 C
HETATM   14  C6  UNL     1      31.489   6.916  28.364  1.00  0.00     0.060 C
HETATM   15  C7  UNL     1      31.704   5.498  28.813  1.00  0.00     0.127 C
HETATM   16  C8  UNL     1      30.440   4.903  29.355  1.00  0.00     0.067 C
HETATM   17  C9  UNL     1      29.282   5.011  28.384  1.00  0.00     0.246 C
HETATM   18  C10 UNL     1      29.688   6.029  30.071  1.00  0.00     0.246 C
BRANCH  15  19
HETATM   19  O1  UNL     1      32.284   4.712  27.813  1.00  0.00    -0.395 OA
ATOM     20  H1  UNL     1      32.968   4.147  28.154  1.00  0.00     0.210 HD
ENDBRANCH  15  19
ENDBRANCH  11  12
ENDBRANCH   1  11
TORSDOF 6
ENDMDL