MODEL 2
REMARK VINA RESULT: -6.104765808      1.581      6.584
REMARK  4 active torsions:
REMARK  status: ('A' for Active; 'I' for Inactive)
REMARK    1  A    between atoms: N1_2  and  C2_3
REMARK    2  A    between atoms: C2_3  and  C3_4
REMARK    3  A    between atoms: C3_4  and  C4_5
REMARK    4  A    between atoms: C4_5  and  N2_6
REMARK       I    between atoms: N2_6  and  C5_8
REMARK       I    between atoms: C5_8  and  N4_12
ROOT
HETATM    1  C4  UNL     1      28.292   8.960  30.603  1.00  0.00     0.139 C
ENDROOT
BRANCH   1   2
HETATM    2  C3  UNL     1      29.730   9.347  30.887  1.00  0.00     0.048 C
BRANCH   2   3
HETATM    3  C2  UNL     1      29.772  10.566  31.733  1.00  0.00     0.238 C
BRANCH   3   4
HETATM    4  N1  UNL     1      30.625  11.623  31.313  1.00  0.00    -0.068 N
HETATM    5  C1  UNL     1      29.826  12.860  31.427  1.00  0.00     0.272 C
HETATM    6  C10 UNL     1      31.752  11.878  32.170  1.00  0.00     0.256 C
HETATM    7  C11 UNL     1      32.916  10.996  31.791  1.00  0.00     0.142 C
HETATM    8  N5  UNL     1      33.386  11.521  30.537  1.00  0.00    -0.418 N
HETATM    9  C12 UNL     1      32.389  11.758  29.565  1.00  0.00     0.142 C
ATOM     10  H5  UNL     1      34.373  11.710  30.362  1.00  0.00     0.153 HD
HETATM   11  C13 UNL     1      30.984  11.521  29.924  1.00  0.00     0.256 C
ENDBRANCH   3   4
ENDBRANCH   2   3
ENDBRANCH   1   2
BRANCH   1  12
HETATM   12  N2  UNL     1      28.084   8.646  29.214  1.00  0.00    -0.227 N
HETATM   13  C5  UNL     1      28.163   7.315  28.740  1.00  0.00     0.669 C
HETATM   14  N3  UNL     1      27.183   6.676  28.203  1.00  0.00    -0.235 N
HETATM   15  N4  UNL     1      29.406   6.647  28.866  1.00  0.00    -0.218 N
ATOM     16  H32 UNL     1      26.288   7.157  28.112  1.00  0.00     0.174 HD
ATOM     17  H31 UNL     1      27.240   5.717  27.861  1.00  0.00     0.174 HD
HETATM   18  C6  UNL     1      30.492   6.775  27.918  1.00  0.00     0.141 C
HETATM   19  C9  UNL     1      29.741   5.761  29.952  1.00  0.00     0.141 C
HETATM   20  C7  UNL     1      31.592   5.900  28.491  1.00  0.00     0.022 C
HETATM   21  C8  UNL     1      30.851   4.924  29.366  1.00  0.00     0.022 C
ATOM     22  H2  UNL     1      27.875   9.398  28.558  1.00  0.00     0.177 HD
ENDBRANCH   1  12
TORSDOF 4
ENDMDL