MODEL 4
REMARK VINA RESULT: -7.839518967      1.219      1.437
REMARK  13 active torsions:
REMARK  status: ('A' for Active; 'I' for Inactive)
REMARK       I    between atoms: N1_2  and  C3_4
REMARK       I    between atoms: C3_4  and  N2_6
REMARK       I    between atoms: N3_9  and  C6_10
REMARK    1  A    between atoms: C6_10  and  C7_12
REMARK    2  A    between atoms: C7_12  and  N4_13
REMARK    3  A    between atoms: C7_12  and  C20_33
REMARK       I    between atoms: N4_13  and  C8_15
REMARK       I    between atoms: C8_15  and  N5_17
REMARK    4  A    between atoms: C11_20  and  N6_21
REMARK    5  A    between atoms: C20_33  and  C23_36
REMARK    6  A    between atoms: C23_36  and  N8_37
REMARK    7  A    between atoms: N8_37  and  C25_39
REMARK    8  A    between atoms: N8_37  and  C27_42
REMARK    9  A    between atoms: C27_42  and  C28_43
REMARK   10  A    between atoms: C28_43  and  C29_44
REMARK   11  A    between atoms: C29_44  and  C30_45
REMARK   12  A    between atoms: C30_45  and  C31_46
REMARK   13  A    between atoms: C31_46  and  N10_47
ROOT
HETATM    1  C25 UNL     1       3.734 -16.445 -15.616  1.00  0.00     0.360 C
HETATM    2  C26 UNL     1       2.806 -15.331 -15.445  1.00  0.00     0.087 C
HETATM    3  N9  UNL     1       2.071 -14.442 -15.276  1.00  0.00    -0.196 NA
ENDROOT
BRANCH   1   4
HETATM    4  N8  UNL     1       4.770 -16.326 -16.550  1.00  0.00    -0.058 N
HETATM    5  C24 UNL     1       5.061 -14.853 -16.639  1.00  0.00     0.273 C
BRANCH   4   6
HETATM    6  C23 UNL     1       4.573 -16.795 -17.894  1.00  0.00     0.249 C
BRANCH   6   7
HETATM    7  C20 UNL     1       3.273 -17.297 -18.434  1.00  0.00     0.006 C
HETATM    8  C21 UNL     1       2.337 -16.259 -18.831  1.00  0.00     0.019 C
HETATM    9  C22 UNL     1       2.687 -18.375 -17.593  1.00  0.00     0.019 C
BRANCH   7  10
HETATM   10  C7  UNL     1       3.711 -18.022 -19.783  1.00  0.00     0.188 C
BRANCH  10  11
HETATM   11  C6  UNL     1       3.137 -19.401 -19.732  1.00  0.00     0.243 C
HETATM   12  N3  UNL     1       1.879 -19.790 -20.210  1.00  0.00    -0.347 N
HETATM   13  C5  UNL     1       1.034 -18.906 -20.959  1.00  0.00     0.145 C
HETATM   14  C32 UNL     1       1.339 -21.126 -19.889  1.00  0.00     0.145 C
HETATM   15  C4  UNL     1       0.621 -19.528 -22.292  1.00  0.00     0.147 C
HETATM   16  N2  UNL     1       0.527 -21.013 -22.131  1.00  0.00    -0.331 N
HETATM   17  C3  UNL     1       0.831 -21.813 -23.233  1.00  0.00     0.319 C
HETATM   18  C33 UNL     1       0.145 -21.398 -20.809  1.00  0.00     0.147 C
HETATM   19  N1  UNL     1       0.845 -23.206 -23.371  1.00  0.00    -0.343 N
HETATM   20  O1  UNL     1       1.161 -21.171 -24.314  1.00  0.00    -0.247 OA
HETATM   21  C1  UNL     1       1.216 -23.786 -24.690  1.00  0.00     0.154 C
HETATM   22  C2  UNL     1       0.540 -24.165 -22.358  1.00  0.00     0.154 C
HETATM   23  O2  UNL     1       3.821 -20.355 -19.208  1.00  0.00    -0.271 OA
ENDBRANCH  10  11
BRANCH  10  24
HETATM   24  N4  UNL     1       5.158 -18.153 -19.800  1.00  0.00    -0.329 N
HETATM   25  C8  UNL     1       6.236 -18.174 -20.599  1.00  0.00     0.319 C
HETATM   26  O3  UNL     1       6.255 -18.008 -21.839  1.00  0.00    -0.247 OA
HETATM   27  N5  UNL     1       7.569 -18.405 -20.081  1.00  0.00    -0.334 N
HETATM   28  C9  UNL     1       7.929 -18.819 -18.764  1.00  0.00     0.129 C
HETATM   29  C19 UNL     1       8.688 -18.120 -21.006  1.00  0.00     0.129 C
HETATM   30  C10 UNL     1       8.934 -19.988 -18.832  1.00  0.00     0.045 C
HETATM   31  C11 UNL     1      10.131 -19.519 -19.633  1.00  0.00     0.091 C
HETATM   32  C18 UNL     1       9.651 -19.260 -21.055  1.00  0.00     0.045 C
ATOM     33  H4  UNL     1       5.475 -18.276 -18.839  1.00  0.00     0.165 HD
BRANCH  31  34
HETATM   34  N6  UNL     1      11.188 -20.484 -19.677  1.00  0.00    -0.329 N
HETATM   35  C12 UNL     1      11.149 -21.570 -20.618  1.00  0.00     0.130 C
HETATM   36  C13 UNL     1      12.552 -22.071 -20.949  1.00  0.00     0.050 C
HETATM   37  C14 UNL     1      13.297 -22.420 -19.673  1.00  0.00     0.029 C
HETATM   38  C15 UNL     1      12.558 -23.473 -18.889  1.00  0.00     0.038 C
HETATM   39  C16 UNL     1      14.665 -22.936 -20.032  1.00  0.00     0.038 C
HETATM   40  N7  UNL     1      13.448 -21.171 -18.942  1.00  0.00    -0.334 N
HETATM   41  C17 UNL     1      12.287 -20.352 -18.794  1.00  0.00     0.319 C
ATOM     42  H7  UNL     1      14.347 -20.892 -18.550  1.00  0.00     0.165 HD
HETATM   43  O4  UNL     1      12.269 -19.495 -17.839  1.00  0.00    -0.247 OA
ENDBRANCH  31  34
ENDBRANCH  10  24
ENDBRANCH   7  10
ENDBRANCH   6   7
ENDBRANCH   4   6
BRANCH   4  44
HETATM   44  C27 UNL     1       5.970 -17.006 -16.098  1.00  0.00     0.238 C
BRANCH  44  45
HETATM   45  C28 UNL     1       7.033 -16.288 -15.395  1.00  0.00     0.028 C
BRANCH  45  46
HETATM   46  C29 UNL     1       8.218 -17.029 -14.883  1.00  0.00     0.003 C
BRANCH  46  47
HETATM   47  C30 UNL     1       7.882 -18.510 -14.643  1.00  0.00     0.027 C
BRANCH  47  48
HETATM   48  C31 UNL     1       9.005 -19.320 -15.247  1.00  0.00     0.229 C
BRANCH  48  49
HETATM   49  N10 UNL     1      10.099 -18.474 -15.680  1.00  0.00    -0.079 N
ATOM     50 3H10 UNL     1       9.964 -18.153 -16.640  1.00  0.00     0.274 HD
ATOM     51 2H10 UNL     1      10.081 -17.570 -15.208  1.00  0.00     0.274 HD
ATOM     52 1H10 UNL     1      11.000 -18.937 -15.565  1.00  0.00     0.274 HD
ENDBRANCH  48  49
ENDBRANCH  47  48
ENDBRANCH  46  47
ENDBRANCH  45  46
ENDBRANCH  44  45
ENDBRANCH   4  44
ENDBRANCH   1   4
TORSDOF 13
ENDMDL