MODEL 5
REMARK VINA RESULT: -9.006612420      3.996     11.161
REMARK  13 active torsions:
REMARK  status: ('A' for Active; 'I' for Inactive)
REMARK    1  A    between atoms: C2_2  and  C4_4
REMARK    2  A    between atoms: C4_4  and  C5_5
REMARK    3  A    between atoms: C6_6  and  O1_7
REMARK    4  A    between atoms: N1_9  and  C7_10
REMARK    5  A    between atoms: C7_10  and  C8_11
REMARK    6  A    between atoms: C8_11  and  N2_12
REMARK    7  A    between atoms: N3_15  and  C11_16
REMARK    8  A    between atoms: C11_16  and  C12_17
REMARK    9  A    between atoms: C12_17  and  N4_18
REMARK   10  A    between atoms: N6_36  and  C25_37
REMARK   11  A    between atoms: C25_37  and  C26_38
REMARK   12  A    between atoms: C25_37  and  C33_48
REMARK       I    between atoms: C26_38  and  N7_40
REMARK   13  A    between atoms: N7_40  and  C27_42
ROOT
HETATM    1  C5  UNL     1      12.319 -19.318 -17.701  1.00  0.00     0.063 C
HETATM    2  C6  UNL     1      13.554 -19.991 -18.111  1.00  0.00     0.160 C
HETATM    3  N1  UNL     1      13.913 -21.093 -18.901  1.00  0.00    -0.353 N
HETATM    4  C18 UNL     1      13.171 -21.834 -19.828  1.00  0.00     0.098 C
HETATM    5  C19 UNL     1      13.257 -23.348 -19.642  1.00  0.00     0.026 C
HETATM    6  C20 UNL     1      12.799 -23.822 -18.308  1.00  0.00     0.009 C
HETATM    7  C21 UNL     1      11.397 -23.312 -18.050  1.00  0.00     0.079 C
HETATM    8  C22 UNL     1      10.884 -22.555 -19.234  1.00  0.00     0.134 C
HETATM    9  O2  UNL     1       9.762 -22.790 -19.604  1.00  0.00    -0.297 OA
HETATM   10  C23 UNL     1      11.694 -21.556 -19.941  1.00  0.00     0.092 C
HETATM   11  C24 UNL     1      11.461 -20.138 -19.689  1.00  0.00     0.116 C
HETATM   12  N6  UNL     1      11.133 -19.723 -18.335  1.00  0.00    -0.244 NA
ENDROOT
BRANCH   3  13
HETATM   13  C7  UNL     1      15.273 -21.532 -18.688  1.00  0.00     0.145 C
BRANCH  13  14
HETATM   14  C8  UNL     1      15.541 -22.280 -17.434  1.00  0.00     0.145 C
BRANCH  14  15
HETATM   15  N2  UNL     1      16.666 -23.153 -17.396  1.00  0.00    -0.355 N
HETATM   16  C9  UNL     1      17.571 -23.554 -18.468  1.00  0.00     0.145 C
HETATM   17  C10 UNL     1      17.988 -24.965 -18.071  1.00  0.00     0.145 C
HETATM   18  N3  UNL     1      17.743 -25.077 -16.678  1.00  0.00    -0.355 N
HETATM   19  C17 UNL     1      17.135 -23.855 -16.239  1.00  0.00     0.172 C
HETATM   20  S1  UNL     1      17.011 -23.376 -14.683  1.00  0.00    -0.041 SA
BRANCH  18  21
HETATM   21  C11 UNL     1      18.008 -26.196 -15.779  1.00  0.00     0.155 C
BRANCH  21  22
HETATM   22  C12 UNL     1      19.262 -26.888 -16.209  1.00  0.00     0.292 C
BRANCH  22  23
HETATM   23  N4  UNL     1      18.994 -27.906 -17.172  1.00  0.00     0.093 N
HETATM   24  C13 UNL     1      18.965 -29.231 -16.531  1.00  0.00     0.300 C
HETATM   25  C14 UNL     1      20.177 -30.047 -16.832  1.00  0.00     0.262 C
HETATM   26  N5  UNL     1      20.361 -30.269 -18.258  1.00  0.00    -0.072 N
HETATM   27  C15 UNL     1      19.865 -29.149 -19.019  1.00  0.00     0.262 C
ATOM     28  H52 UNL     1      21.333 -30.479 -18.485  1.00  0.00     0.277 HD
ATOM     29  H51 UNL     1      19.939 -31.147 -18.560  1.00  0.00     0.277 HD
HETATM   30  C16 UNL     1      20.075 -27.894 -18.166  1.00  0.00     0.300 C
ENDBRANCH  22  23
ENDBRANCH  21  22
ENDBRANCH  18  21
ENDBRANCH  14  15
ENDBRANCH  13  14
ENDBRANCH   3  13
BRANCH   2  31
HETATM   31  O1  UNL     1      14.573 -19.372 -17.590  1.00  0.00    -0.345 OA
ATOM     32  H1  UNL     1      15.279 -19.343 -18.224  1.00  0.00     0.219 HD
ENDBRANCH   2  31
BRANCH   1  33
HETATM   33  C4  UNL     1      12.390 -19.037 -16.262  1.00  0.00     0.005 C
BRANCH  33  34
HETATM   34  C2  UNL     1      12.041 -19.970 -15.204  1.00  0.00     0.002 C
HETATM   35  C1  UNL     1      13.021 -20.995 -14.735  1.00  0.00     0.013 C
HETATM   36  C3  UNL     1      11.656 -19.197 -13.911  1.00  0.00     0.013 C
ENDBRANCH  33  34
ENDBRANCH   1  33
BRANCH  12  37
HETATM   37  C25 UNL     1       9.986 -18.881 -18.408  1.00  0.00     0.064 C
BRANCH  37  38
HETATM   38  C26 UNL     1       9.350 -18.589 -17.081  1.00  0.00     0.259 C
HETATM   39  O3  UNL     1       8.963 -19.544 -16.350  1.00  0.00    -0.267 OA
HETATM   40  N7  UNL     1       9.121 -17.314 -16.532  1.00  0.00    -0.352 N
ATOM     41  H7  UNL     1       9.406 -16.502 -17.078  1.00  0.00     0.163 HD
BRANCH  40  42
HETATM   42  C27 UNL     1       8.509 -17.083 -15.244  1.00  0.00     0.084 C
HETATM   43  C28 UNL     1       9.088 -15.948 -14.481  1.00  0.00     0.025 C
HETATM   44  C29 UNL     1       8.028 -14.973 -14.039  1.00  0.00     0.002 C
HETATM   45  C30 UNL     1       7.138 -14.517 -15.160  1.00  0.00     0.000 C
HETATM   46  C31 UNL     1       6.537 -15.661 -15.918  1.00  0.00     0.002 C
HETATM   47  C32 UNL     1       7.004 -16.958 -15.331  1.00  0.00     0.025 C
ENDBRANCH  40  42
ENDBRANCH  37  38
BRANCH  37  48
HETATM   48  C33 UNL     1       9.146 -18.732 -19.580  1.00  0.00     0.028 C
HETATM   49  C34 UNL     1       9.010 -17.491 -20.359  1.00  0.00     0.016 C
HETATM   50  C35 UNL     1       7.731 -19.320 -19.278  1.00  0.00     0.016 C
ENDBRANCH  37  48
ENDBRANCH  12  37
TORSDOF 13
ENDMDL