MODEL 1
REMARK VINA RESULT: -9.371634033      0.000      0.000
REMARK  13 active torsions:
REMARK  status: ('A' for Active; 'I' for Inactive)
REMARK    1  A    between atoms: C2_2  and  C3_3
REMARK    2  A    between atoms: C3_3  and  N1_4
REMARK       I    between atoms: N1_4  and  C4_6
REMARK    3  A    between atoms: C4_6  and  C5_8
REMARK       I    between atoms: C5_8  and  N2_10
REMARK    4  A    between atoms: C8_13  and  C9_14
REMARK       I    between atoms: C9_14  and  N3_16
REMARK    5  A    between atoms: C14_21  and  C15_22
REMARK    6  A    between atoms: C15_22  and  N4_24
REMARK    7  A    between atoms: C20_28  and  C21_29
REMARK    8  A    between atoms: C21_29  and  N5_30
REMARK    9  A    between atoms: N6_33  and  C23_34
REMARK   10  A    between atoms: C26_37  and  C27_38
REMARK   11  A    between atoms: C29_40  and  O5_41
REMARK   12  A    between atoms: C29_40  and  C30_43
REMARK   13  A    between atoms: C30_43  and  C31_44
ROOT
HETATM    1  N4  UNL     1      10.101 -18.283 -19.606  1.00  0.00     0.101 N
HETATM    2  C17 UNL     1      10.209 -19.503 -20.322  1.00  0.00     0.273 C
HETATM    3  C18 UNL     1       9.500 -19.207 -21.660  1.00  0.00     0.032 C
HETATM    4  C19 UNL     1       8.725 -17.935 -21.382  1.00  0.00     0.039 C
HETATM    5  C20 UNL     1       8.750 -17.794 -19.886  1.00  0.00     0.242 C
ENDROOT
BRANCH   1   6
HETATM    6  C15 UNL     1      10.505 -18.203 -18.259  1.00  0.00     0.242 C
HETATM    7  C16 UNL     1      12.015 -17.807 -18.346  1.00  0.00     0.045 C
BRANCH   6   8
HETATM    8  C14 UNL     1      10.438 -19.510 -17.477  1.00  0.00     0.120 C
HETATM    9  N3  UNL     1      11.762 -19.873 -16.937  1.00  0.00    -0.344 N
HETATM   10  C9  UNL     1      12.448 -21.046 -17.283  1.00  0.00     0.243 C
HETATM   11  C10 UNL     1      12.371 -18.966 -15.958  1.00  0.00     0.126 C
HETATM   12  O3  UNL     1      13.586 -21.293 -16.753  1.00  0.00    -0.271 OA
HETATM   13  C11 UNL     1      11.467 -18.912 -14.715  1.00  0.00     0.020 C
HETATM   14  C12 UNL     1      10.300 -19.838 -14.998  1.00  0.00     0.004 C
HETATM   15  C13 UNL     1       9.539 -19.354 -16.228  1.00  0.00     0.027 C
BRANCH  10  16
HETATM   16  C8  UNL     1      11.961 -22.073 -18.242  1.00  0.00     0.181 C
HETATM   17  N2  UNL     1      13.005 -22.787 -18.936  1.00  0.00    -0.330 N
HETATM   18  C5  UNL     1      14.114 -22.471 -19.768  1.00  0.00     0.312 C
HETATM   19  C6  UNL     1      12.474 -24.028 -18.428  1.00  0.00     0.130 C
HETATM   20  O2  UNL     1      14.310 -21.250 -20.043  1.00  0.00    -0.262 OA
HETATM   21  C7  UNL     1      11.472 -23.317 -17.587  1.00  0.00     0.055 C
BRANCH  18  22
HETATM   22  C4  UNL     1      15.011 -23.479 -20.299  1.00  0.00     0.309 C
HETATM   23  N1  UNL     1      16.183 -23.847 -19.617  1.00  0.00    -0.349 N
ATOM     24  H1  UNL     1      16.398 -23.388 -18.732  1.00  0.00     0.163 HD
HETATM   25  O1  UNL     1      14.705 -24.019 -21.395  1.00  0.00    -0.262 OA
BRANCH  23  26
HETATM   26  C3  UNL     1      17.092 -24.847 -20.116  1.00  0.00     0.149 C
BRANCH  26  27
HETATM   27  C2  UNL     1      18.065 -25.310 -19.100  1.00  0.00    -0.018 C
HETATM   28  C1  UNL     1      17.685 -26.107 -18.111  1.00  0.00     0.008 C
ENDBRANCH  26  27
ENDBRANCH  23  26
ENDBRANCH  18  22
ENDBRANCH  10  16
ENDBRANCH   6   8
ENDBRANCH   1   6
BRANCH   5  29
HETATM   29  C21 UNL     1       7.709 -18.559 -19.153  1.00  0.00     0.172 C
BRANCH  29  30
HETATM   30  N5  UNL     1       6.678 -17.802 -18.517  1.00  0.00    -0.265 N
HETATM   31  C22 UNL     1       5.322 -17.973 -19.028  1.00  0.00     0.327 C
HETATM   32  O4  UNL     1       5.125 -19.094 -19.598  1.00  0.00    -0.247 OA
HETATM   33  N6  UNL     1       4.244 -17.044 -18.951  1.00  0.00    -0.334 N
HETATM   34  C25 UNL     1       4.253 -15.912 -18.078  1.00  0.00     0.135 C
HETATM   35  C26 UNL     1       4.658 -16.157 -16.644  1.00  0.00     0.047 C
HETATM   36  C29 UNL     1       6.055 -16.396 -16.359  1.00  0.00     0.144 C
HETATM   37  C34 UNL     1       6.943 -16.917 -17.440  1.00  0.00     0.263 C
HETATM   38  O6  UNL     1       8.123 -16.510 -17.392  1.00  0.00    -0.269 OA
BRANCH  33  39
HETATM   39  C23 UNL     1       3.154 -17.327 -19.845  1.00  0.00     0.123 C
HETATM   40  C24 UNL     1       1.794 -16.997 -19.351  1.00  0.00     0.026 C
ENDBRANCH  33  39
BRANCH  35  41
HETATM   41  C27 UNL     1       3.664 -17.230 -16.161  1.00  0.00     0.005 C
HETATM   42  C28 UNL     1       2.444 -16.695 -15.479  1.00  0.00     0.005 C
ENDBRANCH  35  41
BRANCH  36  43
HETATM   43  O5  UNL     1       6.140 -17.489 -15.412  1.00  0.00    -0.380 OA
ATOM     44  H5  UNL     1       5.779 -17.191 -14.585  1.00  0.00     0.211 HD
ENDBRANCH  36  43
BRANCH  36  45
HETATM   45  C30 UNL     1       6.842 -15.329 -15.659  1.00  0.00     0.052 C
BRANCH  45  46
HETATM   46  C31 UNL     1       7.406 -15.575 -14.324  1.00  0.00    -0.019 C
HETATM   47  C32 UNL     1       7.377 -14.157 -13.633  1.00  0.00     0.009 C
HETATM   48  C33 UNL     1       8.905 -15.882 -14.291  1.00  0.00     0.009 C
ENDBRANCH  45  46
ENDBRANCH  36  45
ENDBRANCH  29  30
ENDBRANCH   5  29
TORSDOF 13
ENDMDL