MODEL 3
REMARK VINA RESULT: -9.301794287      2.656      4.547
REMARK  13 active torsions:
REMARK  status: ('A' for Active; 'I' for Inactive)
REMARK    1  A    between atoms: C2_2  and  N1_3
REMARK    2  A    between atoms: C6_7  and  C7_8
REMARK    3  A    between atoms: C7_8  and  C8_9
REMARK    4  A    between atoms: C8_9  and  C9_10
REMARK    5  A    between atoms: C9_10  and  C10_11
REMARK    6  A    between atoms: C10_11  and  N2_12
REMARK    7  A    between atoms: C10_11  and  C30_42
REMARK       I    between atoms: N2_12  and  C11_14
REMARK    8  A    between atoms: C11_14  and  C12_16
REMARK    9  A    between atoms: C12_16  and  C13_17
REMARK   10  A    between atoms: C12_16  and  N4_22
REMARK   11  A    between atoms: C13_17  and  C14_18
REMARK   12  A    between atoms: C14_18  and  C15_19
REMARK   13  A    between atoms: C19_26  and  C20_27
REMARK       I    between atoms: C20_27  and  N5_29
REMARK       I    between atoms: C30_42  and  N7_44
ROOT
HETATM    1  C12 UNL     1      13.029 -20.329 -17.138  1.00  0.00     0.315 C
ENDROOT
BRANCH   1   2
HETATM    2  C11 UNL     1      12.627 -20.333 -18.596  1.00  0.00     0.252 C
HETATM    3  N2  UNL     1      11.353 -20.230 -19.098  1.00  0.00    -0.346 N
ATOM      4  H2  UNL     1      10.556 -20.140 -18.468  1.00  0.00     0.163 HD
HETATM    5  O1  UNL     1      13.593 -20.447 -19.434  1.00  0.00    -0.271 OA
BRANCH   3   6
HETATM    6  C10 UNL     1      11.149 -20.253 -20.570  1.00  0.00     0.176 C
BRANCH   6   7
HETATM    7  C9  UNL     1      10.383 -21.546 -20.796  1.00  0.00     0.035 C
BRANCH   7   8
HETATM    8  C8  UNL     1      11.114 -22.808 -20.619  1.00  0.00     0.003 C
BRANCH   8   9
HETATM    9  C7  UNL     1      12.294 -22.993 -21.527  1.00  0.00     0.005 C
BRANCH   9  10
HETATM   10  C6  UNL     1      13.430 -23.741 -20.917  1.00  0.00    -0.011 C
HETATM   11  C5  UNL     1      13.401 -23.898 -19.437  1.00  0.00     0.032 C
HETATM   12  C4  UNL     1      14.474 -24.909 -19.056  1.00  0.00     0.237 C
HETATM   13  N1  UNL     1      15.777 -24.584 -19.537  1.00  0.00    -0.071 N
HETATM   14  C3  UNL     1      16.620 -25.766 -19.390  1.00  0.00     0.272 C
HETATM   15  C36 UNL     1      15.830 -24.219 -20.939  1.00  0.00     0.237 C
HETATM   16  C35 UNL     1      14.798 -23.172 -21.297  1.00  0.00     0.032 C
BRANCH  13  17
HETATM   17  C2  UNL     1      16.366 -23.496 -18.775  1.00  0.00     0.232 C
HETATM   18  C1  UNL     1      17.669 -23.871 -18.131  1.00  0.00     0.035 C
ENDBRANCH  13  17
ENDBRANCH   9  10
ENDBRANCH   8   9
ENDBRANCH   7   8
ENDBRANCH   6   7
BRANCH   6  19
HETATM   19  C30 UNL     1      10.283 -19.091 -20.827  1.00  0.00     0.242 C
HETATM   20  O4  UNL     1      10.631 -18.315 -21.784  1.00  0.00    -0.271 OA
HETATM   21  N7  UNL     1       9.141 -18.804 -20.109  1.00  0.00    -0.350 N
HETATM   22  C31 UNL     1       8.529 -19.508 -19.020  1.00  0.00     0.126 C
HETATM   23  C34 UNL     1       8.263 -17.645 -20.338  1.00  0.00     0.126 C
HETATM   24  C32 UNL     1       7.045 -19.490 -19.338  1.00  0.00     0.021 C
HETATM   25  C33 UNL     1       6.886 -18.125 -20.003  1.00  0.00     0.021 C
ENDBRANCH   6  19
ENDBRANCH   3   6
ENDBRANCH   1   2
BRANCH   1  26
HETATM   26  C13 UNL     1      12.559 -21.600 -16.554  1.00  0.00     0.054 C
BRANCH  26  27
HETATM   27  C14 UNL     1      13.700 -22.517 -16.224  1.00  0.00     0.102 C
BRANCH  27  28
HETATM   28  C15 UNL     1      14.128 -22.454 -14.796  1.00  0.00     0.231 C
HETATM   29  N3  UNL     1      15.481 -22.775 -14.456  1.00  0.00    -0.062 NA
HETATM   30  O2  UNL     1      13.389 -22.138 -13.840  1.00  0.00    -0.277 OA
ENDBRANCH  27  28
ENDBRANCH  26  27
ENDBRANCH   1  26
BRANCH   1  31
HETATM   31  N4  UNL     1      12.539 -19.118 -16.598  1.00  0.00     0.116 N
HETATM   32  C16 UNL     1      13.360 -18.725 -15.466  1.00  0.00     0.280 C
HETATM   33  C17 UNL     1      12.334 -18.014 -14.636  1.00  0.00     0.029 A
HETATM   34  C18 UNL     1      11.307 -19.210 -14.712  1.00  0.00     0.043 A
HETATM   35  C27 UNL     1      11.550 -18.448 -13.554  1.00  0.00    -0.035 A
HETATM   36  C19 UNL     1      11.160 -19.078 -16.171  1.00  0.00     0.320 C
HETATM   37  C28 UNL     1      12.384 -19.015 -12.377  1.00  0.00     0.015 C
HETATM   38  C29 UNL     1      10.481 -17.539 -13.001  1.00  0.00     0.015 C
BRANCH  36  39
HETATM   39  C20 UNL     1      10.529 -17.887 -16.725  1.00  0.00     0.254 C
HETATM   40  O3  UNL     1      11.232 -17.158 -17.499  1.00  0.00    -0.271 OA
HETATM   41  N5  UNL     1       9.209 -17.440 -16.499  1.00  0.00    -0.348 N
HETATM   42  C21 UNL     1       8.118 -17.990 -15.716  1.00  0.00     0.132 C
HETATM   43  C26 UNL     1       8.650 -16.222 -17.058  1.00  0.00     0.159 C
HETATM   44  C22 UNL     1       7.444 -16.754 -15.135  1.00  0.00     0.037 C
HETATM   45  C23 UNL     1       5.965 -16.705 -15.413  1.00  0.00     0.036 C
HETATM   46  C25 UNL     1       8.003 -15.556 -15.858  1.00  0.00     0.209 C
HETATM   47  C24 UNL     1       5.699 -15.265 -15.788  1.00  0.00     0.233 C
HETATM   48  N6  UNL     1       6.935 -14.739 -16.309  1.00  0.00    -0.069 N
ATOM     49  H62 UNL     1       6.921 -14.640 -17.324  1.00  0.00     0.277 HD
ATOM     50  H61 UNL     1       7.071 -13.755 -16.074  1.00  0.00     0.277 HD
ENDBRANCH  36  39
ENDBRANCH   1  31
TORSDOF 13
ENDMDL