MODEL 5
REMARK VINA RESULT: -9.698841828      1.412      2.186
REMARK  13 active torsions:
REMARK  status: ('A' for Active; 'I' for Inactive)
REMARK    1  A    between atoms: C5_5  and  C6_6
REMARK       I    between atoms: C6_6  and  N1_8
REMARK    2  A    between atoms: N2_11  and  C9_12
REMARK    3  A    between atoms: C9_12  and  O2_13
REMARK    4  A    between atoms: C10_15  and  N3_16
REMARK    5  A    between atoms: C10_15  and  C28_43
REMARK       I    between atoms: N3_16  and  C11_18
REMARK    6  A    between atoms: C11_18  and  C12_20
REMARK    7  A    between atoms: C12_20  and  C13_21
REMARK    8  A    between atoms: C13_21  and  N4_22
REMARK    9  A    between atoms: N4_22  and  C14_23
REMARK   10  A    between atoms: C14_23  and  C15_24
REMARK   11  A    between atoms: C15_24  and  C16_25
REMARK   12  A    between atoms: C16_25  and  N5_26
REMARK   13  A    between atoms: C18_31  and  C19_32
ROOT
HETATM    1  N3  UNL     1       6.709 -17.886 -18.766  1.00  0.00    -0.323 N
ATOM      2  H3  UNL     1       5.892 -18.188 -18.236  1.00  0.00     0.169 HD
HETATM    3  C11 UNL     1       7.231 -16.623 -18.553  1.00  0.00     0.223 C
HETATM    4  O3  UNL     1       8.249 -16.238 -19.211  1.00  0.00    -0.273 OA
ENDROOT
BRANCH   3   5
HETATM    5  C12 UNL     1       6.649 -15.650 -17.562  1.00  0.00     0.131 C
BRANCH   5   6
HETATM    6  C13 UNL     1       7.590 -15.529 -16.422  1.00  0.00     0.246 C
BRANCH   6   7
HETATM    7  N4  UNL     1       7.111 -15.906 -15.137  1.00  0.00    -0.067 N
HETATM    8  C24 UNL     1       7.957 -15.271 -14.131  1.00  0.00     0.237 C
HETATM    9  C25 UNL     1       7.532 -13.845 -14.148  1.00  0.00     0.029 C
HETATM   10  C26 UNL     1       6.043 -13.945 -14.376  1.00  0.00     0.029 C
HETATM   11  C27 UNL     1       5.821 -15.366 -14.859  1.00  0.00     0.237 C
BRANCH   7  12
HETATM   12  C14 UNL     1       7.175 -17.349 -14.914  1.00  0.00     0.239 C
BRANCH  12  13
HETATM   13  C15 UNL     1       8.431 -17.963 -15.415  1.00  0.00     0.050 C
BRANCH  13  14
HETATM   14  C16 UNL     1       8.965 -19.060 -14.537  1.00  0.00     0.156 C
BRANCH  14  15
HETATM   15  N5  UNL     1      10.320 -19.440 -14.766  1.00  0.00    -0.238 N
HETATM   16  C17 UNL     1      10.717 -20.550 -15.556  1.00  0.00     0.338 C
HETATM   17  O4  UNL     1       9.844 -21.278 -16.091  1.00  0.00    -0.245 OA
HETATM   18  N6  UNL     1      12.070 -20.909 -15.789  1.00  0.00    -0.328 N
HETATM   19  C18 UNL     1      13.123 -19.962 -15.505  1.00  0.00     0.183 C
ATOM     20  H6  UNL     1      12.298 -21.833 -16.156  1.00  0.00     0.165 HD
HETATM   21  C22 UNL     1      12.728 -19.031 -14.424  1.00  0.00     0.261 C
HETATM   22  O5  UNL     1      13.614 -18.543 -13.691  1.00  0.00    -0.269 OA
HETATM   23  N7  UNL     1      11.376 -18.673 -14.194  1.00  0.00    -0.258 N
HETATM   24  C23 UNL     1      11.076 -17.521 -13.374  1.00  0.00     0.181 C
BRANCH  19  25
HETATM   25  C19 UNL     1      14.349 -20.772 -15.117  1.00  0.00     0.009 C
HETATM   26  C20 UNL     1      15.576 -20.373 -15.876  1.00  0.00     0.012 C
HETATM   27  C21 UNL     1      14.091 -22.243 -15.342  1.00  0.00     0.012 C
ENDBRANCH  19  25
ENDBRANCH  14  15
ENDBRANCH  13  14
ENDBRANCH  12  13
ENDBRANCH   7  12
ENDBRANCH   6   7
ENDBRANCH   5   6
ENDBRANCH   3   5
BRANCH   1  28
HETATM   28  C10 UNL     1       7.318 -18.805 -19.753  1.00  0.00     0.087 C
HETATM   29  C9  UNL     1       8.492 -19.439 -19.230  1.00  0.00     0.166 C
BRANCH  29  30
HETATM   30  N2  UNL     1       9.768 -19.821 -19.589  1.00  0.00    -0.357 N
HETATM   31  C8  UNL     1      10.888 -18.824 -19.469  1.00  0.00     0.145 C
HETATM   32  C7  UNL     1      12.103 -19.401 -18.864  1.00  0.00     0.145 C
HETATM   33  N1  UNL     1      12.297 -20.824 -19.042  1.00  0.00    -0.349 N
HETATM   34  C6  UNL     1      13.575 -21.337 -19.230  1.00  0.00     0.224 C
HETATM   35  C32 UNL     1      11.127 -21.653 -19.008  1.00  0.00     0.145 C
HETATM   36  O1  UNL     1      14.523 -20.461 -19.233  1.00  0.00    -0.273 OA
HETATM   37  C31 UNL     1      10.205 -21.076 -20.112  1.00  0.00     0.145 C
BRANCH  34  38
HETATM   38  C5  UNL     1      14.001 -22.739 -19.425  1.00  0.00     0.078 C
HETATM   39  C4  UNL     1      15.259 -23.137 -18.770  1.00  0.00     0.014 C
HETATM   40  C3  UNL     1      16.192 -24.033 -19.483  1.00  0.00     0.005 C
HETATM   41  C2  UNL     1      16.016 -24.188 -20.952  1.00  0.00    -0.019 C
HETATM   42  C1  UNL     1      16.808 -25.402 -21.419  1.00  0.00     0.010 C
HETATM   43  C34 UNL     1      14.551 -24.376 -21.247  1.00  0.00     0.005 C
HETATM   44  C33 UNL     1      13.837 -23.127 -20.873  1.00  0.00     0.014 C
ENDBRANCH  34  38
ENDBRANCH  29  30
BRANCH  29  45
HETATM   45  O2  UNL     1       8.258 -19.774 -17.929  1.00  0.00    -0.344 OA
ATOM     46  H2  UNL     1       7.351 -20.035 -17.823  1.00  0.00     0.219 HD
ENDBRANCH  29  45
BRANCH  28  47
HETATM   47  C28 UNL     1       7.161 -18.279 -21.115  1.00  0.00    -0.057 C
HETATM   48  C29 UNL     1       5.880 -18.600 -21.831  1.00  0.00     0.045 C
HETATM   49  C30 UNL     1       8.395 -18.364 -21.995  1.00  0.00     0.045 C
ENDBRANCH  28  47
ENDBRANCH   1  28
TORSDOF 13
ENDMDL