MODEL 4
REMARK VINA RESULT: -8.692305649      2.623      5.294
REMARK  14 active torsions:
REMARK  status: ('A' for Active; 'I' for Inactive)
REMARK    1  A    between atoms: C2_2  and  C3_3
REMARK       I    between atoms: C3_3  and  N1_5
REMARK    2  A    between atoms: C4_6  and  C5_7
REMARK       I    between atoms: C5_7  and  N2_9
REMARK    3  A    between atoms: N2_9  and  C6_11
REMARK    4  A    between atoms: C6_11  and  C8_13
REMARK    5  A    between atoms: C8_13  and  N3_14
REMARK       I    between atoms: N3_14  and  C9_16
REMARK    6  A    between atoms: C9_16  and  C10_18
REMARK    7  A    between atoms: C10_18  and  C11_19
REMARK    8  A    between atoms: C11_19  and  C12_20
REMARK    9  A    between atoms: C12_20  and  N4_21
REMARK   10  A    between atoms: N5_23  and  C14_24
REMARK   11  A    between atoms: C14_24  and  N6_26
REMARK   12  A    between atoms: N6_26  and  C15_28
REMARK   13  A    between atoms: C25_38  and  C27_40
REMARK   14  A    between atoms: C27_40  and  N7_41
REMARK       I    between atoms: N8_45  and  C31_46
ROOT
HETATM    1  C6  UNL     1      10.637 -18.275 -14.084  1.00  0.00     0.098 C
HETATM    2  C7  UNL     1      11.994 -18.360 -13.354  1.00  0.00     0.034 C
ENDROOT
BRANCH   1   3
HETATM    3  N2  UNL     1      10.785 -19.103 -15.257  1.00  0.00    -0.353 N
HETATM    4  C5  UNL     1       9.626 -19.793 -15.746  1.00  0.00     0.243 C
HETATM    5  O2  UNL     1       8.558 -19.638 -15.126  1.00  0.00    -0.271 OA
ATOM      6  H2  UNL     1      11.687 -19.196 -15.724  1.00  0.00     0.163 HD
BRANCH   4   7
HETATM    7  C4  UNL     1       9.816 -20.632 -16.954  1.00  0.00     0.206 C
HETATM    8  N1  UNL     1      10.397 -19.866 -18.073  1.00  0.00    -0.241 N
HETATM    9  C3  UNL     1       9.627 -18.993 -18.876  1.00  0.00     0.238 C
HETATM   10  N8  UNL     1      11.794 -20.203 -18.135  1.00  0.00    -0.244 N
HETATM   11  O1  UNL     1      10.069 -18.378 -19.847  1.00  0.00    -0.272 OA
HETATM   12  C25 UNL     1      11.735 -21.660 -18.023  1.00  0.00     0.080 C
HETATM   13  C31 UNL     1      12.787 -19.240 -18.214  1.00  0.00     0.235 C
HETATM   14  C24 UNL     1      10.950 -21.590 -16.643  1.00  0.00     0.071 C
HETATM   15  C26 UNL     1      10.739 -22.213 -18.967  1.00  0.00     0.043 C
HETATM   16  C32 UNL     1      12.489 -17.767 -18.209  1.00  0.00     0.119 C
HETATM   17  O4  UNL     1      14.041 -19.452 -18.294  1.00  0.00    -0.272 OA
BRANCH   9  18
HETATM   18  C2  UNL     1       8.183 -18.787 -18.548  1.00  0.00     0.100 C
HETATM   19  C1  UNL     1       7.410 -18.472 -19.803  1.00  0.00     0.014 C
ENDBRANCH   9  18
BRANCH  12  20
HETATM   20  C27 UNL     1      12.889 -22.460 -17.715  1.00  0.00     0.268 C
BRANCH  20  21
HETATM   21  N7  UNL     1      13.839 -22.945 -18.619  1.00  0.00    -0.076 N
HETATM   22  C28 UNL     1      13.914 -22.415 -19.935  1.00  0.00     0.271 C
HETATM   23  C29 UNL     1      15.150 -22.826 -18.027  1.00  0.00     0.271 C
HETATM   24  C30 UNL     1      13.711 -24.451 -18.740  1.00  0.00     0.271 C
ENDBRANCH  20  21
ENDBRANCH  12  20
ENDBRANCH   4   7
ENDBRANCH   1   3
BRANCH   1  25
HETATM   25  C8  UNL     1      10.354 -16.842 -14.465  1.00  0.00     0.147 C
BRANCH  25  26
HETATM   26  N3  UNL     1       8.937 -16.602 -14.302  1.00  0.00    -0.359 N
HETATM   27  C9  UNL     1       8.153 -16.170 -15.413  1.00  0.00     0.217 C
HETATM   28  O3  UNL     1       8.717 -16.005 -16.513  1.00  0.00    -0.274 OA
ATOM     29  H3  UNL     1       8.498 -16.741 -13.392  1.00  0.00     0.162 HD
BRANCH  27  30
HETATM   30  C10 UNL     1       6.719 -15.934 -15.232  1.00  0.00     0.104 C
BRANCH  30  31
HETATM   31  C11 UNL     1       5.912 -17.085 -15.762  1.00  0.00     0.024 C
BRANCH  31  32
HETATM   32  C12 UNL     1       4.737 -16.582 -16.534  1.00  0.00     0.097 C
BRANCH  32  33
HETATM   33  N4  UNL     1       3.551 -17.356 -16.268  1.00  0.00    -0.275 NA
HETATM   34  C13 UNL     1       3.351 -18.401 -17.202  1.00  0.00     0.156 C
HETATM   35  N5  UNL     1       2.732 -18.000 -18.438  1.00  0.00    -0.325 N
HETATM   36  C20 UNL     1       2.245 -16.676 -18.670  1.00  0.00     0.133 C
HETATM   37  C21 UNL     1       2.130 -15.812 -17.487  1.00  0.00     0.040 C
HETATM   38  C22 UNL     1       2.377 -16.505 -16.177  1.00  0.00     0.061 C
HETATM   39  C23 UNL     1       2.553 -15.555 -15.041  1.00  0.00     0.027 C
BRANCH  35  40
HETATM   40  C14 UNL     1       2.601 -18.982 -19.499  1.00  0.00     0.174 C
HETATM   41  S1  UNL     1       3.225 -18.603 -20.948  1.00  0.00    -0.041 SA
BRANCH  40  42
HETATM   42  N6  UNL     1       1.955 -20.211 -19.274  1.00  0.00    -0.362 N
ATOM     43  H6  UNL     1       1.069 -20.222 -18.770  1.00  0.00     0.162 HD
BRANCH  42  44
HETATM   44  C15 UNL     1       2.522 -21.473 -19.744  1.00  0.00     0.083 C
HETATM   45  C16 UNL     1       3.624 -21.972 -18.838  1.00  0.00     0.025 C
HETATM   46  C17 UNL     1       3.531 -23.482 -18.817  1.00  0.00     0.002 C
HETATM   47  C18 UNL     1       2.207 -23.856 -19.427  1.00  0.00     0.002 C
HETATM   48  C19 UNL     1       1.491 -22.575 -19.716  1.00  0.00     0.025 C
ENDBRANCH  42  44
ENDBRANCH  40  42
ENDBRANCH  35  40
ENDBRANCH  32  33
ENDBRANCH  31  32
ENDBRANCH  30  31
ENDBRANCH  27  30
ENDBRANCH  25  26
ENDBRANCH   1  25
TORSDOF 14
ENDMDL