MODEL 1
REMARK VINA RESULT: -9.183241470      0.000      0.000
REMARK  13 active torsions:
REMARK  status: ('A' for Active; 'I' for Inactive)
REMARK    1  A    between atoms: N1_2  and  C2_4
REMARK    2  A    between atoms: C2_4  and  N2_6
REMARK    3  A    between atoms: C4_8  and  C5_9
REMARK    4  A    between atoms: C5_9  and  N3_10
REMARK    5  A    between atoms: C10_15  and  C11_16
REMARK       I    between atoms: C11_16  and  N4_18
REMARK    6  A    between atoms: N5_21  and  C14_22
REMARK    7  A    between atoms: C14_22  and  C15_23
REMARK    8  A    between atoms: C15_23  and  C16_24
REMARK    9  A    between atoms: C16_24  and  C17_25
REMARK   10  A    between atoms: C17_25  and  C18_26
REMARK       I    between atoms: C18_26  and  N6_28
REMARK   11  A    between atoms: C22_35  and  C23_36
REMARK   12  A    between atoms: C23_36  and  C24_37
REMARK       I    between atoms: C24_37  and  N8_39
REMARK   13  A    between atoms: N8_39  and  C25_41
ROOT
HETATM    1  C14 UNL     1      10.968 -20.426 -19.824  1.00  0.00     0.272 C
ENDROOT
BRANCH   1   2
HETATM    2  N5  UNL     1      10.520 -19.076 -20.108  1.00  0.00     0.091 N
HETATM    3  C13 UNL     1       9.784 -19.027 -21.348  1.00  0.00     0.292 C
HETATM    4  C12 UNL     1       8.590 -18.105 -21.322  1.00  0.00     0.156 C
HETATM    5  N4  UNL     1       7.742 -18.475 -20.214  1.00  0.00    -0.347 N
HETATM    6  C11 UNL     1       6.354 -18.203 -20.221  1.00  0.00     0.242 C
HETATM    7  C32 UNL     1       8.358 -19.136 -19.092  1.00  0.00     0.156 C
HETATM    8  O1  UNL     1       5.828 -17.626 -21.234  1.00  0.00    -0.271 OA
HETATM    9  C31 UNL     1       9.766 -18.592 -18.980  1.00  0.00     0.292 C
BRANCH   6  10
HETATM   10  C10 UNL     1       5.445 -18.542 -19.121  1.00  0.00     0.179 C
HETATM   11  N2  UNL     1       5.284 -17.427 -18.187  1.00  0.00    -0.344 N
HETATM   12  C3  UNL     1       3.996 -16.803 -18.406  1.00  0.00     0.132 C
HETATM   13  C4  UNL     1       3.392 -17.477 -19.601  1.00  0.00     0.032 C
HETATM   14  C9  UNL     1       4.043 -18.849 -19.507  1.00  0.00     0.043 C
BRANCH  11  15
HETATM   15  C2  UNL     1       6.217 -16.982 -17.210  1.00  0.00     0.170 C
HETATM   16  S1  UNL     1       7.249 -15.772 -17.549  1.00  0.00    -0.041 SA
BRANCH  15  17
HETATM   17  N1  UNL     1       6.263 -17.577 -15.936  1.00  0.00    -0.371 N
HETATM   18  C1  UNL     1       7.402 -17.387 -15.085  1.00  0.00     0.148 C
ATOM     19  H1  UNL     1       5.482 -18.149 -15.616  1.00  0.00     0.161 HD
ENDBRANCH  15  17
ENDBRANCH  11  15
BRANCH  13  20
HETATM   20  C5  UNL     1       1.912 -17.719 -19.478  1.00  0.00     0.242 C
BRANCH  20  21
HETATM   21  N3  UNL     1       1.147 -17.533 -20.657  1.00  0.00    -0.078 N
HETATM   22  C6  UNL     1       1.920 -16.675 -21.563  1.00  0.00     0.271 C
HETATM   23  C7  UNL     1      -0.038 -16.744 -20.283  1.00  0.00     0.271 C
HETATM   24  C8  UNL     1       0.682 -18.717 -21.305  1.00  0.00     0.271 C
ENDBRANCH  20  21
ENDBRANCH  13  20
ENDBRANCH   6  10
ENDBRANCH   1   2
BRANCH   1  25
HETATM   25  C15 UNL     1      10.594 -21.367 -20.965  1.00  0.00     0.031 C
BRANCH  25  26
HETATM   26  C16 UNL     1      11.757 -22.300 -21.159  1.00  0.00     0.011 C
BRANCH  26  27
HETATM   27  C17 UNL     1      12.974 -21.676 -20.465  1.00  0.00     0.103 C
BRANCH  27  28
HETATM   28  C18 UNL     1      14.058 -22.658 -20.306  1.00  0.00     0.220 C
HETATM   29  O2  UNL     1      14.585 -23.189 -21.346  1.00  0.00    -0.273 OA
HETATM   30  N6  UNL     1      14.538 -23.032 -19.029  1.00  0.00    -0.337 N
HETATM   31  C19 UNL     1      15.667 -23.975 -19.044  1.00  0.00     0.146 C
HETATM   32  C22 UNL     1      14.047 -22.543 -17.805  1.00  0.00     0.188 C
HETATM   33  C20 UNL     1      16.762 -23.312 -18.201  1.00  0.00     0.142 C
HETATM   34  N7  UNL     1      16.226 -23.319 -16.842  1.00  0.00    -0.358 N
HETATM   35  C21 UNL     1      14.960 -22.757 -16.642  1.00  0.00     0.241 C
ATOM     36  H7  UNL     1      16.754 -23.719 -16.067  1.00  0.00     0.162 HD
HETATM   37  O3  UNL     1      14.559 -22.419 -15.511  1.00  0.00    -0.271 OA
BRANCH  32  38
HETATM   38  C23 UNL     1      12.646 -22.866 -17.482  1.00  0.00     0.138 C
BRANCH  38  39
HETATM   39  C24 UNL     1      11.866 -21.935 -16.669  1.00  0.00     0.220 C
HETATM   40  O4  UNL     1      10.704 -22.117 -16.285  1.00  0.00    -0.274 OA
HETATM   41  N8  UNL     1      12.490 -20.689 -16.274  1.00  0.00    -0.356 N
ATOM     42  H8  UNL     1      13.447 -20.474 -16.557  1.00  0.00     0.162 HD
BRANCH  41  43
HETATM   43  C25 UNL     1      11.737 -19.760 -15.474  1.00  0.00     0.084 C
HETATM   44  C26 UNL     1      12.069 -19.878 -14.017  1.00  0.00     0.025 C
HETATM   45  C27 UNL     1      12.347 -18.533 -13.404  1.00  0.00     0.002 C
HETATM   46  C28 UNL     1      11.211 -17.604 -13.824  1.00  0.00     0.000 C
HETATM   47  C29 UNL     1      11.193 -17.389 -15.311  1.00  0.00     0.002 C
HETATM   48  C30 UNL     1      12.121 -18.364 -15.995  1.00  0.00     0.025 C
ENDBRANCH  41  43
ENDBRANCH  38  39
ENDBRANCH  32  38
ENDBRANCH  27  28
ENDBRANCH  26  27
ENDBRANCH  25  26
ENDBRANCH   1  25
TORSDOF 13
ENDMDL