MODEL 2
REMARK VINA RESULT: -9.420025527      2.729      6.508
REMARK  13 active torsions:
REMARK  status: ('A' for Active; 'I' for Inactive)
REMARK    1  A    between atoms: C2_2  and  N1_3
REMARK    2  A    between atoms: C2_2  and  C29_44
REMARK       I    between atoms: N1_3  and  C3_5
REMARK    3  A    between atoms: C3_5  and  C4_7
REMARK       I    between atoms: N2_11  and  C8_12
REMARK    4  A    between atoms: C8_12  and  C9_14
REMARK    5  A    between atoms: N3_18  and  C13_19
REMARK    6  A    between atoms: C13_19  and  O3_20
REMARK    7  A    between atoms: C14_22  and  N4_23
REMARK    8  A    between atoms: C14_22  and  C26_41
REMARK       I    between atoms: N4_23  and  C15_25
REMARK    9  A    between atoms: C15_25  and  C16_27
REMARK   10  A    between atoms: C16_27  and  C17_28
REMARK   11  A    between atoms: C17_28  and  C18_29
REMARK       I    between atoms: C18_29  and  N5_31
REMARK   12  A    between atoms: N5_31  and  C19_33
REMARK   13  A    between atoms: C19_33  and  C20_34
REMARK       I    between atoms: C29_44  and  N7_46
ROOT
HETATM    1  C9  UNL     1      14.837 -21.014 -17.373  1.00  0.00     0.178 C
HETATM    2  C10 UNL     1      15.519 -21.987 -16.483  1.00  0.00     0.037 C
HETATM    3  C11 UNL     1      14.475 -22.342 -15.410  1.00  0.00     0.022 C
HETATM    4  C12 UNL     1      13.181 -22.183 -16.262  1.00  0.00     0.126 C
HETATM    5  N3  UNL     1      13.440 -20.890 -16.818  1.00  0.00    -0.347 N
ENDROOT
BRANCH   5   6
HETATM    6  C13 UNL     1      12.694 -19.703 -17.018  1.00  0.00     0.162 C
HETATM    7  C14 UNL     1      11.389 -19.197 -16.705  1.00  0.00     0.066 C
BRANCH   6   8
HETATM    8  O3  UNL     1      13.487 -18.833 -17.703  1.00  0.00    -0.345 OA
ATOM      9  H3  UNL     1      14.200 -19.335 -18.081  1.00  0.00     0.219 HD
ENDBRANCH   6   8
BRANCH   7  10
HETATM   10  N4  UNL     1      10.674 -18.725 -17.865  1.00  0.00    -0.327 N
HETATM   11  C15 UNL     1      10.355 -19.163 -19.095  1.00  0.00     0.222 C
HETATM   12  O4  UNL     1      10.650 -20.275 -19.580  1.00  0.00    -0.273 OA
ATOM     13  H4  UNL     1      10.303 -17.788 -17.706  1.00  0.00     0.168 HD
BRANCH  11  14
HETATM   14  C16 UNL     1       9.556 -18.279 -20.043  1.00  0.00     0.112 C
BRANCH  14  15
HETATM   15  C17 UNL     1       8.083 -18.562 -19.920  1.00  0.00     0.112 C
BRANCH  15  16
HETATM   16  C18 UNL     1       7.431 -17.484 -19.147  1.00  0.00     0.218 C
HETATM   17  O5  UNL     1       6.181 -17.419 -19.135  1.00  0.00    -0.274 OA
HETATM   18  N5  UNL     1       8.272 -16.553 -18.442  1.00  0.00    -0.359 N
ATOM     19  H5  UNL     1       9.283 -16.678 -18.508  1.00  0.00     0.162 HD
BRANCH  18  20
HETATM   20  C19 UNL     1       7.786 -15.475 -17.662  1.00  0.00     0.158 C
BRANCH  20  21
HETATM   21  C20 UNL     1       7.053 -15.935 -16.426  1.00  0.00     0.240 C
HETATM   22  C21 UNL     1       7.918 -15.804 -15.193  1.00  0.00     0.037 C
HETATM   23  C22 UNL     1       7.359 -14.889 -14.138  1.00  0.00     0.004 C
HETATM   24  C23 UNL     1       6.566 -13.758 -14.727  1.00  0.00     0.030 C
HETATM   25  C24 UNL     1       5.459 -14.311 -15.541  1.00  0.00     0.272 C
HETATM   26  N6  UNL     1       5.720 -15.481 -16.296  1.00  0.00     0.090 N
HETATM   27  C25 UNL     1       4.862 -16.582 -15.800  1.00  0.00     0.310 C
ENDBRANCH  20  21
ENDBRANCH  18  20
ENDBRANCH  15  16
ENDBRANCH  14  15
ENDBRANCH  11  14
ENDBRANCH   7  10
BRANCH   7  28
HETATM   28  C26 UNL     1      10.580 -19.642 -15.602  1.00  0.00     0.032 C
HETATM   29  C27 UNL     1       9.160 -19.348 -15.434  1.00  0.00     0.016 C
HETATM   30  C28 UNL     1      11.258 -19.364 -14.229  1.00  0.00     0.016 C
ENDBRANCH   7  28
ENDBRANCH   5   6
BRANCH   1  31
HETATM   31  C8  UNL     1      14.800 -21.469 -18.753  1.00  0.00     0.243 C
HETATM   32  N2  UNL     1      15.001 -22.814 -19.177  1.00  0.00    -0.337 N
HETATM   33  C4  UNL     1      15.241 -23.935 -18.330  1.00  0.00     0.179 C
HETATM   34  C7  UNL     1      15.001 -23.281 -20.568  1.00  0.00     0.127 C
HETATM   35  C5  UNL     1      14.475 -25.056 -19.065  1.00  0.00     0.037 C
HETATM   36  C6  UNL     1      14.833 -24.762 -20.487  1.00  0.00     0.022 C
HETATM   37  O2  UNL     1      14.574 -20.609 -19.667  1.00  0.00    -0.271 OA
BRANCH  33  38
HETATM   38  C3  UNL     1      16.664 -24.331 -18.166  1.00  0.00     0.241 C
HETATM   39  N1  UNL     1      16.903 -25.572 -17.519  1.00  0.00    -0.346 N
ATOM     40  H1  UNL     1      16.126 -26.149 -17.196  1.00  0.00     0.163 HD
HETATM   41  O1  UNL     1      17.619 -23.649 -18.553  1.00  0.00    -0.271 OA
BRANCH  39  42
HETATM   42  C2  UNL     1      18.291 -26.007 -17.323  1.00  0.00     0.172 C
HETATM   43  C1  UNL     1      18.701 -26.892 -18.487  1.00  0.00     0.042 C
BRANCH  42  44
HETATM   44  C29 UNL     1      18.325 -26.723 -16.018  1.00  0.00     0.242 C
HETATM   45  O6  UNL     1      18.457 -27.996 -15.987  1.00  0.00    -0.271 OA
HETATM   46  N7  UNL     1      18.219 -26.070 -14.770  1.00  0.00    -0.350 N
HETATM   47  C30 UNL     1      18.061 -24.664 -14.561  1.00  0.00     0.126 C
HETATM   48  C34 UNL     1      18.285 -26.910 -13.559  1.00  0.00     0.126 C
HETATM   49  C31 UNL     1      16.898 -24.370 -13.630  1.00  0.00     0.020 C
HETATM   50  C32 UNL     1      16.833 -25.286 -12.455  1.00  0.00     0.003 C
HETATM   51  C33 UNL     1      16.975 -26.744 -12.840  1.00  0.00     0.020 C
ENDBRANCH  42  44
ENDBRANCH  39  42
ENDBRANCH  33  38
ENDBRANCH   1  31
TORSDOF 13
ENDMDL