MODEL 2
REMARK VINA RESULT: -9.945975903      2.259     11.589
REMARK  12 active torsions:
REMARK  status: ('A' for Active; 'I' for Inactive)
REMARK    1  A    between atoms: C2_2  and  C3_3
REMARK    2  A    between atoms: C3_3  and  N1_4
REMARK       I    between atoms: N1_4  and  C4_6
REMARK    3  A    between atoms: C4_6  and  C5_8
REMARK    4  A    between atoms: C6_9  and  C7_10
REMARK       I    between atoms: C7_10  and  N2_12
REMARK       I    between atoms: N3_15  and  C10_16
REMARK    5  A    between atoms: C10_16  and  C11_18
REMARK    6  A    between atoms: C11_18  and  N4_19
REMARK    7  A    between atoms: C11_18  and  C28_42
REMARK       I    between atoms: N4_19  and  C12_21
REMARK    8  A    between atoms: C12_21  and  C13_23
REMARK    9  A    between atoms: C15_25  and  N5_26
REMARK       I    between atoms: N5_26  and  C16_28
REMARK   10  A    between atoms: C16_28  and  C17_30
REMARK   11  A    between atoms: N6_37  and  C24_38
REMARK   12  A    between atoms: C24_38  and  C25_39
ROOT
HETATM    1  C11 UNL     1      10.657 -18.723 -16.111  1.00  0.00     0.180 C
ENDROOT
BRANCH   1   2
HETATM    2  C10 UNL     1      10.559 -20.125 -16.566  1.00  0.00     0.244 C
HETATM    3  N3  UNL     1      11.549 -20.725 -17.408  1.00  0.00    -0.332 N
HETATM    4  C9  UNL     1      12.688 -20.039 -17.935  1.00  0.00     0.147 C
HETATM    5  C31 UNL     1      11.582 -22.104 -17.862  1.00  0.00     0.255 C
HETATM    6  C8  UNL     1      13.140 -20.872 -19.115  1.00  0.00     0.147 C
HETATM    7  N2  UNL     1      12.812 -22.216 -18.608  1.00  0.00    -0.334 N
HETATM    8  C7  UNL     1      13.562 -23.391 -18.810  1.00  0.00     0.226 C
HETATM    9  O2  UNL     1      13.186 -24.467 -18.302  1.00  0.00    -0.273 OA
HETATM   10  O3  UNL     1       9.586 -20.836 -16.220  1.00  0.00    -0.271 OA
BRANCH   8  11
HETATM   11  C6  UNL     1      14.778 -23.336 -19.620  1.00  0.00     0.092 C
HETATM   12  C5  UNL     1      15.938 -24.153 -19.032  1.00  0.00     0.095 C
HETATM   13  C36 UNL     1      16.909 -24.102 -20.188  1.00  0.00     0.003 C
HETATM   14  C33 UNL     1      16.016 -24.338 -21.393  1.00  0.00    -0.009 C
HETATM   15  C35 UNL     1      17.628 -25.363 -20.533  1.00  0.00     0.006 C
HETATM   16  C32 UNL     1      14.614 -24.058 -20.951  1.00  0.00     0.020 C
HETATM   17  C34 UNL     1      16.432 -25.799 -21.343  1.00  0.00     0.005 C
BRANCH  12  18
HETATM   18  C4  UNL     1      16.462 -23.461 -17.822  1.00  0.00     0.223 C
HETATM   19  N1  UNL     1      15.570 -23.137 -16.772  1.00  0.00    -0.357 N
ATOM     20  H1  UNL     1      14.585 -23.385 -16.863  1.00  0.00     0.162 HD
HETATM   21  O1  UNL     1      17.672 -23.153 -17.699  1.00  0.00    -0.273 OA
BRANCH  19  22
HETATM   22  C3  UNL     1      16.022 -22.455 -15.560  1.00  0.00     0.149 C
BRANCH  22  23
HETATM   23  C2  UNL     1      15.334 -21.123 -15.421  1.00  0.00    -0.018 C
HETATM   24  C1  UNL     1      15.965 -20.029 -15.760  1.00  0.00     0.008 C
ENDBRANCH  22  23
ENDBRANCH  19  22
ENDBRANCH  12  18
ENDBRANCH   8  11
ENDBRANCH   1   2
BRANCH   1  25
HETATM   25  N4  UNL     1       9.313 -18.127 -16.029  1.00  0.00    -0.346 N
HETATM   26  C12 UNL     1       8.670 -17.558 -17.166  1.00  0.00     0.252 C
HETATM   27  O4  UNL     1       9.168 -17.509 -18.304  1.00  0.00    -0.271 OA
ATOM     28  H4  UNL     1       8.828 -18.121 -15.132  1.00  0.00     0.163 HD
BRANCH  26  29
HETATM   29  C13 UNL     1       7.295 -16.981 -16.964  1.00  0.00     0.316 C
HETATM   30  C14 UNL     1       6.383 -17.625 -18.006  1.00  0.00     0.071 C
HETATM   31  C15 UNL     1       4.978 -17.197 -17.684  1.00  0.00     0.088 C
HETATM   32  C22 UNL     1       4.929 -15.678 -17.913  1.00  0.00     0.055 C
HETATM   33  C23 UNL     1       5.902 -15.070 -16.969  1.00  0.00     0.275 C
HETATM   34  N6  UNL     1       7.285 -15.564 -17.099  1.00  0.00     0.102 N
BRANCH  31  35
HETATM   35  N5  UNL     1       4.025 -17.918 -18.440  1.00  0.00    -0.356 N
HETATM   36  C16 UNL     1       2.968 -18.692 -17.827  1.00  0.00     0.222 C
HETATM   37  O5  UNL     1       2.915 -18.704 -16.591  1.00  0.00    -0.273 OA
ATOM     38  H5  UNL     1       4.085 -17.891 -19.458  1.00  0.00     0.162 HD
BRANCH  36  39
HETATM   39  C17 UNL     1       1.977 -19.451 -18.623  1.00  0.00     0.078 C
HETATM   40  C18 UNL     1       1.219 -18.588 -19.581  1.00  0.00     0.014 C
HETATM   41  C19 UNL     1       1.742 -18.808 -20.958  1.00  0.00     0.001 C
HETATM   42  C20 UNL     1       2.774 -19.895 -20.851  1.00  0.00     0.001 C
HETATM   43  C21 UNL     1       2.705 -20.461 -19.462  1.00  0.00     0.014 C
ENDBRANCH  36  39
ENDBRANCH  31  35
BRANCH  34  44
HETATM   44  C24 UNL     1       7.978 -14.965 -15.939  1.00  0.00     0.278 C
BRANCH  44  45
HETATM   45  C25 UNL     1       7.198 -15.124 -14.687  1.00  0.00     0.014 A
HETATM   46  C26 UNL     1       7.813 -14.533 -13.425  1.00  0.00     0.007 A
HETATM   47  C27 UNL     1       6.722 -13.799 -14.083  1.00  0.00     0.007 A
ENDBRANCH  44  45
ENDBRANCH  34  44
ENDBRANCH  26  29
ENDBRANCH   1  25
BRANCH   1  48
HETATM   48  C28 UNL     1      11.269 -18.706 -14.720  1.00  0.00     0.009 C
HETATM   49  C29 UNL     1      12.710 -18.299 -14.765  1.00  0.00     0.012 C
HETATM   50  C30 UNL     1      10.471 -17.853 -13.750  1.00  0.00     0.012 C
ENDBRANCH   1  48
TORSDOF 12
ENDMDL