MODEL 1
REMARK VINA RESULT: -8.955840689      0.000      0.000
REMARK  14 active torsions:
REMARK  status: ('A' for Active; 'I' for Inactive)
REMARK    1  A    between atoms: C2_2  and  N1_3
REMARK       I    between atoms: N2_7  and  C5_8
REMARK    2  A    between atoms: C5_8  and  C6_10
REMARK    3  A    between atoms: N3_13  and  C10_15
REMARK    4  A    between atoms: C10_15  and  C11_16
REMARK    5  A    between atoms: C11_16  and  O3_17
REMARK    6  A    between atoms: C11_16  and  C12_19
REMARK    7  A    between atoms: C12_19  and  C13_20
REMARK       I    between atoms: C13_20  and  N4_22
REMARK    8  A    between atoms: N4_22  and  C15_24
REMARK    9  A    between atoms: C15_24  and  C16_25
REMARK   10  A    between atoms: C16_25  and  C17_26
REMARK   11  A    between atoms: C17_26  and  C18_27
REMARK   12  A    between atoms: C18_27  and  N5_29
REMARK       I    between atoms: N5_29  and  C20_31
REMARK   13  A    between atoms: C20_31  and  C21_33
REMARK   14  A    between atoms: C23_35  and  N6_36
REMARK       I    between atoms: N6_36  and  C24_38
ROOT
HETATM    1  C12 UNL     1      13.480 -19.144 -14.644  1.00  0.00     0.136 C
ENDROOT
BRANCH   1   2
HETATM    2  C11 UNL     1      13.306 -20.622 -14.885  1.00  0.00     0.152 C
BRANCH   2   3
HETATM    3  C10 UNL     1      14.414 -21.302 -15.572  1.00  0.00     0.268 C
BRANCH   3   4
HETATM    4  N3  UNL     1      14.233 -21.774 -16.918  1.00  0.00    -0.068 N
HETATM    5  C8  UNL     1      14.531 -20.638 -17.765  1.00  0.00     0.238 C
HETATM    6  C7  UNL     1      13.934 -20.717 -19.124  1.00  0.00     0.043 C
HETATM    7  C6  UNL     1      12.450 -20.743 -18.927  1.00  0.00     0.089 C
HETATM    8  C30 UNL     1      12.111 -22.034 -18.248  1.00  0.00    -0.011 C
HETATM    9  C29 UNL     1      12.918 -22.317 -17.051  1.00  0.00     0.246 C
HETATM   10  C31 UNL     1      10.650 -21.852 -17.771  1.00  0.00     0.017 C
HETATM   11  C32 UNL     1      12.081 -23.229 -19.172  1.00  0.00     0.017 C
HETATM   12  C9  UNL     1      15.166 -22.800 -17.334  1.00  0.00     0.272 C
BRANCH   7  13
HETATM   13  C5  UNL     1      11.639 -20.421 -20.087  1.00  0.00     0.225 C
HETATM   14  N2  UNL     1      10.689 -19.400 -20.180  1.00  0.00    -0.347 N
HETATM   15  C4  UNL     1      10.309 -18.467 -19.147  1.00  0.00     0.162 C
HETATM   16  C33 UNL     1       9.958 -19.213 -21.450  1.00  0.00     0.162 C
HETATM   17  C3  UNL     1       9.102 -17.682 -19.536  1.00  0.00     0.331 C
HETATM   18  N1  UNL     1       8.075 -18.376 -20.235  1.00  0.00     0.016 N
HETATM   19  O1  UNL     1       7.504 -17.448 -21.082  1.00  0.00    -0.064 OA
HETATM   20  C34 UNL     1       8.504 -19.457 -21.077  1.00  0.00     0.331 C
HETATM   21  O2  UNL     1      11.812 -21.144 -21.128  1.00  0.00    -0.273 OA
BRANCH  18  22
HETATM   22  C2  UNL     1       6.981 -18.796 -19.378  1.00  0.00     0.307 C
HETATM   23  C1  UNL     1       5.626 -18.549 -19.948  1.00  0.00     0.044 C
ENDBRANCH  18  22
ENDBRANCH   7  13
ENDBRANCH   3   4
ENDBRANCH   2   3
BRANCH   2  24
HETATM   24  O3  UNL     1      12.667 -21.284 -13.869  1.00  0.00    -0.393 OA
ATOM     25  H3  UNL     1      12.046 -20.801 -13.338  1.00  0.00     0.210 HD
ENDBRANCH   2  24
ENDBRANCH   1   2
BRANCH   1  26
HETATM   26  C13 UNL     1      12.402 -18.350 -15.289  1.00  0.00     0.221 C
HETATM   27  O4  UNL     1      12.446 -18.190 -16.526  1.00  0.00    -0.273 OA
HETATM   28  N4  UNL     1      11.336 -17.774 -14.560  1.00  0.00    -0.356 N
HETATM   29  C14 UNL     1      11.252 -17.901 -13.111  1.00  0.00     0.152 C
BRANCH  28  30
HETATM   30  C15 UNL     1      10.276 -17.045 -15.261  1.00  0.00     0.125 C
BRANCH  30  31
HETATM   31  C16 UNL     1       9.375 -16.462 -14.209  1.00  0.00     0.022 C
BRANCH  31  32
HETATM   32  C17 UNL     1       8.041 -16.131 -14.804  1.00  0.00     0.026 C
BRANCH  32  33
HETATM   33  C18 UNL     1       7.496 -17.319 -15.519  1.00  0.00     0.080 C
HETATM   34  C19 UNL     1       7.663 -18.536 -14.587  1.00  0.00     0.032 C
BRANCH  33  35
HETATM   35  N5  UNL     1       6.063 -17.230 -15.785  1.00  0.00    -0.356 N
HETATM   36  C20 UNL     1       5.539 -16.481 -16.859  1.00  0.00     0.223 C
HETATM   37  O5  UNL     1       6.405 -15.880 -17.583  1.00  0.00    -0.273 OA
ATOM     38  H5  UNL     1       5.417 -17.729 -15.172  1.00  0.00     0.162 HD
BRANCH  36  39
HETATM   39  C21 UNL     1       4.116 -16.395 -17.126  1.00  0.00     0.089 C
HETATM   40  C22 UNL     1       3.353 -17.220 -16.069  1.00  0.00     0.041 C
HETATM   41  C23 UNL     1       2.239 -16.195 -16.249  1.00  0.00     0.093 C
HETATM   42  C26 UNL     1       3.301 -15.220 -16.735  1.00  0.00    -0.015 C
HETATM   43  C27 UNL     1       2.784 -14.495 -17.981  1.00  0.00     0.018 C
HETATM   44  C28 UNL     1       3.824 -14.243 -15.746  1.00  0.00     0.018 C
BRANCH  41  45
HETATM   45  N6  UNL     1       1.586 -15.851 -15.008  1.00  0.00    -0.356 N
HETATM   46  C24 UNL     1       0.248 -15.387 -15.017  1.00  0.00     0.213 C
HETATM   47  C25 UNL     1      -0.401 -15.041 -13.732  1.00  0.00     0.117 C
HETATM   48  O6  UNL     1      -0.421 -15.253 -16.070  1.00  0.00    -0.274 OA
ATOM     49  H6  UNL     1       2.089 -15.943 -14.124  1.00  0.00     0.162 HD
ENDBRANCH  41  45
ENDBRANCH  36  39
ENDBRANCH  33  35
ENDBRANCH  32  33
ENDBRANCH  31  32
ENDBRANCH  30  31
ENDBRANCH  28  30
ENDBRANCH   1  26
TORSDOF 14
ENDMDL