MODEL 4
REMARK VINA RESULT: -8.711238045      2.105      4.904
REMARK  13 active torsions:
REMARK  status: ('A' for Active; 'I' for Inactive)
REMARK    1  A    between atoms: C2_2  and  C4_4
REMARK    2  A    between atoms: C4_4  and  C5_5
REMARK    3  A    between atoms: C5_5  and  C6_6
REMARK       I    between atoms: N1_9  and  C9_10
REMARK    4  A    between atoms: C9_10  and  C10_12
REMARK    5  A    between atoms: C12_14  and  C13_15
REMARK    6  A    between atoms: C15_17  and  N2_18
REMARK    7  A    between atoms: N4_23  and  C17_24
REMARK    8  A    between atoms: C19_26  and  C20_27
REMARK    9  A    between atoms: C20_27  and  C21_28
REMARK   10  A    between atoms: C21_28  and  N5_29
REMARK       I    between atoms: N5_29  and  C22_30
REMARK   11  A    between atoms: N7_39  and  C27_40
REMARK   12  A    between atoms: C27_40  and  C28_41
REMARK   13  A    between atoms: C28_41  and  C29_42
ROOT
HETATM    1  C10 UNL     1     -12.803  20.067 -16.465  1.00  0.00     0.178 C
HETATM    2  C11 UNL     1     -11.888  18.955 -15.970  1.00  0.00     0.124 C
HETATM    3  C12 UNL     1     -10.472  19.175 -15.713  1.00  0.00     0.054 C
HETATM    4  C15 UNL     1     -10.694  17.558 -15.726  1.00  0.00     0.222 C
HETATM    5  N6  UNL     1     -11.473  17.904 -16.817  1.00  0.00    -0.318 N
HETATM    6  C25 UNL     1     -12.137  17.992 -18.120  1.00  0.00     0.256 C
HETATM    7  O4  UNL     1     -12.430  16.935 -18.659  1.00  0.00    -0.267 OA
HETATM    8  C26 UNL     1     -12.418  19.288 -18.704  1.00  0.00     0.135 C
HETATM    9  N7  UNL     1     -12.551  20.415 -17.792  1.00  0.00    -0.273 NA
ENDROOT
BRANCH   4  10
HETATM   10  N2  UNL     1      -9.494  16.912 -15.594  1.00  0.00    -0.127 N
HETATM   11  C16 UNL     1      -8.889  16.223 -16.723  1.00  0.00     0.681 C
HETATM   12  N3  UNL     1      -9.158  16.305 -17.978  1.00  0.00    -0.234 N
HETATM   13  N4  UNL     1      -7.846  15.446 -16.200  1.00  0.00    -0.205 N
ATOM     14  H32 UNL     1      -9.917  16.871 -18.358  1.00  0.00     0.174 HD
ATOM     15  H31 UNL     1      -8.733  15.821 -18.769  1.00  0.00     0.174 HD
HETATM   16  C19 UNL     1      -7.337  16.147 -15.039  1.00  0.00     0.197 C
HETATM   17  C24 UNL     1      -8.757  16.519 -14.470  1.00  0.00     0.263 C
HETATM   18  O3  UNL     1      -8.950  16.413 -13.252  1.00  0.00    -0.270 OA
BRANCH  13  19
HETATM   19  C17 UNL     1      -7.240  14.190 -16.637  1.00  0.00     0.138 C
HETATM   20  C18 UNL     1      -6.460  13.712 -15.389  1.00  0.00     0.027 C
ENDBRANCH  13  19
BRANCH  16  21
HETATM   21  C20 UNL     1      -6.832  17.497 -15.488  1.00  0.00     0.069 C
BRANCH  21  22
HETATM   22  C21 UNL     1      -5.357  17.204 -16.081  1.00  0.00     0.224 C
BRANCH  22  23
HETATM   23  N5  UNL     1      -5.524  17.239 -17.424  1.00  0.00    -0.416 NA
HETATM   24  C22 UNL     1      -5.704  17.266 -18.804  1.00  0.00     0.282 C
HETATM   25  C23 UNL     1      -5.103  18.250 -19.732  1.00  0.00     0.134 C
HETATM   26  O2  UNL     1      -6.428  16.400 -19.422  1.00  0.00    -0.258 OA
ENDBRANCH  22  23
ENDBRANCH  21  22
ENDBRANCH  16  21
ENDBRANCH   4  10
BRANCH   3  27
HETATM   27  C13 UNL     1      -9.419  19.756 -16.412  1.00  0.00     0.006 C
HETATM   28  C14 UNL     1      -9.058  19.852 -17.825  1.00  0.00     0.006 C
ENDBRANCH   3  27
BRANCH   1  29
HETATM   29  C9  UNL     1     -12.756  20.973 -15.343  1.00  0.00     0.243 C
HETATM   30  N1  UNL     1     -13.951  21.741 -14.977  1.00  0.00    -0.330 N
HETATM   31  C8  UNL     1     -15.003  22.112 -15.825  1.00  0.00     0.067 C
HETATM   32  C34 UNL     1     -14.083  21.952 -13.521  1.00  0.00     0.131 C
HETATM   33  C7  UNL     1     -16.342  22.182 -15.178  1.00  0.00     0.049 C
HETATM   34  C6  UNL     1     -16.428  22.683 -13.791  1.00  0.00    -0.008 C
HETATM   35  C35 UNL     1     -15.082  22.890 -13.103  1.00  0.00     0.025 C
HETATM   36  O1  UNL     1     -11.769  21.190 -14.566  1.00  0.00    -0.271 OA
BRANCH  34  37
HETATM   37  C5  UNL     1     -17.092  24.031 -13.651  1.00  0.00     0.009 C
BRANCH  37  38
HETATM   38  C4  UNL     1     -17.675  24.376 -12.337  1.00  0.00     0.033 C
BRANCH  38  39
HETATM   39  C2  UNL     1     -17.062  25.699 -11.912  1.00  0.00    -0.093 C
HETATM   40  C1  UNL     1     -15.963  26.159 -12.466  1.00  0.00     0.014 C
HETATM   41  C3  UNL     1     -17.721  26.459 -10.854  1.00  0.00     0.042 C
ENDBRANCH  38  39
ENDBRANCH  37  38
ENDBRANCH  34  37
ENDBRANCH   1  29
BRANCH   9  42
HETATM   42  C27 UNL     1     -13.503  21.298 -18.365  1.00  0.00     0.098 C
BRANCH  42  43
HETATM   43  C28 UNL     1     -13.189  22.017 -19.620  1.00  0.00     0.050 C
BRANCH  43  44
HETATM   44  C29 UNL     1     -14.418  22.750 -20.139  1.00  0.00     0.223 C
HETATM   45  C30 UNL     1     -14.962  23.583 -19.008  1.00  0.00     0.037 C
HETATM   46  C31 UNL     1     -14.940  25.014 -19.473  1.00  0.00     0.032 C
HETATM   47  C32 UNL     1     -14.775  24.899 -20.950  1.00  0.00     0.272 C
HETATM   48  N8  UNL     1     -14.144  23.630 -21.219  1.00  0.00     0.088 N
HETATM   49  C33 UNL     1     -12.783  23.864 -21.556  1.00  0.00     0.310 C
ENDBRANCH  43  44
ENDBRANCH  42  43
ENDBRANCH   9  42
TORSDOF 13
ENDMDL