MODEL 5
REMARK VINA RESULT: -9.752998756      3.308     12.014
REMARK  11 active torsions:
REMARK  status: ('A' for Active; 'I' for Inactive)
REMARK    1  A    between atoms: C2_2  and  C3_3
REMARK    2  A    between atoms: C3_3  and  N1_4
REMARK    3  A    between atoms: C3_3  and  C11_18
REMARK       I    between atoms: N1_4  and  C4_6
REMARK    4  A    between atoms: C4_6  and  C5_8
REMARK    5  A    between atoms: C5_8  and  N2_9
REMARK       I    between atoms: C11_18  and  N4_20
REMARK    6  A    between atoms: C13_22  and  C14_23
REMARK    7  A    between atoms: C15_24  and  C17_26
REMARK    8  A    between atoms: C17_26  and  C18_27
REMARK    9  A    between atoms: C24_33  and  C25_34
REMARK       I    between atoms: C25_34  and  N5_36
REMARK   10  A    between atoms: N5_36  and  C26_38
REMARK   11  A    between atoms: C26_38  and  C28_40
REMARK       I    between atoms: C28_40  and  N6_42
REMARK       I    between atoms: N7_47  and  C33_48
ROOT
HETATM    1  C11 UNL     1     -13.899  23.754 -19.971  1.00  0.00     0.242 C
HETATM    2  O3  UNL     1     -13.104  24.289 -20.829  1.00  0.00    -0.271 OA
HETATM    3  N4  UNL     1     -13.252  23.124 -18.891  1.00  0.00    -0.346 N
HETATM    4  C12 UNL     1     -14.098  22.466 -17.893  1.00  0.00     0.162 C
HETATM    5  C13 UNL     1     -13.393  22.588 -16.593  1.00  0.00    -0.039 C
HETATM    6  C21 UNL     1     -12.155  21.718 -16.646  1.00  0.00     0.127 C
HETATM    7  C22 UNL     1     -11.249  22.198 -17.738  1.00  0.00     0.063 C
HETATM    8  C23 UNL     1     -11.849  23.135 -18.716  1.00  0.00     0.135 C
HETATM    9  C24 UNL     1     -11.227  20.785 -18.229  1.00  0.00     0.188 C
HETATM   10  N7  UNL     1     -12.238  20.431 -17.250  1.00  0.00    -0.329 N
HETATM   11  C33 UNL     1     -12.960  19.241 -17.049  1.00  0.00     0.217 C
HETATM   12  C34 UNL     1     -12.822  18.009 -17.882  1.00  0.00     0.117 C
HETATM   13  O6  UNL     1     -13.786  19.178 -16.112  1.00  0.00    -0.274 OA
ENDROOT
BRANCH   1  14
HETATM   14  C3  UNL     1     -15.342  23.852 -20.187  1.00  0.00     0.176 C
BRANCH  14  15
HETATM   15  C2  UNL     1     -15.820  23.932 -21.590  1.00  0.00     0.030 C
HETATM   16  C1  UNL     1     -16.183  25.387 -21.924  1.00  0.00     0.007 C
ENDBRANCH  14  15
BRANCH  14  17
HETATM   17  N1  UNL     1     -15.790  25.054 -19.440  1.00  0.00    -0.347 N
HETATM   18  C4  UNL     1     -17.020  24.962 -18.764  1.00  0.00     0.233 C
HETATM   19  O1  UNL     1     -17.688  23.911 -18.788  1.00  0.00    -0.272 OA
ATOM     20  H1  UNL     1     -15.232  25.908 -19.419  1.00  0.00     0.163 HD
BRANCH  18  21
HETATM   21  C5  UNL     1     -17.506  26.127 -18.026  1.00  0.00     0.216 C
BRANCH  21  22
HETATM   22  N2  UNL     1     -18.903  26.160 -17.776  1.00  0.00    -0.220 NA
HETATM   23  C6  UNL     1     -19.245  26.594 -16.440  1.00  0.00     0.114 C
HETATM   24  C7  UNL     1     -18.629  27.937 -16.113  1.00  0.00     0.017 C
HETATM   25  C8  UNL     1     -18.986  29.028 -17.067  1.00  0.00     0.010 C
HETATM   26  C9  UNL     1     -20.401  28.949 -17.592  1.00  0.00     0.104 C
HETATM   27  C10 UNL     1     -20.426  27.954 -18.692  1.00  0.00     0.232 C
HETATM   28  O2  UNL     1     -21.200  28.146 -19.674  1.00  0.00    -0.272 OA
HETATM   29  N3  UNL     1     -19.642  26.763 -18.758  1.00  0.00    -0.289 N
ATOM     30  H3  UNL     1     -19.632  26.295 -19.665  1.00  0.00     0.184 HD
ENDBRANCH  21  22
ENDBRANCH  18  21
ENDBRANCH  14  17
ENDBRANCH   1  14
BRANCH   5  31
HETATM   31  C14 UNL     1     -14.133  22.591 -15.368  1.00  0.00     0.009 C
HETATM   32  C15 UNL     1     -15.407  22.394 -15.050  1.00  0.00    -0.083 C
HETATM   33  C16 UNL     1     -16.486  22.084 -16.006  1.00  0.00     0.043 C
BRANCH  32  34
HETATM   34  C17 UNL     1     -15.734  22.441 -13.604  1.00  0.00     0.037 C
BRANCH  34  35
HETATM   35  C18 UNL     1     -16.577  23.606 -13.239  1.00  0.00    -0.019 C
HETATM   36  C19 UNL     1     -15.650  24.788 -12.800  1.00  0.00     0.010 C
HETATM   37  C20 UNL     1     -17.507  23.456 -12.076  1.00  0.00     0.010 C
ENDBRANCH  34  35
ENDBRANCH  32  34
ENDBRANCH   5  31
BRANCH   9  38
HETATM   38  C25 UNL     1      -9.929  20.073 -18.102  1.00  0.00     0.241 C
HETATM   39  O4  UNL     1      -9.214  20.339 -17.105  1.00  0.00    -0.271 OA
HETATM   40  N5  UNL     1      -9.475  19.132 -19.039  1.00  0.00    -0.346 N
ATOM     41  H5  UNL     1     -10.080  18.948 -19.840  1.00  0.00     0.163 HD
BRANCH  40  42
HETATM   42  C26 UNL     1      -8.234  18.400 -18.977  1.00  0.00     0.172 C
HETATM   43  C27 UNL     1      -7.884  17.855 -20.365  1.00  0.00     0.042 C
BRANCH  42  44
HETATM   44  C28 UNL     1      -8.294  17.246 -18.070  1.00  0.00     0.242 C
HETATM   45  O5  UNL     1      -9.404  16.713 -17.730  1.00  0.00    -0.271 OA
HETATM   46  N6  UNL     1      -7.131  16.686 -17.544  1.00  0.00    -0.345 N
HETATM   47  C29 UNL     1      -5.683  16.834 -17.523  1.00  0.00     0.133 C
HETATM   48  C32 UNL     1      -6.802  15.549 -16.696  1.00  0.00     0.093 A
HETATM   49  C30 UNL     1      -5.944  16.694 -16.013  1.00  0.00     0.029 A
HETATM   50  C31 UNL     1      -6.445  15.534 -15.324  1.00  0.00     0.034 A
ENDBRANCH  42  44
ENDBRANCH  40  42
ENDBRANCH   9  38
TORSDOF 11
ENDMDL