MODEL 1
REMARK VINA RESULT: -9.419787010      0.000      0.000
REMARK  12 active torsions:
REMARK  status: ('A' for Active; 'I' for Inactive)
REMARK    1  A    between atoms: C2_2  and  C3_3
REMARK    2  A    between atoms: C6_6  and  C7_7
REMARK       I    between atoms: C7_7  and  N1_9
REMARK    3  A    between atoms: C11_13  and  C12_14
REMARK       I    between atoms: C12_14  and  N2_16
REMARK    4  A    between atoms: N3_19  and  C15_20
REMARK    5  A    between atoms: C15_20  and  C17_22
REMARK       I    between atoms: C17_22  and  N4_24
REMARK    6  A    between atoms: N4_24  and  C18_26
REMARK    7  A    between atoms: C18_26  and  C19_27
REMARK    8  A    between atoms: C19_27  and  N5_28
REMARK       I    between atoms: N6_34  and  C25_35
REMARK       I    between atoms: C25_35  and  N7_37
REMARK    9  A    between atoms: N7_37  and  C26_39
REMARK   10  A    between atoms: C26_39  and  C27_40
REMARK   11  A    between atoms: C26_39  and  C34_47
REMARK   12  A    between atoms: C27_40  and  C28_41
ROOT
HETATM    1  C7  UNL     1      -9.348  18.635 -18.670  1.00  0.00     0.243 C
HETATM    2  O1  UNL     1      -8.721  18.951 -17.633  1.00  0.00    -0.271 OA
HETATM    3  N1  UNL     1      -8.748  17.963 -19.723  1.00  0.00    -0.337 N
HETATM    4  C8  UNL     1      -9.581  17.588 -20.926  1.00  0.00     0.127 C
HETATM    5  C9  UNL     1      -8.715  18.187 -22.010  1.00  0.00     0.022 C
HETATM    6  C10 UNL     1      -7.280  18.189 -21.444  1.00  0.00     0.037 C
HETATM    7  C11 UNL     1      -7.476  17.459 -20.131  1.00  0.00     0.179 C
ENDROOT
BRANCH   1   8
HETATM    8  C6  UNL     1     -10.822  19.038 -18.705  1.00  0.00     0.182 C
HETATM    9  C5  UNL     1     -10.856  20.193 -19.688  1.00  0.00     0.037 C
HETATM   10  C4  UNL     1     -10.162  21.304 -18.904  1.00  0.00     0.032 C
HETATM   11  C3  UNL     1     -10.642  21.070 -17.481  1.00  0.00     0.112 C
HETATM   12  N6  UNL     1     -11.124  19.719 -17.435  1.00  0.00    -0.312 N
HETATM   13  C25 UNL     1     -11.767  19.133 -16.289  1.00  0.00     0.324 C
HETATM   14  O4  UNL     1     -12.201  17.980 -16.467  1.00  0.00    -0.247 OA
HETATM   15  N7  UNL     1     -11.902  19.780 -15.066  1.00  0.00    -0.309 N
ATOM     16  H7  UNL     1     -11.474  20.705 -15.073  1.00  0.00     0.170 HD
BRANCH  11  17
HETATM   17  C2  UNL     1     -11.778  22.068 -17.323  1.00  0.00    -0.012 C
HETATM   18  C1  UNL     1     -12.063  22.877 -18.308  1.00  0.00     0.009 C
ENDBRANCH  11  17
BRANCH  15  19
HETATM   19  C26 UNL     1     -12.480  19.477 -13.826  1.00  0.00     0.059 C
BRANCH  19  20
HETATM   20  C27 UNL     1     -13.229  20.665 -13.323  1.00  0.00     0.065 C
BRANCH  20  21
HETATM   21  C28 UNL     1     -13.899  21.515 -14.342  1.00  0.00    -0.009 C
HETATM   22  C29 UNL     1     -15.171  20.743 -14.768  1.00  0.00     0.005 C
HETATM   23  C30 UNL     1     -16.149  21.726 -15.406  1.00  0.00     0.000 C
HETATM   24  C31 UNL     1     -16.817  22.574 -14.325  1.00  0.00     0.000 C
HETATM   25  C32 UNL     1     -15.766  22.828 -13.266  1.00  0.00     0.000 C
HETATM   26  C33 UNL     1     -14.384  22.852 -13.907  1.00  0.00     0.005 C
ENDBRANCH  20  21
ENDBRANCH  19  20
BRANCH  19  27
HETATM   27  C34 UNL     1     -11.801  18.748 -12.784  1.00  0.00     0.168 C
HETATM   28  C35 UNL     1     -10.690  17.758 -13.065  1.00  0.00     0.098 C
HETATM   29  O5  UNL     1     -12.051  18.865 -11.613  1.00  0.00    -0.292 OA
ENDBRANCH  19  27
ENDBRANCH  15  19
ENDBRANCH   1   8
BRANCH   7  30
HETATM   30  C12 UNL     1      -6.376  17.444 -19.211  1.00  0.00     0.242 C
HETATM   31  O2  UNL     1      -5.379  18.254 -19.302  1.00  0.00    -0.271 OA
HETATM   32  N2  UNL     1      -6.261  16.546 -18.104  1.00  0.00    -0.347 N
HETATM   33  C13 UNL     1      -5.084  16.622 -17.214  1.00  0.00     0.156 C
HETATM   34  C24 UNL     1      -7.211  15.532 -17.747  1.00  0.00     0.156 C
HETATM   35  C14 UNL     1      -4.489  15.273 -17.060  1.00  0.00     0.293 C
HETATM   36  N3  UNL     1      -5.476  14.283 -16.629  1.00  0.00     0.104 N
HETATM   37  C23 UNL     1      -6.736  14.979 -16.386  1.00  0.00     0.293 C
BRANCH  36  38
HETATM   38  C15 UNL     1      -4.975  13.714 -15.404  1.00  0.00     0.310 C
HETATM   39  C16 UNL     1      -6.101  13.394 -14.476  1.00  0.00     0.053 C
BRANCH  38  40
HETATM   40  C17 UNL     1      -4.049  12.582 -15.603  1.00  0.00     0.251 C
HETATM   41  O3  UNL     1      -2.827  12.861 -15.700  1.00  0.00    -0.271 OA
HETATM   42  N4  UNL     1      -4.434  11.222 -15.690  1.00  0.00    -0.358 N
ATOM     43  H4  UNL     1      -5.418  10.963 -15.613  1.00  0.00     0.162 HD
BRANCH  42  44
HETATM   44  C18 UNL     1      -3.427  10.199 -15.890  1.00  0.00     0.150 C
BRANCH  44  45
HETATM   45  C19 UNL     1      -3.734   9.341 -17.091  1.00  0.00     0.255 C
BRANCH  45  46
HETATM   46  N5  UNL     1      -4.053   7.986 -16.715  1.00  0.00    -0.077 N
HETATM   47  C20 UNL     1      -3.312   7.604 -15.521  1.00  0.00     0.271 C
HETATM   48  C21 UNL     1      -3.657   7.108 -17.803  1.00  0.00     0.271 C
HETATM   49  C22 UNL     1      -5.482   7.789 -16.499  1.00  0.00     0.271 C
ENDBRANCH  45  46
ENDBRANCH  44  45
ENDBRANCH  42  44
ENDBRANCH  38  40
ENDBRANCH  36  38
ENDBRANCH   7  30
TORSDOF 12
ENDMDL