MODEL 1
REMARK VINA RESULT: -8.971457012      0.000      0.000
REMARK  12 active torsions:
REMARK  status: ('A' for Active; 'I' for Inactive)
REMARK    1  A    between atoms: C2_2  and  S1_3
REMARK    2  A    between atoms: S1_3  and  C4_5
REMARK    3  A    between atoms: C4_5  and  C5_6
REMARK    4  A    between atoms: C5_6  and  N1_7
REMARK    5  A    between atoms: N1_7  and  C8_10
REMARK    6  A    between atoms: C8_10  and  C9_11
REMARK    7  A    between atoms: C9_11  and  N2_12
REMARK    8  A    between atoms: C12_15  and  N3_16
REMARK       I    between atoms: N3_16  and  C13_18
REMARK    9  A    between atoms: C13_18  and  C14_20
REMARK   10  A    between atoms: C14_20  and  C15_21
REMARK   11  A    between atoms: C27_38  and  C28_39
REMARK   12  A    between atoms: C28_39  and  C29_40
ROOT
HETATM    1  C15 UNL     1      -6.877  17.316 -18.836  1.00  0.00     0.086 C
HETATM    2  C16 UNL     1      -6.172  17.697 -20.130  1.00  0.00     0.014 C
HETATM    3  C17 UNL     1      -4.878  18.427 -19.858  1.00  0.00     0.002 C
HETATM    4  C18 UNL     1      -3.952  18.231 -21.020  1.00  0.00     0.020 C
HETATM    5  C19 UNL     1      -2.771  17.343 -20.705  1.00  0.00     0.125 C
HETATM    6  N4  UNL     1      -1.916  17.892 -19.671  1.00  0.00    -0.356 N
HETATM    7  C20 UNL     1      -1.708  19.347 -19.709  1.00  0.00     0.152 C
HETATM    8  C21 UNL     1      -1.299  17.093 -18.664  1.00  0.00     0.219 C
HETATM    9  O2  UNL     1      -1.086  17.651 -17.553  1.00  0.00    -0.273 OA
HETATM   10  C22 UNL     1      -0.911  15.674 -18.874  1.00  0.00     0.103 C
HETATM   11  C23 UNL     1      -1.922  14.710 -18.345  1.00  0.00     0.011 C
HETATM   12  C24 UNL     1      -1.619  14.233 -16.950  1.00  0.00     0.020 C
HETATM   13  C25 UNL     1      -2.894  14.143 -16.101  1.00  0.00     0.122 C
HETATM   14  N5  UNL     1      -3.317  15.450 -15.667  1.00  0.00    -0.359 N
ATOM     15  H5  UNL     1      -2.649  15.987 -15.114  1.00  0.00     0.162 HD
HETATM   16  C26 UNL     1      -4.555  16.062 -15.926  1.00  0.00     0.240 C
HETATM   17  O3  UNL     1      -4.620  17.323 -15.841  1.00  0.00    -0.271 OA
HETATM   18  C27 UNL     1      -5.802  15.349 -16.295  1.00  0.00     0.177 C
HETATM   19  N6  UNL     1      -5.890  15.199 -17.725  1.00  0.00    -0.347 N
ATOM     20  H6  UNL     1      -5.256  14.510 -18.129  1.00  0.00     0.163 HD
HETATM   21  C32 UNL     1      -6.710  15.853 -18.636  1.00  0.00     0.223 C
HETATM   22  O4  UNL     1      -7.434  15.148 -19.428  1.00  0.00    -0.273 OA
ENDROOT
BRANCH   1  23
HETATM   23  C14 UNL     1      -8.335  17.588 -18.977  1.00  0.00     0.117 C
BRANCH  23  24
HETATM   24  C13 UNL     1      -8.885  18.631 -18.113  1.00  0.00     0.218 C
HETATM   25  N3  UNL     1      -9.554  18.273 -16.920  1.00  0.00    -0.356 N
ATOM     26  H3  UNL     1      -9.644  17.285 -16.681  1.00  0.00     0.162 HD
HETATM   27  O1  UNL     1      -8.770  19.832 -18.416  1.00  0.00    -0.274 OA
BRANCH  25  28
HETATM   28  C12 UNL     1     -10.122  19.274 -16.017  1.00  0.00     0.087 C
HETATM   29  C11 UNL     1     -10.304  18.651 -14.631  1.00  0.00     0.055 C
HETATM   30  C10 UNL     1     -11.495  19.251 -13.949  1.00  0.00     0.274 C
HETATM   31  N2  UNL     1     -12.745  18.871 -14.595  1.00  0.00     0.090 N
HETATM   32  C34 UNL     1     -12.508  18.636 -15.986  1.00  0.00     0.274 C
HETATM   33  C33 UNL     1     -11.492  19.625 -16.555  1.00  0.00     0.055 C
BRANCH  31  34
HETATM   34  C9  UNL     1     -13.756  19.838 -14.309  1.00  0.00     0.300 C
BRANCH  34  35
HETATM   35  C8  UNL     1     -14.849  19.931 -15.332  1.00  0.00     0.266 C
BRANCH  35  36
HETATM   36  N1  UNL     1     -15.100  21.325 -15.692  1.00  0.00    -0.072 N
HETATM   37  C6  UNL     1     -16.465  21.615 -15.362  1.00  0.00     0.272 C
HETATM   38  C7  UNL     1     -14.148  22.223 -15.075  1.00  0.00     0.272 C
BRANCH  36  39
HETATM   39  C5  UNL     1     -14.928  21.450 -17.130  1.00  0.00     0.245 C
BRANCH  39  40
HETATM   40  C4  UNL     1     -13.785  22.376 -17.459  1.00  0.00     0.091 C
BRANCH  40  41
HETATM   41  S1  UNL     1     -13.168  22.036 -19.111  1.00  0.00    -0.223 SA
HETATM   42  C3  UNL     1     -11.434  22.459 -19.124  1.00  0.00     0.078 C
BRANCH  41  43
HETATM   43  C2  UNL     1     -13.978  23.170 -20.213  1.00  0.00     0.058 C
HETATM   44  C1  UNL     1     -13.020  23.537 -21.333  1.00  0.00     0.015 C
ENDBRANCH  41  43
ENDBRANCH  40  41
ENDBRANCH  39  40
ENDBRANCH  36  39
ENDBRANCH  35  36
ENDBRANCH  34  35
ENDBRANCH  31  34
ENDBRANCH  25  28
ENDBRANCH  23  24
ENDBRANCH   1  23
BRANCH  18  45
HETATM   45  C28 UNL     1      -7.021  15.968 -15.668  1.00  0.00     0.038 C
BRANCH  45  46
HETATM   46  C29 UNL     1      -7.353  15.289 -14.337  1.00  0.00    -0.020 C
HETATM   47  C30 UNL     1      -6.884  13.840 -14.352  1.00  0.00     0.009 C
HETATM   48  C31 UNL     1      -8.876  15.222 -14.234  1.00  0.00     0.009 C
ENDBRANCH  45  46
ENDBRANCH  18  45
TORSDOF 12
ENDMDL