MODEL 4
REMARK VINA RESULT: -8.520745378      1.208      1.755
REMARK  12 active torsions:
REMARK  status: ('A' for Active; 'I' for Inactive)
REMARK    1  A    between atoms: C2_3  and  C3_4
REMARK    2  A    between atoms: C3_4  and  C4_5
REMARK    3  A    between atoms: C4_5  and  N2_6
REMARK    4  A    between atoms: C14_18  and  C15_19
REMARK    5  A    between atoms: C15_19  and  N5_20
REMARK       I    between atoms: N5_20  and  C16_22
REMARK       I    between atoms: C16_22  and  N9_40
REMARK    6  A    between atoms: N6_23  and  C17_25
REMARK    7  A    between atoms: C17_25  and  C18_26
REMARK    8  A    between atoms: C18_26  and  C19_27
REMARK    9  A    between atoms: C19_27  and  C20_28
REMARK   10  A    between atoms: C20_28  and  C21_29
REMARK   11  A    between atoms: C21_29  and  C22_30
REMARK   12  A    between atoms: C22_30  and  N7_31
ROOT
HETATM    1  N5  UNL     1      -8.630  16.354 -18.226  1.00  0.00    -0.222 N
ATOM      2  H5  UNL     1      -9.335  15.645 -18.428  1.00  0.00     0.178 HD
HETATM    3  C16 UNL     1      -8.085  16.461 -16.923  1.00  0.00     0.672 C
HETATM    4  N6  UNL     1      -8.735  16.951 -15.921  1.00  0.00    -0.226 N
ATOM      5  H6  UNL     1      -9.688  17.278 -16.080  1.00  0.00     0.177 HD
HETATM    6  N9  UNL     1      -6.730  15.974 -16.789  1.00  0.00    -0.216 N
HETATM    7  C27 UNL     1      -6.611  14.548 -16.860  1.00  0.00     0.143 C
HETATM    8  C28 UNL     1      -5.722  13.927 -15.834  1.00  0.00     0.039 C
HETATM    9  C29 UNL     1      -4.388  14.585 -15.834  1.00  0.00     0.116 C
HETATM   10  N10 UNL     1      -4.142  15.233 -17.075  1.00  0.00    -0.412 N
ATOM     11  H10 UNL     1      -3.826  14.729 -17.904  1.00  0.00     0.154 HD
HETATM   12  C30 UNL     1      -4.371  16.642 -17.073  1.00  0.00     0.035 C
HETATM   13  C31 UNL     1      -3.387  17.282 -16.105  1.00  0.00     0.039 C
HETATM   14  C32 UNL     1      -4.068  17.207 -18.451  1.00  0.00     0.039 C
HETATM   15  C33 UNL     1      -5.764  17.011 -16.611  1.00  0.00     0.171 C
ENDROOT
BRANCH   1  16
HETATM   16  C15 UNL     1      -8.191  17.241 -19.259  1.00  0.00     0.178 C
BRANCH  16  17
HETATM   17  C14 UNL     1      -8.979  18.485 -19.299  1.00  0.00    -0.020 A
HETATM   18  C13 UNL     1      -9.779  18.900 -20.370  1.00  0.00     0.107 A
HETATM   19  N4  UNL     1     -10.364  20.073 -20.062  1.00  0.00    -0.316 N
HETATM   20  C12 UNL     1     -11.200  21.016 -20.538  1.00  0.00     0.123 A
HETATM   21  C35 UNL     1      -9.982  20.448 -18.829  1.00  0.00     0.114 A
HETATM   22  C2  UNL     1     -11.343  22.002 -19.584  1.00  0.00     0.030 A
HETATM   23  N1  UNL     1     -10.580  21.622 -18.544  1.00  0.00    -0.339 N
HETATM   24  C1  UNL     1     -10.420  22.356 -17.305  1.00  0.00     0.158 C
HETATM   25  C34 UNL     1      -9.120  19.467 -18.343  1.00  0.00     0.059 A
BRANCH  22  26
HETATM   26  C3  UNL     1     -12.190  23.247 -19.699  1.00  0.00     0.086 C
BRANCH  26  27
HETATM   27  C4  UNL     1     -13.410  22.880 -20.502  1.00  0.00     0.243 C
BRANCH  27  28
HETATM   28  N2  UNL     1     -14.596  23.585 -20.140  1.00  0.00    -0.062 N
HETATM   29  C5  UNL     1     -14.197  24.961 -19.807  1.00  0.00     0.265 C
HETATM   30  C6  UNL     1     -15.310  25.571 -19.016  1.00  0.00     0.265 C
HETATM   31  N3  UNL     1     -16.565  24.990 -19.498  1.00  0.00    -0.066 N
HETATM   32  C7  UNL     1     -17.696  25.765 -19.077  1.00  0.00     0.272 C
HETATM   33  C8  UNL     1     -16.683  23.649 -18.948  1.00  0.00     0.265 C
HETATM   34  C10 UNL     1     -16.480  24.859 -20.940  1.00  0.00     0.265 C
HETATM   35  C9  UNL     1     -15.288  23.024 -19.023  1.00  0.00     0.265 C
HETATM   36  C11 UNL     1     -15.531  23.713 -21.254  1.00  0.00     0.265 C
ENDBRANCH  27  28
ENDBRANCH  26  27
ENDBRANCH  22  26
ENDBRANCH  16  17
ENDBRANCH   1  16
BRANCH   4  37
HETATM   37  C17 UNL     1      -8.198  17.064 -14.598  1.00  0.00     0.138 C
BRANCH  37  38
HETATM   38  C18 UNL     1      -9.232  16.507 -13.609  1.00  0.00     0.020 C
BRANCH  38  39
HETATM   39  C19 UNL     1     -10.284  17.578 -13.425  1.00  0.00     0.002 C
BRANCH  39  40
HETATM   40  C20 UNL     1     -11.634  17.082 -13.817  1.00  0.00     0.002 C
BRANCH  40  41
HETATM   41  C21 UNL     1     -12.351  17.940 -14.832  1.00  0.00     0.020 C
BRANCH  41  42
HETATM   42  C22 UNL     1     -11.747  19.306 -14.822  1.00  0.00     0.137 C
BRANCH  42  43
HETATM   43  N7  UNL     1     -12.698  20.368 -14.645  1.00  0.00    -0.270 N
HETATM   44  C23 UNL     1     -13.381  21.055 -15.679  1.00  0.00     0.229 C
HETATM   45  O1  UNL     1     -13.249  20.611 -16.860  1.00  0.00    -0.273 OA
HETATM   46  C24 UNL     1     -14.231  22.243 -15.480  1.00  0.00     0.123 C
HETATM   47  C25 UNL     1     -14.699  22.463 -14.085  1.00  0.00     0.133 C
HETATM   48  N8  UNL     1     -13.931  21.828 -13.063  1.00  0.00    -0.342 N
HETATM   49  C26 UNL     1     -12.998  20.785 -13.298  1.00  0.00     0.325 C
ATOM     50  H8  UNL     1     -14.061  22.145 -12.102  1.00  0.00     0.164 HD
HETATM   51  O2  UNL     1     -12.432  20.222 -12.341  1.00  0.00    -0.247 OA
ENDBRANCH  42  43
ENDBRANCH  41  42
ENDBRANCH  40  41
ENDBRANCH  39  40
ENDBRANCH  38  39
ENDBRANCH  37  38
ENDBRANCH   4  37
TORSDOF 12
ENDMDL