MODEL 3
REMARK VINA RESULT: -9.260478151      2.617      4.757
REMARK  15 active torsions:
REMARK  status: ('A' for Active; 'I' for Inactive)
REMARK    1  A    between atoms: O1_2  and  C2_3
REMARK    2  A    between atoms: C2_3  and  C3_4
REMARK    3  A    between atoms: C3_4  and  C4_5
REMARK    4  A    between atoms: N1_8  and  C7_9
REMARK    5  A    between atoms: C7_9  and  O2_10
REMARK    6  A    between atoms: C8_12  and  C9_13
REMARK    7  A    between atoms: C8_12  and  N2_20
REMARK    8  A    between atoms: C9_13  and  C10_14
REMARK       I    between atoms: N2_20  and  C16_22
REMARK       I    between atoms: C16_22  and  N3_24
REMARK    9  A    between atoms: N3_24  and  C17_26
REMARK   10  A    between atoms: C17_26  and  C18_27
REMARK   11  A    between atoms: C17_26  and  C26_37
REMARK   12  A    between atoms: C18_27  and  C19_28
REMARK   13  A    between atoms: C19_28  and  N4_29
REMARK   14  A    between atoms: C26_37  and  O4_38
REMARK   15  A    between atoms: C26_37  and  N6_40
REMARK       I    between atoms: N7_43  and  C29_44
ROOT
HETATM    1  N2  UNL     1     -10.349  19.271 -19.268  1.00  0.00    -0.308 N
ATOM      2  H2  UNL     1     -10.711  18.739 -20.059  1.00  0.00     0.170 HD
HETATM    3  C16 UNL     1      -9.006  19.064 -18.990  1.00  0.00     0.325 C
HETATM    4  O3  UNL     1      -8.461  19.670 -18.033  1.00  0.00    -0.247 OA
HETATM    5  N3  UNL     1      -8.223  18.183 -19.757  1.00  0.00    -0.308 N
ATOM      6  H3  UNL     1      -8.673  17.698 -20.533  1.00  0.00     0.170 HD
ENDROOT
BRANCH   1   7
HETATM    7  C8  UNL     1     -11.309  20.115 -18.619  1.00  0.00     0.064 C
HETATM    8  C7  UNL     1     -11.282  21.526 -18.900  1.00  0.00     0.161 C
BRANCH   8   9
HETATM    9  N1  UNL     1     -12.319  22.373 -19.351  1.00  0.00    -0.360 N
HETATM   10  C6  UNL     1     -12.753  22.355 -20.720  1.00  0.00     0.125 C
HETATM   11  C5  UNL     1     -13.296  23.672 -21.229  1.00  0.00     0.024 C
HETATM   12  C4  UNL     1     -14.067  24.460 -20.234  1.00  0.00    -0.009 C
HETATM   13  C34 UNL     1     -14.338  23.692 -18.960  1.00  0.00     0.024 C
HETATM   14  C33 UNL     1     -12.976  23.259 -18.420  1.00  0.00     0.125 C
BRANCH  12  15
HETATM   15  C3  UNL     1     -15.292  25.146 -20.769  1.00  0.00     0.031 C
BRANCH  15  16
HETATM   16  C2  UNL     1     -16.292  24.221 -21.383  1.00  0.00     0.167 C
BRANCH  16  17
HETATM   17  O1  UNL     1     -17.543  24.324 -20.826  1.00  0.00    -0.396 OA
HETATM   18  C1  UNL     1     -17.488  25.042 -19.633  1.00  0.00     0.201 C
ENDBRANCH  16  17
ENDBRANCH  15  16
ENDBRANCH  12  15
ENDBRANCH   8   9
BRANCH   8  19
HETATM   19  O2  UNL     1     -10.159  22.173 -18.743  1.00  0.00    -0.345 OA
ATOM     20  H2  UNL     1      -9.407  21.594 -18.785  1.00  0.00     0.219 HD
ENDBRANCH   8  19
BRANCH   7  21
HETATM   21  C9  UNL     1     -12.406  19.397 -17.972  1.00  0.00     0.066 C
BRANCH  21  22
HETATM   22  C10 UNL     1     -12.271  18.999 -16.540  1.00  0.00    -0.009 C
HETATM   23  C11 UNL     1     -11.404  20.027 -15.785  1.00  0.00     0.005 C
HETATM   24  C12 UNL     1     -11.728  19.769 -14.312  1.00  0.00     0.000 C
HETATM   25  C13 UNL     1     -11.239  18.387 -13.981  1.00  0.00     0.000 C
HETATM   26  C14 UNL     1     -11.869  17.293 -14.778  1.00  0.00     0.000 C
HETATM   27  C15 UNL     1     -11.854  17.619 -16.286  1.00  0.00     0.005 C
ENDBRANCH  21  22
ENDBRANCH   7  21
ENDBRANCH   1   7
BRANCH   5  28
HETATM   28  C17 UNL     1      -6.808  17.918 -19.516  1.00  0.00     0.066 C
BRANCH  28  29
HETATM   29  C18 UNL     1      -5.980  17.910 -20.740  1.00  0.00     0.089 C
BRANCH  29  30
HETATM   30  C19 UNL     1      -4.525  18.152 -20.245  1.00  0.00     0.245 C
BRANCH  30  31
HETATM   31  N4  UNL     1      -3.571  18.140 -21.272  1.00  0.00    -0.039 N
HETATM   32  C20 UNL     1      -2.634  17.033 -21.216  1.00  0.00     0.267 C
HETATM   33  C21 UNL     1      -2.296  16.695 -22.655  1.00  0.00     0.267 C
HETATM   34  N5  UNL     1      -2.859  17.854 -23.333  1.00  0.00    -0.043 N
HETATM   35  C22 UNL     1      -2.995  17.711 -24.727  1.00  0.00     0.274 C
HETATM   36  C23 UNL     1      -2.190  19.026 -22.866  1.00  0.00     0.267 C
HETATM   37  C25 UNL     1      -4.144  17.946 -22.615  1.00  0.00     0.472 C
HETATM   38  C24 UNL     1      -2.810  19.331 -21.493  1.00  0.00     0.267 C
ENDBRANCH  30  31
ENDBRANCH  29  30
ENDBRANCH  28  29
BRANCH  28  39
HETATM   39  C26 UNL     1      -6.620  16.924 -18.470  1.00  0.00     0.161 C
BRANCH  39  40
HETATM   40  O4  UNL     1      -6.647  15.661 -18.944  1.00  0.00    -0.345 OA
ATOM     41  H4  UNL     1      -6.881  15.026 -18.277  1.00  0.00     0.219 HD
ENDBRANCH  39  40
BRANCH  39  42
HETATM   42  N6  UNL     1      -6.419  16.941 -17.113  1.00  0.00    -0.357 N
HETATM   43  C27 UNL     1      -7.632  16.854 -16.230  1.00  0.00     0.145 C
HETATM   44  C28 UNL     1      -7.268  16.110 -14.968  1.00  0.00     0.145 C
HETATM   45  N7  UNL     1      -6.220  15.147 -15.204  1.00  0.00    -0.349 N
HETATM   46  C29 UNL     1      -6.436  13.802 -14.833  1.00  0.00     0.215 C
HETATM   47  C31 UNL     1      -4.990  15.563 -15.809  1.00  0.00     0.145 C
HETATM   48  C30 UNL     1      -5.419  12.742 -15.037  1.00  0.00     0.117 C
HETATM   49  O5  UNL     1      -7.541  13.446 -14.299  1.00  0.00    -0.274 OA
HETATM   50  C32 UNL     1      -5.205  16.976 -16.384  1.00  0.00     0.145 C
ENDBRANCH  39  42
ENDBRANCH  28  39
ENDBRANCH   5  28
TORSDOF 15
ENDMDL