MODEL 4
REMARK VINA RESULT: -10.218050757      2.780      8.995
REMARK  12 active torsions:
REMARK  status: ('A' for Active; 'I' for Inactive)
REMARK       I    between atoms: N1_2  and  C2_4
REMARK    1  A    between atoms: N3_6  and  C3_8
REMARK    2  A    between atoms: C3_8  and  C4_9
REMARK       I    between atoms: C4_9  and  N4_11
REMARK    3  A    between atoms: N4_11  and  C5_13
REMARK    4  A    between atoms: C5_13  and  C7_15
REMARK       I    between atoms: N5_16  and  C8_18
REMARK    5  A    between atoms: C8_18  and  C9_20
REMARK    6  A    between atoms: C14_25  and  C15_26
REMARK       I    between atoms: C15_26  and  N6_28
REMARK    7  A    between atoms: N6_28  and  C16_30
REMARK    8  A    between atoms: C16_30  and  C17_31
REMARK    9  A    between atoms: C16_30  and  C25_39
REMARK   10  A    between atoms: C17_31  and  C18_32
REMARK   11  A    between atoms: C18_32  and  C19_33
REMARK       I    between atoms: C25_39  and  N7_41
REMARK   12  A    between atoms: C29_45  and  C30_46
REMARK       I    between atoms: C30_46  and  N8_48
ROOT
HETATM    1  C15 UNL     1     -10.189  20.176 -19.129  1.00  0.00     0.223 C
HETATM    2  O3  UNL     1      -9.807  21.060 -18.328  1.00  0.00    -0.273 OA
HETATM    3  N6  UNL     1     -11.559  19.979 -19.335  1.00  0.00    -0.347 N
ATOM      4  H6  UNL     1     -11.891  19.262 -19.980  1.00  0.00     0.163 HD
ENDROOT
BRANCH   1   5
HETATM    5  C14 UNL     1      -9.190  19.367 -19.833  1.00  0.00     0.091 C
HETATM    6  C9  UNL     1      -8.247  18.590 -18.984  1.00  0.00     0.091 C
HETATM    7  C10 UNL     1      -7.139  18.058 -19.871  1.00  0.00     0.015 C
HETATM    8  C11 UNL     1      -7.452  18.128 -21.338  1.00  0.00     0.001 C
HETATM    9  C12 UNL     1      -8.843  17.732 -21.708  1.00  0.00     0.001 C
HETATM   10  C13 UNL     1      -9.834  18.505 -20.920  1.00  0.00     0.015 C
BRANCH   6  11
HETATM   11  C8  UNL     1      -8.812  17.562 -18.119  1.00  0.00     0.226 C
HETATM   12  N5  UNL     1      -7.997  16.876 -17.192  1.00  0.00    -0.338 N
HETATM   13  C7  UNL     1      -8.113  16.957 -15.923  1.00  0.00     0.088 C
ATOM     14  H5  UNL     1      -7.263  16.272 -17.563  1.00  0.00     0.167 HD
HETATM   15  O2  UNL     1     -10.028  17.259 -18.170  1.00  0.00    -0.273 OA
BRANCH  13  16
HETATM   16  C5  UNL     1      -7.203  16.190 -15.028  1.00  0.00     0.119 C
HETATM   17  C6  UNL     1      -8.000  15.211 -14.209  1.00  0.00     0.038 C
BRANCH  16  18
HETATM   18  N4  UNL     1      -6.198  15.536 -15.850  1.00  0.00    -0.351 N
HETATM   19  C4  UNL     1      -4.977  16.137 -16.200  1.00  0.00     0.235 C
HETATM   20  O1  UNL     1      -4.703  17.295 -15.808  1.00  0.00    -0.272 OA
ATOM     21  H4  UNL     1      -6.389  14.593 -16.189  1.00  0.00     0.163 HD
BRANCH  19  22
HETATM   22  C3  UNL     1      -3.991  15.410 -17.041  1.00  0.00     0.225 C
BRANCH  22  23
HETATM   23  N3  UNL     1      -3.836  16.103 -18.303  1.00  0.00    -0.356 N
HETATM   24  C2  UNL     1      -2.744  16.628 -18.697  1.00  0.00     0.184 C
HETATM   25  N1  UNL     1      -2.705  17.283 -19.953  1.00  0.00    -0.369 N
HETATM   26  N2  UNL     1      -1.592  16.554 -17.882  1.00  0.00    -0.064 NA
HETATM   27  C1  UNL     1      -3.484  18.461 -20.222  1.00  0.00     0.148 C
ATOM     28  H1  UNL     1      -2.105  16.909 -20.688  1.00  0.00     0.161 HD
ATOM     29  H3  UNL     1      -4.651  16.175 -18.914  1.00  0.00     0.162 HD
ENDBRANCH  22  23
ENDBRANCH  19  22
ENDBRANCH  16  18
ENDBRANCH  13  16
ENDBRANCH   6  11
ENDBRANCH   1   5
BRANCH   3  30
HETATM   30  C16 UNL     1     -12.514  20.834 -18.599  1.00  0.00     0.176 C
BRANCH  30  31
HETATM   31  C17 UNL     1     -13.697  21.100 -19.538  1.00  0.00     0.035 C
BRANCH  31  32
HETATM   32  C18 UNL     1     -13.384  22.032 -20.654  1.00  0.00     0.007 C
BRANCH  32  33
HETATM   33  C19 UNL     1     -13.612  23.480 -20.379  1.00  0.00    -0.014 C
HETATM   34  C20 UNL     1     -14.510  24.038 -21.466  1.00  0.00     0.004 C
HETATM   35  C21 UNL     1     -15.489  25.060 -20.933  1.00  0.00     0.000 C
HETATM   36  C22 UNL     1     -16.496  24.347 -20.058  1.00  0.00     0.000 C
HETATM   37  C23 UNL     1     -15.818  23.311 -19.187  1.00  0.00     0.000 C
HETATM   38  C24 UNL     1     -14.358  23.704 -19.073  1.00  0.00     0.004 C
ENDBRANCH  32  33
ENDBRANCH  31  32
ENDBRANCH  30  31
BRANCH  30  39
HETATM   39  C25 UNL     1     -13.081  20.088 -17.453  1.00  0.00     0.243 C
HETATM   40  O4  UNL     1     -13.018  18.811 -17.519  1.00  0.00    -0.271 OA
HETATM   41  N7  UNL     1     -13.676  20.639 -16.306  1.00  0.00    -0.337 N
HETATM   42  C26 UNL     1     -13.817  22.031 -15.957  1.00  0.00     0.127 C
HETATM   43  C29 UNL     1     -14.307  19.909 -15.191  1.00  0.00     0.179 C
HETATM   44  C27 UNL     1     -15.118  22.132 -15.226  1.00  0.00     0.022 C
HETATM   45  C28 UNL     1     -15.537  20.713 -14.964  1.00  0.00     0.037 C
BRANCH  43  46
HETATM   46  C30 UNL     1     -13.380  19.805 -14.067  1.00  0.00     0.242 C
HETATM   47  O5  UNL     1     -13.562  20.489 -13.030  1.00  0.00    -0.271 OA
HETATM   48  N8  UNL     1     -12.251  18.947 -14.090  1.00  0.00    -0.350 N
HETATM   49  C31 UNL     1     -11.269  18.757 -13.031  1.00  0.00     0.126 C
HETATM   50  C34 UNL     1     -11.775  18.052 -15.144  1.00  0.00     0.126 C
HETATM   51  C32 UNL     1     -10.995  17.266 -13.079  1.00  0.00     0.021 C
HETATM   52  C33 UNL     1     -11.636  16.767 -14.380  1.00  0.00     0.021 C
ENDBRANCH  43  46
ENDBRANCH  30  39
ENDBRANCH   3  30
TORSDOF 12
ENDMDL