MODEL 5
REMARK VINA RESULT: -9.349106072      3.760      6.175
REMARK  13 active torsions:
REMARK  status: ('A' for Active; 'I' for Inactive)
REMARK       I    between atoms: C2_2  and  N1_4
REMARK    1  A    between atoms: N1_4  and  C3_6
REMARK       I    between atoms: N2_9  and  C6_10
REMARK    2  A    between atoms: C6_10  and  C7_12
REMARK       I    between atoms: N3_16  and  C11_17
REMARK    3  A    between atoms: C11_17  and  C12_19
REMARK    4  A    between atoms: C12_19  and  N4_20
REMARK    5  A    between atoms: N4_20  and  C13_21
REMARK       I    between atoms: N4_20  and  C27_41
REMARK    6  A    between atoms: C13_21  and  C14_22
REMARK    7  A    between atoms: C14_22  and  C16_24
REMARK    8  A    between atoms: C16_24  and  C17_25
REMARK       I    between atoms: C17_25  and  N5_27
REMARK    9  A    between atoms: N5_27  and  C18_29
REMARK   10  A    between atoms: C18_29  and  C19_30
REMARK   11  A    between atoms: C19_30  and  N6_31
REMARK   12  A    between atoms: C25_37  and  C26_38
REMARK   13  A    between atoms: C27_41  and  C28_43
ROOT
HETATM    1  N4  UNL     1      -9.450  17.438 -16.722  1.00  0.00    -0.342 N
HETATM    2  C27 UNL     1     -10.712  17.604 -16.131  1.00  0.00     0.227 C
HETATM    3  O7  UNL     1     -11.695  17.699 -16.975  1.00  0.00    -0.273 OA
ENDROOT
BRANCH   1   4
HETATM    4  C12 UNL     1      -8.268  17.247 -15.945  1.00  0.00     0.228 C
BRANCH   4   5
HETATM    5  C11 UNL     1      -7.729  15.852 -15.986  1.00  0.00     0.238 C
HETATM    6  N3  UNL     1      -6.360  15.685 -16.289  1.00  0.00    -0.337 N
HETATM    7  C7  UNL     1      -5.411  16.730 -16.597  1.00  0.00     0.179 C
HETATM    8  C10 UNL     1      -5.679  14.420 -16.321  1.00  0.00     0.127 C
HETATM    9  C8  UNL     1      -4.198  16.239 -15.788  1.00  0.00     0.037 C
HETATM   10  C9  UNL     1      -4.242  14.752 -16.101  1.00  0.00     0.022 C
HETATM   11  O3  UNL     1      -8.443  14.864 -15.762  1.00  0.00    -0.272 OA
BRANCH   7  12
HETATM   12  C6  UNL     1      -4.984  16.758 -18.008  1.00  0.00     0.242 C
HETATM   13  N2  UNL     1      -3.936  17.583 -18.429  1.00  0.00    -0.350 N
HETATM   14  C5  UNL     1      -3.248  18.462 -17.521  1.00  0.00     0.128 C
HETATM   15  C32 UNL     1      -3.467  17.599 -19.821  1.00  0.00     0.128 C
HETATM   16  C4  UNL     1      -2.786  19.652 -18.392  1.00  0.00     0.045 C
HETATM   17  C3  UNL     1      -1.637  19.098 -19.211  1.00  0.00     0.087 C
HETATM   18  C33 UNL     1      -1.962  17.744 -19.772  1.00  0.00     0.045 C
HETATM   19  O2  UNL     1      -5.607  16.006 -18.823  1.00  0.00    -0.271 OA
BRANCH  17  20
HETATM   20  N1  UNL     1      -1.328  19.987 -20.309  1.00  0.00    -0.357 N
HETATM   21  C2  UNL     1      -0.174  20.817 -20.265  1.00  0.00     0.213 C
HETATM   22  C1  UNL     1       0.184  21.742 -21.369  1.00  0.00     0.117 C
HETATM   23  O1  UNL     1       0.570  20.766 -19.260  1.00  0.00    -0.274 OA
ATOM     24  H1  UNL     1      -1.943  20.019 -21.122  1.00  0.00     0.162 HD
ENDBRANCH  17  20
ENDBRANCH   7  12
ENDBRANCH   4   5
ENDBRANCH   1   4
BRANCH   1  25
HETATM   25  C13 UNL     1      -9.391  17.450 -18.204  1.00  0.00     0.131 C
BRANCH  25  26
HETATM   26  C14 UNL     1      -9.017  18.789 -18.753  1.00  0.00     0.008 C
HETATM   27  C15 UNL     1      -7.745  18.709 -19.605  1.00  0.00     0.012 C
BRANCH  26  28
HETATM   28  C16 UNL     1     -10.050  19.454 -19.596  1.00  0.00     0.108 C
BRANCH  28  29
HETATM   29  C17 UNL     1     -10.898  20.459 -18.925  1.00  0.00     0.217 C
HETATM   30  O4  UNL     1     -10.453  21.630 -18.686  1.00  0.00    -0.274 OA
HETATM   31  N5  UNL     1     -12.227  20.142 -18.532  1.00  0.00    -0.359 N
ATOM     32  H5  UNL     1     -12.588  19.208 -18.728  1.00  0.00     0.162 HD
BRANCH  31  33
HETATM   33  C18 UNL     1     -13.076  21.091 -17.869  1.00  0.00     0.150 C
BRANCH  33  34
HETATM   34  C19 UNL     1     -14.284  21.374 -18.679  1.00  0.00     0.258 C
BRANCH  34  35
HETATM   35  N6  UNL     1     -14.531  22.746 -18.973  1.00  0.00    -0.051 N
HETATM   36  C20 UNL     1     -15.844  23.190 -18.522  1.00  0.00     0.239 C
HETATM   37  C21 UNL     1     -16.244  24.366 -19.389  1.00  0.00     0.035 C
HETATM   38  C22 UNL     1     -14.953  24.545 -20.205  1.00  0.00     0.031 C
HETATM   39  C23 UNL     1     -13.930  24.995 -19.228  1.00  0.00     0.035 C
HETATM   40  C25 UNL     1     -14.623  23.070 -20.380  1.00  0.00     0.294 C
HETATM   41  C24 UNL     1     -13.586  23.694 -18.485  1.00  0.00     0.239 C
BRANCH  40  42
HETATM   42  C26 UNL     1     -13.455  22.812 -21.185  1.00  0.00     0.205 C
HETATM   43  O5  UNL     1     -13.123  21.580 -21.328  1.00  0.00    -0.646 OA
HETATM   44  O6  UNL     1     -12.625  23.697 -21.834  1.00  0.00    -0.646 OA
ENDBRANCH  40  42
ENDBRANCH  34  35
ENDBRANCH  33  34
ENDBRANCH  31  33
ENDBRANCH  28  29
ENDBRANCH  26  28
ENDBRANCH  25  26
ENDBRANCH   1  25
BRANCH   2  45
HETATM   45  C28 UNL     1     -11.109  17.694 -14.736  1.00  0.00     0.030 C
HETATM   46  C29 UNL     1     -12.580  18.188 -14.624  1.00  0.00     0.025 C
HETATM   47  C30 UNL     1     -11.122  16.364 -14.026  1.00  0.00     0.025 C
HETATM   48  C31 UNL     1     -10.295  18.649 -13.900  1.00  0.00     0.025 C
ENDBRANCH   2  45
TORSDOF 13
ENDMDL