MODEL 3
REMARK VINA RESULT: -9.828873333      3.268      6.902
REMARK  12 active torsions:
REMARK  status: ('A' for Active; 'I' for Inactive)
REMARK    1  A    between atoms: C2_2  and  C3_3
REMARK    2  A    between atoms: C3_3  and  C4_4
REMARK    3  A    between atoms: C4_4  and  N1_5
REMARK    4  A    between atoms: C4_4  and  C22_31
REMARK       I    between atoms: N1_5  and  C5_7
REMARK    5  A    between atoms: C5_7  and  C6_9
REMARK       I    between atoms: N2_13  and  C10_14
REMARK    6  A    between atoms: C10_14  and  C11_16
REMARK    7  A    between atoms: C15_20  and  C16_21
REMARK    8  A    between atoms: C17_22  and  C18_23
REMARK    9  A    between atoms: C18_23  and  C19_24
REMARK   10  A    between atoms: C19_24  and  N3_25
REMARK   11  A    between atoms: C22_31  and  C23_33
REMARK       I    between atoms: C23_33  and  N5_35
REMARK       I    between atoms: N6_38  and  C26_39
REMARK   12  A    between atoms: C26_39  and  C27_41
REMARK       I    between atoms: N7_44  and  C30_45
ROOT
HETATM    1  C4  UNL     1      -7.176  15.942 -16.400  1.00  0.00     0.164 C
ENDROOT
BRANCH   1   2
HETATM    2  C3  UNL     1      -6.811  14.692 -15.639  1.00  0.00     0.033 C
BRANCH   2   3
HETATM    3  C2  UNL     1      -7.937  14.173 -14.785  1.00  0.00    -0.002 C
HETATM    4  C1  UNL     1      -7.556  14.246 -13.317  1.00  0.00     0.005 C
ENDBRANCH   2   3
ENDBRANCH   1   2
BRANCH   1   5
HETATM    5  N1  UNL     1      -8.391  16.536 -15.857  1.00  0.00    -0.347 N
HETATM    6  C5  UNL     1      -8.402  17.736 -15.115  1.00  0.00     0.241 C
HETATM    7  O1  UNL     1      -7.305  18.303 -14.931  1.00  0.00    -0.271 OA
ATOM      8  H1  UNL     1      -9.278  16.060 -16.022  1.00  0.00     0.163 HD
BRANCH   6   9
HETATM    9  C6  UNL     1      -9.719  18.236 -14.606  1.00  0.00     0.179 C
HETATM   10  C7  UNL     1     -10.479  17.122 -13.955  1.00  0.00     0.037 C
HETATM   11  C8  UNL     1     -11.809  17.110 -14.629  1.00  0.00     0.022 C
HETATM   12  C9  UNL     1     -11.910  18.353 -15.428  1.00  0.00     0.127 C
HETATM   13  N2  UNL     1     -10.555  18.831 -15.565  1.00  0.00    -0.338 N
HETATM   14  C10 UNL     1     -10.224  19.820 -16.577  1.00  0.00     0.224 C
HETATM   15  O2  UNL     1      -9.048  20.236 -16.588  1.00  0.00    -0.273 OA
BRANCH  14  16
HETATM   16  C11 UNL     1     -11.231  20.314 -17.548  1.00  0.00     0.079 C
HETATM   17  C12 UNL     1     -10.992  19.648 -18.881  1.00  0.00     0.014 C
HETATM   18  C13 UNL     1      -9.906  20.268 -19.689  1.00  0.00     0.002 C
HETATM   19  C14 UNL     1     -10.042  21.742 -19.838  1.00  0.00     0.008 C
HETATM   20  C15 UNL     1     -11.132  22.362 -18.993  1.00  0.00     0.009 C
HETATM   21  C21 UNL     1     -11.176  21.805 -17.610  1.00  0.00     0.022 C
BRANCH  20  22
HETATM   22  C16 UNL     1     -12.437  22.445 -19.687  1.00  0.00    -0.026 C
HETATM   23  C17 UNL     1     -12.845  23.444 -20.451  1.00  0.00    -0.029 C
BRANCH  23  24
HETATM   24  C18 UNL     1     -14.170  23.468 -21.121  1.00  0.00     0.048 C
BRANCH  24  25
HETATM   25  C19 UNL     1     -14.915  24.747 -20.875  1.00  0.00     0.145 C
BRANCH  25  26
HETATM   26  N3  UNL     1     -16.149  24.409 -20.204  1.00  0.00    -0.338 N
HETATM   27  C20 UNL     1     -16.193  23.620 -18.999  1.00  0.00     0.170 C
HETATM   28  N4  UNL     1     -17.254  24.789 -20.640  1.00  0.00    -0.348 N
ATOM     29  H42 UNL     1     -17.223  25.348 -21.494  1.00  0.00     0.176 HD
ATOM     30  H41 UNL     1     -18.125  24.551 -20.167  1.00  0.00     0.176 HD
ENDBRANCH  25  26
ENDBRANCH  24  25
ENDBRANCH  23  24
ENDBRANCH  20  22
ENDBRANCH  14  16
ENDBRANCH   6   9
ENDBRANCH   1   5
BRANCH   1  31
HETATM   31  C22 UNL     1      -7.384  15.677 -17.867  1.00  0.00     0.239 C
HETATM   32  O3  UNL     1      -7.920  14.591 -18.155  1.00  0.00    -0.285 OA
BRANCH  31  33
HETATM   33  C23 UNL     1      -6.994  16.611 -18.899  1.00  0.00     0.291 C
HETATM   34  O4  UNL     1      -7.813  16.682 -19.898  1.00  0.00    -0.264 OA
HETATM   35  N5  UNL     1      -5.878  17.434 -18.971  1.00  0.00    -0.342 N
HETATM   36  C24 UNL     1      -5.746  18.325 -20.133  1.00  0.00     0.146 C
HETATM   37  C34 UNL     1      -4.816  17.481 -18.011  1.00  0.00     0.146 C
HETATM   38  C25 UNL     1      -4.844  19.522 -19.841  1.00  0.00     0.145 C
HETATM   39  N6  UNL     1      -3.598  19.088 -19.264  1.00  0.00    -0.349 N
HETATM   40  C26 UNL     1      -2.467  19.905 -19.156  1.00  0.00     0.224 C
HETATM   41  C33 UNL     1      -3.500  17.708 -18.756  1.00  0.00     0.145 C
HETATM   42  O5  UNL     1      -1.438  19.376 -18.596  1.00  0.00    -0.273 OA
BRANCH  40  43
HETATM   43  C27 UNL     1      -2.289  21.294 -19.598  1.00  0.00     0.081 C
HETATM   44  C28 UNL     1      -3.319  22.257 -19.103  1.00  0.00     0.034 C
HETATM   45  C29 UNL     1      -2.745  23.659 -19.365  1.00  0.00     0.126 C
HETATM   46  N7  UNL     1      -2.703  23.755 -20.831  1.00  0.00    -0.356 N
HETATM   47  C30 UNL     1      -3.394  24.790 -21.512  1.00  0.00     0.183 C
HETATM   48  C31 UNL     1      -1.950  22.784 -21.586  1.00  0.00     0.126 C
HETATM   49  N8  UNL     1      -4.527  25.231 -21.100  1.00  0.00    -0.374 N
HETATM   50  N9  UNL     1      -2.792  25.332 -22.678  1.00  0.00    -0.064 NA
ATOM     51  H82 UNL     1      -4.959  24.841 -20.262  1.00  0.00     0.158 HD
ATOM     52  H81 UNL     1      -5.024  25.975 -21.589  1.00  0.00     0.158 HD
HETATM   53  C32 UNL     1      -2.115  21.368 -21.072  1.00  0.00     0.034 C
ENDBRANCH  40  43
ENDBRANCH  31  33
ENDBRANCH   1  31
TORSDOF 12
ENDMDL