MODEL 1
REMARK VINA RESULT: -8.693956161      0.000      0.000
REMARK  13 active torsions:
REMARK  status: ('A' for Active; 'I' for Inactive)
REMARK    1  A    between atoms: C2_2  and  C4_4
REMARK    2  A    between atoms: C2_2  and  C11_11
REMARK    3  A    between atoms: C4_4  and  C5_5
REMARK       I    between atoms: C11_11  and  N1_13
REMARK       I    between atoms: N2_16  and  C14_17
REMARK    4  A    between atoms: C14_17  and  C15_19
REMARK    5  A    between atoms: C15_19  and  N3_22
REMARK       I    between atoms: N3_22  and  C18_24
REMARK    6  A    between atoms: C18_24  and  C19_26
REMARK    7  A    between atoms: C19_26  and  C20_27
REMARK    8  A    between atoms: C20_27  and  C21_28
REMARK    9  A    between atoms: C21_28  and  C22_30
REMARK       I    between atoms: C22_30  and  N4_32
REMARK   10  A    between atoms: C26_36  and  C27_37
REMARK       I    between atoms: C27_37  and  N5_39
REMARK   11  A    between atoms: N5_39  and  C28_41
REMARK   12  A    between atoms: C28_41  and  C29_42
REMARK   13  A    between atoms: C29_42  and  N6_43
ROOT
HETATM    1  N3  UNL     1      -7.474  16.957 -16.755  1.00  0.00    -0.344 N
ATOM      2  H3  UNL     1      -7.044  17.803 -17.129  1.00  0.00     0.163 HD
HETATM    3  C18 UNL     1      -7.438  15.807 -17.557  1.00  0.00     0.218 C
HETATM    4  O3  UNL     1      -7.930  14.685 -17.267  1.00  0.00    -0.274 OA
ENDROOT
BRANCH   1   5
HETATM    5  C15 UNL     1      -8.076  17.042 -15.428  1.00  0.00     0.106 C
HETATM    6  C16 UNL     1      -7.580  15.895 -14.595  1.00  0.00     0.048 C
HETATM    7  C17 UNL     1      -7.609  18.379 -14.869  1.00  0.00     0.048 C
BRANCH   5   8
HETATM    8  C14 UNL     1      -9.541  17.003 -15.586  1.00  0.00     0.247 C
HETATM    9  N2  UNL     1     -10.333  17.883 -16.366  1.00  0.00    -0.347 N
HETATM   10  C13 UNL     1      -9.759  18.958 -17.090  1.00  0.00     0.145 C
HETATM   11  C33 UNL     1     -11.757  17.646 -16.378  1.00  0.00     0.145 C
HETATM   12  C12 UNL     1     -10.455  19.123 -18.436  1.00  0.00     0.145 C
HETATM   13  N1  UNL     1     -11.857  19.283 -18.192  1.00  0.00    -0.348 N
HETATM   14  C11 UNL     1     -12.647  20.388 -18.433  1.00  0.00     0.228 C
HETATM   15  C34 UNL     1     -12.466  18.034 -17.623  1.00  0.00     0.145 C
HETATM   16  O1  UNL     1     -13.890  20.303 -18.086  1.00  0.00    -0.273 OA
HETATM   17  O2  UNL     1     -10.179  16.086 -14.957  1.00  0.00    -0.271 OA
BRANCH  14  18
HETATM   18  C2  UNL     1     -12.256  21.665 -19.041  1.00  0.00     0.034 C
HETATM   19  C1  UNL     1     -11.558  22.494 -17.924  1.00  0.00     0.025 C
HETATM   20  C3  UNL     1     -11.226  21.438 -20.086  1.00  0.00     0.025 C
BRANCH  18  21
HETATM   21  C4  UNL     1     -13.431  22.513 -19.423  1.00  0.00     0.023 C
BRANCH  21  22
HETATM   22  C5  UNL     1     -13.309  23.875 -19.898  1.00  0.00    -0.013 C
HETATM   23  C6  UNL     1     -14.072  24.982 -19.288  1.00  0.00     0.005 C
HETATM   24  C7  UNL     1     -15.559  24.990 -19.569  1.00  0.00     0.000 C
HETATM   25  C8  UNL     1     -15.808  25.057 -21.037  1.00  0.00     0.000 C
HETATM   26  C9  UNL     1     -15.132  23.821 -21.644  1.00  0.00     0.000 C
HETATM   27  C10 UNL     1     -13.663  23.885 -21.410  1.00  0.00     0.005 C
ENDBRANCH  21  22
ENDBRANCH  18  21
ENDBRANCH  14  18
ENDBRANCH   5   8
ENDBRANCH   1   5
BRANCH   3  28
HETATM   28  C19 UNL     1      -6.756  15.876 -18.884  1.00  0.00     0.110 C
BRANCH  28  29
HETATM   29  C20 UNL     1      -7.618  16.500 -19.933  1.00  0.00     0.098 C
BRANCH  29  30
HETATM   30  C21 UNL     1      -6.899  17.608 -20.636  1.00  0.00     0.217 C
HETATM   31  O4  UNL     1      -7.072  17.811 -21.847  1.00  0.00    -0.287 OA
BRANCH  30  32
HETATM   32  C22 UNL     1      -6.000  18.438 -19.867  1.00  0.00     0.290 C
HETATM   33  O5  UNL     1      -6.463  19.179 -18.934  1.00  0.00    -0.264 OA
HETATM   34  N4  UNL     1      -4.601  18.453 -20.132  1.00  0.00    -0.332 N
HETATM   35  C23 UNL     1      -3.815  17.741 -21.094  1.00  0.00     0.127 C
HETATM   36  C26 UNL     1      -3.685  19.296 -19.380  1.00  0.00     0.179 C
HETATM   37  C24 UNL     1      -2.554  18.550 -21.325  1.00  0.00     0.022 C
HETATM   38  C25 UNL     1      -2.609  19.702 -20.355  1.00  0.00     0.037 C
BRANCH  36  39
HETATM   39  C27 UNL     1      -3.193  18.582 -18.196  1.00  0.00     0.240 C
HETATM   40  O6  UNL     1      -1.944  18.542 -18.023  1.00  0.00    -0.271 OA
HETATM   41  N5  UNL     1      -4.124  17.978 -17.320  1.00  0.00    -0.358 N
ATOM     42  H5  UNL     1      -5.120  18.052 -17.528  1.00  0.00     0.162 HD
BRANCH  41  43
HETATM   43  C28 UNL     1      -3.709  17.268 -16.152  1.00  0.00     0.150 C
BRANCH  43  44
HETATM   44  C29 UNL     1      -4.064  15.822 -16.156  1.00  0.00     0.255 C
BRANCH  44  45
HETATM   45  N6  UNL     1      -3.025  14.930 -16.567  1.00  0.00    -0.077 N
HETATM   46  C30 UNL     1      -3.356  13.593 -16.049  1.00  0.00     0.271 C
HETATM   47  C31 UNL     1      -2.953  14.793 -18.015  1.00  0.00     0.271 C
HETATM   48  C32 UNL     1      -1.699  15.307 -16.132  1.00  0.00     0.271 C
ENDBRANCH  44  45
ENDBRANCH  43  44
ENDBRANCH  41  43
ENDBRANCH  36  39
ENDBRANCH  30  32
ENDBRANCH  29  30
ENDBRANCH  28  29
ENDBRANCH   3  28
TORSDOF 13
ENDMDL