MODEL 1
REMARK VINA RESULT: -10.509451623      0.000      0.000
REMARK  10 active torsions:
REMARK  status: ('A' for Active; 'I' for Inactive)
REMARK    1  A    between atoms: C2_2  and  C4_4
REMARK    2  A    between atoms: C2_2  and  N3_20
REMARK    3  A    between atoms: C4_4  and  N1_5
REMARK    4  A    between atoms: N2_9  and  C9_11
REMARK    5  A    between atoms: C9_11  and  C10_12
REMARK       I    between atoms: N3_20  and  C17_22
REMARK       I    between atoms: C17_22  and  N4_24
REMARK    6  A    between atoms: N4_24  and  C18_26
REMARK    7  A    between atoms: C18_26  and  C19_27
REMARK    8  A    between atoms: C19_27  and  C20_28
REMARK    9  A    between atoms: C20_28  and  N5_29
REMARK   10  A    between atoms: N6_32  and  C23_33
ROOT
HETATM    1  N3  UNL     1      -8.388 -18.874  19.616  1.00  0.00    -0.333 N
ATOM      2  H3  UNL     1      -8.364 -19.364  18.723  1.00  0.00     0.165 HD
HETATM    3  C17 UNL     1      -9.327 -19.301  20.588  1.00  0.00     0.316 C
HETATM    4  O2  UNL     1      -9.347 -18.722  21.699  1.00  0.00    -0.247 OA
HETATM    5  N4  UNL     1     -10.235 -20.365  20.312  1.00  0.00    -0.343 N
ATOM      6  H4  UNL     1     -10.181 -20.821  19.401  1.00  0.00     0.164 HD
ENDROOT
BRANCH   1   7
HETATM    7  C2  UNL     1      -7.444 -17.758  19.824  1.00  0.00     0.053 C
HETATM    8  C1  UNL     1      -6.286 -18.389  20.583  1.00  0.00     0.040 C
HETATM    9  C3  UNL     1      -8.184 -16.717  20.586  1.00  0.00     0.040 C
BRANCH   7  10
HETATM   10  C4  UNL     1      -6.976 -17.344  18.449  1.00  0.00     0.302 C
BRANCH  10  11
HETATM   11  N1  UNL     1      -7.504 -16.196  17.849  1.00  0.00     0.092 N
HETATM   12  C5  UNL     1      -6.591 -15.632  16.838  1.00  0.00     0.274 C
HETATM   13  C6  UNL     1      -6.528 -16.539  15.667  1.00  0.00     0.058 C
HETATM   14  C7  UNL     1      -7.718 -16.305  14.751  1.00  0.00     0.238 C
HETATM   15  N2  UNL     1      -8.749 -17.283  14.964  1.00  0.00    -0.069 N
HETATM   16  C8  UNL     1      -8.181 -18.557  14.479  1.00  0.00     0.272 C
HETATM   17  C15 UNL     1      -9.053 -17.467  16.381  1.00  0.00     0.267 C
HETATM   18  C16 UNL     1      -8.822 -16.296  17.246  1.00  0.00     0.300 C
BRANCH  15  19
HETATM   19  C9  UNL     1      -9.963 -16.938  14.313  1.00  0.00     0.241 C
BRANCH  19  20
HETATM   20  C10 UNL     1     -11.044 -17.947  14.215  1.00  0.00     0.015 C
HETATM   21  C11 UNL     1     -12.265 -17.692  15.054  1.00  0.00     0.032 C
HETATM   22  C12 UNL     1     -13.310 -18.754  14.666  1.00  0.00     0.168 C
HETATM   23  O1  UNL     1     -12.770 -19.647  13.722  1.00  0.00    -0.391 OA
HETATM   24  C13 UNL     1     -12.524 -18.977  12.525  1.00  0.00     0.168 C
HETATM   25  C14 UNL     1     -11.507 -17.920  12.745  1.00  0.00     0.032 C
ENDBRANCH  19  20
ENDBRANCH  15  19
ENDBRANCH  10  11
ENDBRANCH   7  10
ENDBRANCH   1   7
BRANCH   5  26
HETATM   26  C18 UNL     1     -11.213 -20.825  21.240  1.00  0.00     0.126 C
BRANCH  26  27
HETATM   27  C19 UNL     1     -12.218 -21.789  20.652  1.00  0.00     0.050 C
BRANCH  27  28
HETATM   28  C20 UNL     1     -13.102 -21.107  19.632  1.00  0.00     0.275 C
BRANCH  28  29
HETATM   29  N5  UNL     1     -13.059 -21.808  18.400  1.00  0.00     0.101 N
HETATM   30  C21 UNL     1     -12.441 -23.085  18.386  1.00  0.00     0.303 C
HETATM   31  C22 UNL     1     -13.360 -24.244  18.705  1.00  0.00     0.303 C
HETATM   32  N6  UNL     1     -14.594 -23.777  19.246  1.00  0.00     0.097 N
HETATM   33  C28 UNL     1     -15.241 -22.917  18.253  1.00  0.00     0.314 C
HETATM   34  C29 UNL     1     -14.326 -21.875  17.701  1.00  0.00     0.189 C
HETATM   35  C30 UNL     1     -14.044 -22.195  16.249  1.00  0.00     0.071 C
HETATM   36  C33 UNL     1     -15.080 -20.564  17.702  1.00  0.00     0.071 C
HETATM   37  C31 UNL     1     -15.346 -22.410  15.482  1.00  0.00     0.235 C
HETATM   38  N7  UNL     1     -16.369 -21.506  15.910  1.00  0.00    -0.075 N
HETATM   39  C32 UNL     1     -15.786 -20.296  16.390  1.00  0.00     0.235 C
ATOM     40  H72 UNL     1     -17.057 -21.333  15.178  1.00  0.00     0.277 HD
ATOM     41  H71 UNL     1     -16.988 -21.931  16.601  1.00  0.00     0.277 HD
BRANCH  32  42
HETATM   42  C23 UNL     1     -15.533 -24.856  19.481  1.00  0.00     0.223 C
HETATM   43  C24 UNL     1     -15.946 -24.988  20.921  1.00  0.00     0.036 C
HETATM   44  C25 UNL     1     -17.255 -25.768  20.786  1.00  0.00     0.002 C
HETATM   45  C26 UNL     1     -17.948 -25.008  19.671  1.00  0.00     0.002 C
HETATM   46  C27 UNL     1     -16.833 -24.548  18.772  1.00  0.00     0.036 C
ENDBRANCH  32  42
ENDBRANCH  28  29
ENDBRANCH  27  28
ENDBRANCH  26  27
ENDBRANCH   5  26
TORSDOF 10
ENDMDL