MODEL 2
REMARK VINA RESULT: -9.791977016      2.675      5.948
REMARK  13 active torsions:
REMARK  status: ('A' for Active; 'I' for Inactive)
REMARK    1  A    between atoms: C2_2  and  C4_4
REMARK    2  A    between atoms: C4_4  and  C5_5
REMARK    3  A    between atoms: C5_5  and  N1_6
REMARK    4  A    between atoms: C5_5  and  C25_38
REMARK    5  A    between atoms: N1_6  and  C6_8
REMARK    6  A    between atoms: C6_8  and  O1_9
REMARK    7  A    between atoms: C7_11  and  N2_12
REMARK    8  A    between atoms: C7_11  and  C21_34
REMARK       I    between atoms: N2_12  and  C8_14
REMARK    9  A    between atoms: C8_14  and  O3_16
REMARK   10  A    between atoms: O3_16  and  C9_17
REMARK   11  A    between atoms: C9_17  and  C11_19
REMARK       I    between atoms: C11_19  and  N3_21
REMARK   12  A    between atoms: N3_21  and  C12_23
REMARK       I    between atoms: N4_26  and  C15_27
REMARK   13  A    between atoms: C15_27  and  C16_29
REMARK       I    between atoms: C25_38  and  N5_40
ROOT
HETATM    1  C6  UNL     1     -13.704 -23.745  18.691  1.00  0.00     0.160 C
HETATM    2  C7  UNL     1     -12.637 -23.094  19.333  1.00  0.00     0.072 C
ENDROOT
BRANCH   2   3
HETATM    3  N2  UNL     1     -11.862 -22.009  18.862  1.00  0.00    -0.301 N
HETATM    4  C8  UNL     1     -10.840 -22.113  17.855  1.00  0.00     0.365 C
HETATM    5  O2  UNL     1     -10.529 -23.018  17.159  1.00  0.00    -0.238 OA
ATOM      6  H2  UNL     1     -12.042 -21.089  19.263  1.00  0.00     0.171 HD
BRANCH   4   7
HETATM    7  O3  UNL     1     -10.072 -20.877  17.747  1.00  0.00    -0.289 OA
BRANCH   7   8
HETATM    8  C9  UNL     1     -10.372 -19.855  18.605  1.00  0.00     0.221 C
HETATM    9  C10 UNL     1     -10.046 -18.580  17.595  1.00  0.00     0.050 C
BRANCH   8  10
HETATM   10  C11 UNL     1      -9.501 -19.490  19.704  1.00  0.00     0.251 C
HETATM   11  O4  UNL     1      -9.880 -19.565  20.893  1.00  0.00    -0.270 OA
HETATM   12  N3  UNL     1      -8.208 -19.052  19.380  1.00  0.00    -0.332 N
ATOM     13  H3  UNL     1      -8.067 -18.975  18.373  1.00  0.00     0.168 HD
BRANCH  12  14
HETATM   14  C12 UNL     1      -7.077 -18.700  20.096  1.00  0.00    -0.007 C
HETATM   15  C13 UNL     1      -7.135 -18.009  21.437  1.00  0.00     0.072 C
HETATM   16  C14 UNL     1      -5.806 -18.346  22.146  1.00  0.00     0.131 C
HETATM   17  N4  UNL     1      -4.661 -18.105  21.282  1.00  0.00    -0.351 N
HETATM   18  C15 UNL     1      -3.485 -17.592  21.865  1.00  0.00     0.224 C
HETATM   19  C19 UNL     1      -4.667 -18.481  19.892  1.00  0.00     0.131 C
HETATM   20  O5  UNL     1      -3.489 -17.471  23.151  1.00  0.00    -0.273 OA
HETATM   21  C20 UNL     1      -5.976 -18.091  19.256  1.00  0.00     0.072 C
BRANCH  18  22
HETATM   22  C16 UNL     1      -2.239 -17.167  21.222  1.00  0.00     0.078 A
HETATM   23  C17 UNL     1      -1.225 -18.346  21.115  1.00  0.00     0.015 A
HETATM   24  C18 UNL     1      -0.915 -17.051  21.803  1.00  0.00     0.015 A
ENDBRANCH  18  22
ENDBRANCH  12  14
ENDBRANCH   8  10
ENDBRANCH   7   8
ENDBRANCH   4   7
ENDBRANCH   2   3
BRANCH   2  25
HETATM   25  C21 UNL     1     -12.972 -22.830  20.848  1.00  0.00    -0.004 C
HETATM   26  C22 UNL     1     -11.719 -22.845  21.661  1.00  0.00     0.021 C
HETATM   27  C23 UNL     1     -13.507 -21.386  20.955  1.00  0.00     0.021 C
HETATM   28  C24 UNL     1     -14.043 -23.721  21.345  1.00  0.00     0.021 C
ENDBRANCH   2  25
BRANCH   1  29
HETATM   29  N1  UNL     1     -14.901 -23.313  18.040  1.00  0.00    -0.356 N
ATOM     30  H1  UNL     1     -15.818 -23.528  18.431  1.00  0.00     0.162 HD
BRANCH  29  31
HETATM   31  C5  UNL     1     -14.771 -22.544  16.780  1.00  0.00     0.176 C
BRANCH  31  32
HETATM   32  C4  UNL     1     -16.293 -22.546  16.330  1.00  0.00     0.038 C
BRANCH  32  33
HETATM   33  C2  UNL     1     -16.539 -22.164  14.943  1.00  0.00    -0.020 C
HETATM   34  C1  UNL     1     -17.030 -23.301  14.078  1.00  0.00     0.009 C
HETATM   35  C3  UNL     1     -17.612 -21.077  14.875  1.00  0.00     0.009 C
ENDBRANCH  32  33
ENDBRANCH  31  32
BRANCH  31  36
HETATM   36  C25 UNL     1     -14.436 -21.146  16.911  1.00  0.00     0.242 C
HETATM   37  O6  UNL     1     -14.981 -20.438  17.791  1.00  0.00    -0.271 OA
HETATM   38  N5  UNL     1     -13.512 -20.480  16.059  1.00  0.00    -0.350 N
HETATM   39  C26 UNL     1     -13.361 -19.038  15.928  1.00  0.00     0.131 C
HETATM   40  C29 UNL     1     -12.445 -20.976  15.192  1.00  0.00     0.131 C
HETATM   41  C27 UNL     1     -13.451 -18.955  14.387  1.00  0.00     0.018 A
HETATM   42  C28 UNL     1     -12.649 -20.232  13.931  1.00  0.00     0.018 A
HETATM   43  C30 UNL     1     -12.251 -18.889  13.555  1.00  0.00    -0.036 A
HETATM   44  C31 UNL     1     -11.097 -18.109  14.118  1.00  0.00     0.015 C
HETATM   45  C32 UNL     1     -12.541 -18.529  12.085  1.00  0.00     0.015 C
ENDBRANCH  31  36
ENDBRANCH  29  31
ENDBRANCH   1  29
BRANCH   1  46
HETATM   46  O1  UNL     1     -13.618 -25.081  18.672  1.00  0.00    -0.345 OA
ATOM     47  H1  UNL     1     -12.799 -25.356  18.277  1.00  0.00     0.219 HD
ENDBRANCH   1  46
TORSDOF 13
ENDMDL