MODEL 2
REMARK VINA RESULT: -9.058785470      3.981      7.604
REMARK  11 active torsions:
REMARK  status: ('A' for Active; 'I' for Inactive)
REMARK    1  A    between atoms: C2_2  and  N1_3
REMARK    2  A    between atoms: C2_2  and  C23_34
REMARK       I    between atoms: N1_3  and  C3_5
REMARK    3  A    between atoms: C3_5  and  C4_7
REMARK    4  A    between atoms: C4_7  and  C5_8
REMARK    5  A    between atoms: C4_7  and  N2_15
REMARK    6  A    between atoms: C5_8  and  C6_9
REMARK       I    between atoms: N2_15  and  C12_17
REMARK    7  A    between atoms: C12_17  and  C13_19
REMARK    8  A    between atoms: C13_19  and  N3_20
REMARK    9  A    between atoms: C13_19  and  C19_30
REMARK       I    between atoms: N3_20  and  C14_22
REMARK       I    between atoms: C14_22  and  N4_24
REMARK       I    between atoms: C23_34  and  N5_36
REMARK   10  A    between atoms: C26_39  and  C27_40
REMARK   11  A    between atoms: C27_40  and  N6_41
ROOT
HETATM    1  C4  UNL     1      -9.814 -20.954  18.230  1.00  0.00     0.177 C
ENDROOT
BRANCH   1   2
HETATM    2  C3  UNL     1     -10.737 -21.788  18.991  1.00  0.00     0.241 C
HETATM    3  N1  UNL     1     -12.073 -21.428  19.174  1.00  0.00    -0.346 N
ATOM      4  H1  UNL     1     -12.376 -20.547  18.759  1.00  0.00     0.163 HD
HETATM    5  O1  UNL     1     -10.333 -22.862  19.504  1.00  0.00    -0.271 OA
BRANCH   3   6
HETATM    6  C2  UNL     1     -13.080 -22.199  19.907  1.00  0.00     0.172 C
HETATM    7  C1  UNL     1     -13.168 -21.531  21.281  1.00  0.00     0.042 C
BRANCH   6   8
HETATM    8  C23 UNL     1     -14.420 -22.007  19.293  1.00  0.00     0.242 C
HETATM    9  O5  UNL     1     -15.019 -20.901  19.307  1.00  0.00    -0.271 OA
HETATM   10  N5  UNL     1     -15.067 -23.086  18.665  1.00  0.00    -0.350 N
HETATM   11  C24 UNL     1     -14.482 -24.378  18.543  1.00  0.00     0.126 C
HETATM   12  C31 UNL     1     -16.416 -22.923  18.095  1.00  0.00     0.126 C
HETATM   13  C25 UNL     1     -15.353 -25.425  19.196  1.00  0.00     0.026 C
HETATM   14  C26 UNL     1     -16.763 -25.329  18.664  1.00  0.00     0.017 C
HETATM   15  C30 UNL     1     -17.318 -23.928  18.765  1.00  0.00     0.026 C
BRANCH  14  16
HETATM   16  C27 UNL     1     -17.639 -26.225  19.511  1.00  0.00     0.276 C
BRANCH  16  17
HETATM   17  N6  UNL     1     -18.771 -26.750  18.786  1.00  0.00     0.080 N
HETATM   18  C28 UNL     1     -19.035 -28.092  19.301  1.00  0.00     0.309 C
HETATM   19  C29 UNL     1     -18.471 -26.771  17.382  1.00  0.00     0.309 C
ENDBRANCH  16  17
ENDBRANCH  14  16
ENDBRANCH   6   8
ENDBRANCH   3   6
ENDBRANCH   1   2
BRANCH   1  20
HETATM   20  C5  UNL     1      -9.156 -19.830  18.991  1.00  0.00     0.039 C
BRANCH  20  21
HETATM   21  C6  UNL     1      -9.785 -18.507  19.013  1.00  0.00    -0.012 C
HETATM   22  C7  UNL     1      -8.712 -17.401  18.893  1.00  0.00     0.005 C
HETATM   23  C8  UNL     1      -7.636 -17.571  19.918  1.00  0.00     0.000 C
HETATM   24  C9  UNL     1      -8.139 -17.581  21.341  1.00  0.00     0.000 C
HETATM   25  C10 UNL     1      -9.368 -18.437  21.501  1.00  0.00     0.000 C
HETATM   26  C11 UNL     1     -10.370 -18.257  20.410  1.00  0.00     0.005 C
ENDBRANCH  20  21
ENDBRANCH   1  20
BRANCH   1  27
HETATM   27  N2  UNL     1     -10.631 -20.175  17.233  1.00  0.00    -0.346 N
HETATM   28  C12 UNL     1     -10.742 -20.636  15.912  1.00  0.00     0.242 C
HETATM   29  O2  UNL     1     -10.145 -21.731  15.645  1.00  0.00    -0.271 OA
ATOM     30  H2  UNL     1     -11.102 -19.315  17.517  1.00  0.00     0.163 HD
BRANCH  28  31
HETATM   31  C13 UNL     1     -11.492 -19.893  14.894  1.00  0.00     0.185 C
BRANCH  31  32
HETATM   32  N3  UNL     1     -12.924 -20.062  15.245  1.00  0.00    -0.329 N
HETATM   33  C14 UNL     1     -13.638 -21.214  14.896  1.00  0.00     0.319 C
HETATM   34  O3  UNL     1     -13.036 -22.132  14.269  1.00  0.00    -0.247 OA
HETATM   35  N4  UNL     1     -14.991 -21.389  15.220  1.00  0.00    -0.330 N
HETATM   36  C15 UNL     1     -15.666 -22.635  14.893  1.00  0.00     0.153 C
HETATM   37  C18 UNL     1     -15.737 -20.305  15.883  1.00  0.00     0.153 C
HETATM   38  C16 UNL     1     -17.062 -22.422  14.372  1.00  0.00     0.187 C
HETATM   39  O4  UNL     1     -17.470 -21.096  14.509  1.00  0.00    -0.388 OA
HETATM   40  C17 UNL     1     -17.199 -20.665  15.820  1.00  0.00     0.187 C
ATOM     41  H3  UNL     1     -13.400 -19.318  15.754  1.00  0.00     0.165 HD
ENDBRANCH  31  32
BRANCH  31  42
HETATM   42  C19 UNL     1     -11.177 -18.482  14.655  1.00  0.00    -0.022 C
HETATM   43  C20 UNL     1     -11.654 -18.163  13.218  1.00  0.00     0.017 C
HETATM   44  C21 UNL     1     -11.943 -17.531  15.559  1.00  0.00     0.017 C
HETATM   45  C22 UNL     1      -9.697 -18.207  14.693  1.00  0.00     0.017 C
ENDBRANCH  31  42
ENDBRANCH  28  31
ENDBRANCH   1  27
TORSDOF 11
ENDMDL