MODEL 3
REMARK VINA RESULT: -9.227575673      2.462     11.834
REMARK  11 active torsions:
REMARK  status: ('A' for Active; 'I' for Inactive)
REMARK    1  A    between atoms: C2_2  and  C3_3
REMARK    2  A    between atoms: C3_3  and  C4_5
REMARK    3  A    between atoms: C4_5  and  N1_6
REMARK    4  A    between atoms: C4_5  and  C29_43
REMARK       I    between atoms: N1_6  and  C5_8
REMARK    5  A    between atoms: C5_8  and  C6_10
REMARK    6  A    between atoms: C6_10  and  C7_11
REMARK    7  A    between atoms: C6_10  and  N2_15
REMARK    8  A    between atoms: C7_11  and  C8_12
REMARK       I    between atoms: N2_15  and  C11_17
REMARK       I    between atoms: C11_17  and  N3_19
REMARK       I    between atoms: N4_24  and  C16_25
REMARK    9  A    between atoms: C16_25  and  C17_27
REMARK   10  A    between atoms: C17_27  and  C20_30
REMARK       I    between atoms: C20_30  and  N5_32
REMARK   11  A    between atoms: N5_32  and  C21_34
ROOT
HETATM    1  N2  UNL     1     -10.131 -19.518  16.525  1.00  0.00    -0.330 N
ATOM      2  H2  UNL     1      -9.450 -19.823  17.220  1.00  0.00     0.165 HD
HETATM    3  C11 UNL     1     -11.407 -20.144  16.508  1.00  0.00     0.319 C
HETATM    4  O3  UNL     1     -12.236 -19.743  15.635  1.00  0.00    -0.247 OA
HETATM    5  N3  UNL     1     -11.802 -21.160  17.385  1.00  0.00    -0.333 N
HETATM    6  C12 UNL     1     -10.738 -21.504  18.322  1.00  0.00     0.127 C
HETATM    7  C13 UNL     1     -11.161 -22.630  19.240  1.00  0.00     0.022 C
HETATM    8  C14 UNL     1     -12.003 -22.011  20.337  1.00  0.00     0.021 C
HETATM    9  C15 UNL     1     -13.321 -22.828  20.349  1.00  0.00     0.126 C
HETATM   10  N4  UNL     1     -14.151 -22.446  19.244  1.00  0.00    -0.350 N
HETATM   11  C16 UNL     1     -15.242 -23.285  19.003  1.00  0.00     0.237 C
HETATM   12  O4  UNL     1     -16.000 -22.954  18.017  1.00  0.00    -0.272 OA
HETATM   13  C27 UNL     1     -14.062 -21.319  18.316  1.00  0.00     0.145 C
HETATM   14  C28 UNL     1     -13.143 -21.613  17.157  1.00  0.00     0.147 C
ENDROOT
BRANCH   1  15
HETATM   15  C6  UNL     1      -9.756 -18.483  15.616  1.00  0.00     0.178 C
BRANCH  15  16
HETATM   16  C5  UNL     1      -8.301 -18.107  15.814  1.00  0.00     0.241 C
HETATM   17  N1  UNL     1      -7.861 -17.487  17.002  1.00  0.00    -0.348 N
ATOM     18  H1  UNL     1      -8.546 -17.295  17.733  1.00  0.00     0.163 HD
HETATM   19  O2  UNL     1      -7.454 -18.339  14.916  1.00  0.00    -0.271 OA
BRANCH  17  20
HETATM   20  C4  UNL     1      -6.476 -17.110  17.232  1.00  0.00     0.157 C
BRANCH  20  21
HETATM   21  C3  UNL     1      -6.222 -15.737  16.790  1.00  0.00     0.149 C
HETATM   22  O1  UNL     1      -7.228 -14.984  16.822  1.00  0.00    -0.296 OA
BRANCH  21  23
HETATM   23  C2  UNL     1      -4.995 -15.113  16.320  1.00  0.00     0.076 C
HETATM   24  C1  UNL     1      -3.966 -16.142  15.853  1.00  0.00     0.013 C
ENDBRANCH  21  23
ENDBRANCH  20  21
BRANCH  20  25
HETATM   25  C29 UNL     1      -6.201 -17.302  18.695  1.00  0.00     0.007 C
HETATM   26  C30 UNL     1      -7.275 -18.069  19.416  1.00  0.00     0.012 C
HETATM   27  C31 UNL     1      -4.838 -17.913  18.978  1.00  0.00     0.012 C
ENDBRANCH  20  25
ENDBRANCH  17  20
ENDBRANCH  15  16
BRANCH  15  28
HETATM   28  C7  UNL     1     -10.539 -17.230  15.659  1.00  0.00     0.038 C
BRANCH  28  29
HETATM   29  C8  UNL     1     -10.684 -16.449  14.408  1.00  0.00    -0.020 C
HETATM   30  C9  UNL     1     -10.880 -17.491  13.284  1.00  0.00     0.009 C
HETATM   31  C10 UNL     1      -9.525 -15.618  13.990  1.00  0.00     0.009 C
ENDBRANCH  28  29
ENDBRANCH  15  28
ENDBRANCH   1  15
BRANCH  11  32
HETATM   32  C17 UNL     1     -15.658 -24.506  19.720  1.00  0.00     0.114 C
HETATM   33  C18 UNL     1     -14.622 -25.636  19.440  1.00  0.00     0.035 C
HETATM   34  C19 UNL     1     -15.539 -24.266  21.206  1.00  0.00     0.035 C
BRANCH  32  35
HETATM   35  C20 UNL     1     -17.002 -25.003  19.334  1.00  0.00     0.235 C
HETATM   36  O5  UNL     1     -18.010 -24.669  19.989  1.00  0.00    -0.272 OA
HETATM   37  N5  UNL     1     -17.147 -25.858  18.223  1.00  0.00    -0.355 N
ATOM     38  H5  UNL     1     -16.311 -26.117  17.699  1.00  0.00     0.162 HD
BRANCH  37  39
HETATM   39  C21 UNL     1     -18.428 -26.391  17.785  1.00  0.00     0.087 C
HETATM   40  C22 UNL     1     -18.463 -26.686  16.310  1.00  0.00     0.055 C
HETATM   41  C23 UNL     1     -19.902 -26.931  15.909  1.00  0.00     0.274 C
HETATM   42  N6  UNL     1     -20.643 -27.675  16.895  1.00  0.00     0.084 N
HETATM   43  C24 UNL     1     -21.519 -28.601  16.218  1.00  0.00     0.309 C
HETATM   44  C25 UNL     1     -19.727 -28.470  17.725  1.00  0.00     0.274 C
HETATM   45  C26 UNL     1     -18.825 -27.608  18.560  1.00  0.00     0.055 C
ENDBRANCH  37  39
ENDBRANCH  32  35
ENDBRANCH  11  32
TORSDOF 11
ENDMDL