MODEL 5
REMARK VINA RESULT: -7.034805063      2.767      9.995
REMARK  13 active torsions:
REMARK  status: ('A' for Active; 'I' for Inactive)
REMARK    1  A    between atoms: C2_2  and  C5_5
REMARK       I    between atoms: C5_5  and  N1_7
REMARK    2  A    between atoms: N1_7  and  C6_9
REMARK    3  A    between atoms: C6_9  and  C7_10
REMARK    4  A    between atoms: C6_9  and  C29_41
REMARK    5  A    between atoms: C7_10  and  N2_11
REMARK    6  A    between atoms: C7_10  and  C25_37
REMARK    7  A    between atoms: C11_15  and  C12_16
REMARK       I    between atoms: C12_16  and  N3_18
REMARK    8  A    between atoms: C16_22  and  C17_23
REMARK       I    between atoms: C17_23  and  N4_25
REMARK    9  A    between atoms: N4_25  and  C18_27
REMARK   10  A    between atoms: C18_27  and  C19_28
REMARK   11  A    between atoms: C18_27  and  C23_32
REMARK   12  A    between atoms: C19_28  and  C20_29
REMARK   13  A    between atoms: C23_32  and  C24_34
ROOT
HETATM    1  N2  UNL     1      -9.990 -19.691  16.847  1.00  0.00    -0.390 N
HETATM    2  C8  UNL     1      -9.742 -20.216  15.639  1.00  0.00     0.118 C
HETATM    3  C9  UNL     1     -11.055 -20.660  14.963  1.00  0.00     0.022 C
HETATM    4  C10 UNL     1     -12.063 -20.243  15.968  1.00  0.00     0.036 C
HETATM    5  C11 UNL     1     -11.273 -20.112  17.281  1.00  0.00     0.172 C
ENDROOT
BRANCH   5   6
HETATM    6  C12 UNL     1     -11.328 -21.426  17.975  1.00  0.00     0.243 C
HETATM    7  O2  UNL     1     -10.536 -22.351  17.788  1.00  0.00    -0.271 OA
HETATM    8  N3  UNL     1     -12.381 -21.641  18.935  1.00  0.00    -0.337 N
HETATM    9  C13 UNL     1     -13.437 -20.722  19.303  1.00  0.00     0.127 C
HETATM   10  C16 UNL     1     -12.583 -22.824  19.726  1.00  0.00     0.179 C
HETATM   11  C14 UNL     1     -13.366 -20.804  20.822  1.00  0.00     0.022 C
HETATM   12  C15 UNL     1     -13.112 -22.296  21.033  1.00  0.00     0.037 C
BRANCH  10  13
HETATM   13  C17 UNL     1     -13.615 -23.714  19.105  1.00  0.00     0.241 C
HETATM   14  O3  UNL     1     -13.325 -24.848  18.628  1.00  0.00    -0.271 OA
HETATM   15  N4  UNL     1     -14.948 -23.292  19.041  1.00  0.00    -0.347 N
ATOM     16  H4  UNL     1     -15.193 -22.376  19.417  1.00  0.00     0.163 HD
BRANCH  15  17
HETATM   17  C18 UNL     1     -16.014 -24.126  18.448  1.00  0.00     0.164 C
BRANCH  17  18
HETATM   18  C19 UNL     1     -16.688 -23.294  17.370  1.00  0.00     0.038 C
BRANCH  18  19
HETATM   19  C20 UNL     1     -15.886 -22.200  16.785  1.00  0.00    -0.012 A
HETATM   20  C21 UNL     1     -16.438 -21.733  15.408  1.00  0.00     0.005 A
HETATM   21  C22 UNL     1     -15.101 -22.311  15.540  1.00  0.00     0.005 A
ENDBRANCH  18  19
ENDBRANCH  17  18
BRANCH  17  22
HETATM   22  C23 UNL     1     -16.935 -24.418  19.543  1.00  0.00     0.236 C
HETATM   23  O4  UNL     1     -18.188 -24.253  19.352  1.00  0.00    -0.285 OA
BRANCH  22  24
HETATM   24  C24 UNL     1     -16.506 -24.881  20.832  1.00  0.00     0.302 C
HETATM   25  N5  UNL     1     -17.014 -26.111  21.396  1.00  0.00    -0.054 NA
HETATM   26  O5  UNL     1     -15.684 -24.276  21.552  1.00  0.00    -0.268 OA
ENDBRANCH  22  24
ENDBRANCH  17  22
ENDBRANCH  15  17
ENDBRANCH  10  13
ENDBRANCH   5   6
BRANCH   1  27
HETATM   27  C7  UNL     1      -9.567 -18.408  17.362  1.00  0.00     0.134 C
BRANCH  27  28
HETATM   28  C6  UNL     1      -8.750 -17.580  16.465  1.00  0.00     0.020 C
BRANCH  28  29
HETATM   29  N1  UNL     1      -7.515 -17.015  16.856  1.00  0.00    -0.331 N
HETATM   30  C5  UNL     1      -6.236 -17.039  16.248  1.00  0.00     0.229 C
HETATM   31  O1  UNL     1      -6.119 -17.653  15.163  1.00  0.00    -0.272 OA
ATOM     32  H1  UNL     1      -7.551 -16.497  17.734  1.00  0.00     0.168 HD
BRANCH  30  33
HETATM   33  C2  UNL     1      -5.025 -16.415  16.753  1.00  0.00     0.030 C
HETATM   34  C1  UNL     1      -4.788 -16.572  18.224  1.00  0.00     0.025 C
HETATM   35  C3  UNL     1      -5.001 -14.947  16.409  1.00  0.00     0.025 C
HETATM   36  C4  UNL     1      -3.768 -16.999  16.084  1.00  0.00     0.025 C
ENDBRANCH  30  33
ENDBRANCH  28  29
BRANCH  28  37
HETATM   37  C29 UNL     1      -9.440 -16.756  15.403  1.00  0.00    -0.011 C
HETATM   38  C30 UNL     1     -10.920 -16.775  15.405  1.00  0.00     0.021 C
HETATM   39  C31 UNL     1      -8.978 -15.329  15.306  1.00  0.00     0.021 C
HETATM   40  C32 UNL     1      -9.123 -17.340  13.991  1.00  0.00     0.021 C
ENDBRANCH  28  37
ENDBRANCH  27  28
BRANCH  27  41
HETATM   41  C25 UNL     1      -9.141 -18.669  18.757  1.00  0.00    -0.026 C
HETATM   42  C26 UNL     1      -8.148 -19.749  19.054  1.00  0.00     0.017 C
HETATM   43  C27 UNL     1     -10.221 -18.771  19.796  1.00  0.00     0.017 C
HETATM   44  C28 UNL     1      -8.362 -17.386  19.211  1.00  0.00     0.017 C
ENDBRANCH  27  41
ENDBRANCH   1  27
TORSDOF 13
ENDMDL