MODEL 3
REMARK VINA RESULT: -9.246114663      3.134     11.439
REMARK  11 active torsions:
REMARK  status: ('A' for Active; 'I' for Inactive)
REMARK    1  A    between atoms: C2_2  and  C3_3
REMARK    2  A    between atoms: C3_3  and  C4_4
REMARK    3  A    between atoms: C3_3  and  C6_10
REMARK    4  A    between atoms: C4_4  and  N1_5
REMARK    5  A    between atoms: N1_5  and  O1_6
REMARK    6  A    between atoms: N1_5  and  C5_8
REMARK       I    between atoms: C6_10  and  N2_12
REMARK       I    between atoms: N3_18  and  C12_19
REMARK    7  A    between atoms: C12_19  and  C13_21
REMARK    8  A    between atoms: C13_21  and  C14_22
REMARK    9  A    between atoms: C13_21  and  N4_29
REMARK   10  A    between atoms: C14_22  and  C15_23
REMARK       I    between atoms: N4_29  and  C21_31
REMARK       I    between atoms: C21_31  and  N5_33
REMARK   11  A    between atoms: N5_33  and  C22_35
REMARK       I    between atoms: N6_38  and  C25_39
ROOT
HETATM    1  C13 UNL     1     -11.211 -19.779  16.176  1.00  0.00     0.179 C
ENDROOT
BRANCH   1   2
HETATM    2  C12 UNL     1      -9.926 -19.128  16.382  1.00  0.00     0.242 C
HETATM    3  N3  UNL     1      -9.255 -18.288  15.480  1.00  0.00    -0.350 N
HETATM    4  C11 UNL     1      -9.751 -17.821  14.205  1.00  0.00     0.126 C
HETATM    5  C29 UNL     1      -7.889 -17.824  15.797  1.00  0.00     0.138 C
HETATM    6  C10 UNL     1      -9.554 -16.313  14.183  1.00  0.00     0.021 C
HETATM    7  C9  UNL     1      -9.291 -15.771  15.578  1.00  0.00     0.016 C
HETATM    8  C8  UNL     1      -8.021 -16.356  16.096  1.00  0.00     0.008 C
HETATM    9  C7  UNL     1      -6.747 -15.571  15.848  1.00  0.00     0.138 C
HETATM   10  C30 UNL     1      -7.691 -16.035  17.542  1.00  0.00     0.138 C
HETATM   11  N2  UNL     1      -6.300 -16.048  17.140  1.00  0.00    -0.350 N
HETATM   12  C6  UNL     1      -5.075 -16.386  17.743  1.00  0.00     0.225 C
HETATM   13  O3  UNL     1      -5.014 -16.787  18.940  1.00  0.00    -0.273 OA
HETATM   14  O4  UNL     1      -9.325 -19.323  17.501  1.00  0.00    -0.271 OA
BRANCH  12  15
HETATM   15  C3  UNL     1      -3.841 -16.255  16.910  1.00  0.00     0.098 C
BRANCH  15  16
HETATM   16  C2  UNL     1      -3.232 -14.894  17.032  1.00  0.00     0.011 C
HETATM   17  C1  UNL     1      -3.283 -14.122  15.732  1.00  0.00     0.006 C
ENDBRANCH  15  16
BRANCH  15  18
HETATM   18  C4  UNL     1      -2.941 -17.394  17.206  1.00  0.00     0.172 C
BRANCH  18  19
HETATM   19  N1  UNL     1      -1.699 -17.364  16.473  1.00  0.00    -0.235 N
BRANCH  19  20
HETATM   20  O1  UNL     1      -1.792 -17.331  15.120  1.00  0.00    -0.285 OA
ATOM     21  H1  UNL     1      -0.985 -17.455  14.635  1.00  0.00     0.245 HD
ENDBRANCH  19  20
BRANCH  19  22
HETATM   22  C5  UNL     1      -0.413 -17.367  17.063  1.00  0.00     0.376 C
HETATM   23  O2  UNL     1      -0.147 -16.561  17.997  1.00  0.00    -0.281 OA
ENDBRANCH  19  22
ENDBRANCH  18  19
ENDBRANCH  15  18
ENDBRANCH  12  15
ENDBRANCH   1   2
BRANCH   1  24
HETATM   24  C14 UNL     1     -11.585 -20.217  14.805  1.00  0.00     0.039 C
BRANCH  24  25
HETATM   25  C15 UNL     1     -13.030 -20.300  14.438  1.00  0.00    -0.012 C
HETATM   26  C16 UNL     1     -13.978 -19.412  15.128  1.00  0.00     0.005 C
HETATM   27  C17 UNL     1     -15.383 -19.862  15.315  1.00  0.00     0.000 C
HETATM   28  C18 UNL     1     -15.684 -21.302  15.117  1.00  0.00     0.000 C
HETATM   29  C19 UNL     1     -14.426 -22.072  15.516  1.00  0.00     0.000 C
HETATM   30  C20 UNL     1     -13.442 -21.769  14.398  1.00  0.00     0.005 C
ENDBRANCH  24  25
ENDBRANCH   1  24
BRANCH   1  31
HETATM   31  N4  UNL     1     -11.309 -20.941  17.102  1.00  0.00    -0.330 N
HETATM   32  C21 UNL     1     -12.365 -21.007  18.047  1.00  0.00     0.317 C
HETATM   33  O5  UNL     1     -13.231 -20.103  18.090  1.00  0.00    -0.247 OA
HETATM   34  N5  UNL     1     -12.450 -22.086  18.945  1.00  0.00    -0.338 N
ATOM     35  H5  UNL     1     -11.748 -22.826  18.921  1.00  0.00     0.164 HD
ATOM     36  H4  UNL     1     -10.617 -21.689  17.056  1.00  0.00     0.165 HD
BRANCH  34  37
HETATM   37  C22 UNL     1     -13.531 -22.144  19.900  1.00  0.00     0.089 C
HETATM   38  C23 UNL     1     -14.850 -22.267  19.227  1.00  0.00     0.045 C
HETATM   39  C24 UNL     1     -15.110 -23.768  19.002  1.00  0.00     0.127 C
HETATM   40  N6  UNL     1     -15.380 -24.305  20.321  1.00  0.00    -0.352 N
HETATM   41  C25 UNL     1     -16.435 -25.232  20.484  1.00  0.00     0.215 C
HETATM   42  C27 UNL     1     -14.549 -23.866  21.421  1.00  0.00     0.127 C
HETATM   43  C26 UNL     1     -17.292 -25.695  19.377  1.00  0.00     0.117 C
HETATM   44  O6  UNL     1     -16.653 -25.685  21.642  1.00  0.00    -0.274 OA
HETATM   45  C28 UNL     1     -13.285 -23.203  20.952  1.00  0.00     0.045 C
ENDBRANCH  34  37
ENDBRANCH   1  31
TORSDOF 11
ENDMDL