MODEL 2
REMARK VINA RESULT: -9.135980382      0.996      1.291
REMARK  10 active torsions:
REMARK  status: ('A' for Active; 'I' for Inactive)
REMARK    1  A    between atoms: C1_2  and  C2_4
REMARK    2  A    between atoms: C2_4  and  C3_5
REMARK    3  A    between atoms: C3_5  and  C4_6
REMARK    4  A    between atoms: C4_6  and  N1_7
REMARK    5  A    between atoms: C4_6  and  C25_37
REMARK       I    between atoms: N1_7  and  C5_9
REMARK    6  A    between atoms: C5_9  and  C6_11
REMARK       I    between atoms: N2_16  and  C11_17
REMARK    7  A    between atoms: C11_17  and  C12_19
REMARK    8  A    between atoms: C12_19  and  C13_20
REMARK    9  A    between atoms: C12_19  and  N3_27
REMARK   10  A    between atoms: C13_20  and  C14_21
REMARK       I    between atoms: N3_27  and  C20_29
REMARK       I    between atoms: C20_29  and  N4_31
REMARK       I    between atoms: C25_37  and  N5_39
ROOT
HETATM    1  C6  UNL     1      -7.953 -16.202  16.528  1.00  0.00     0.179 C
HETATM    2  C7  UNL     1      -7.218 -16.219  15.208  1.00  0.00     0.035 C
HETATM    3  C8  UNL     1      -8.116 -15.507  14.200  1.00  0.00     0.004 C
HETATM    4  C9  UNL     1      -9.404 -16.225  14.041  1.00  0.00     0.020 C
HETATM    5  C10 UNL     1     -10.067 -16.539  15.357  1.00  0.00     0.127 C
HETATM    6  N2  UNL     1      -9.128 -17.002  16.383  1.00  0.00    -0.337 N
HETATM    7  C11 UNL     1      -9.444 -18.185  17.088  1.00  0.00     0.243 C
HETATM    8  O4  UNL     1      -8.610 -18.687  17.933  1.00  0.00    -0.271 OA
ENDROOT
BRANCH   1   9
HETATM    9  C5  UNL     1      -7.127 -16.375  17.701  1.00  0.00     0.241 C
HETATM   10  N1  UNL     1      -6.029 -17.271  17.720  1.00  0.00    -0.346 N
ATOM     11  H1  UNL     1      -5.826 -17.797  16.871  1.00  0.00     0.163 HD
HETATM   12  O3  UNL     1      -7.353 -15.737  18.756  1.00  0.00    -0.271 OA
BRANCH  10  13
HETATM   13  C4  UNL     1      -5.169 -17.489  18.880  1.00  0.00     0.177 C
BRANCH  13  14
HETATM   14  C3  UNL     1      -5.688 -18.695  19.660  1.00  0.00     0.045 C
BRANCH  14  15
HETATM   15  C2  UNL     1      -6.166 -18.281  21.021  1.00  0.00     0.116 C
BRANCH  15  16
HETATM   16  C1  UNL     1      -5.072 -18.412  22.038  1.00  0.00     0.172 C
HETATM   17  O1  UNL     1      -5.235 -17.930  23.177  1.00  0.00    -0.648 OA
HETATM   18  O2  UNL     1      -3.901 -19.064  21.688  1.00  0.00    -0.648 OA
ENDBRANCH  15  16
ENDBRANCH  14  15
ENDBRANCH  13  14
BRANCH  13  19
HETATM   19  C25 UNL     1      -3.832 -17.849  18.354  1.00  0.00     0.242 C
HETATM   20  O7  UNL     1      -3.541 -19.083  18.378  1.00  0.00    -0.271 OA
HETATM   21  N5  UNL     1      -2.885 -16.950  17.841  1.00  0.00    -0.350 N
HETATM   22  C26 UNL     1      -3.071 -15.525  17.690  1.00  0.00     0.126 C
HETATM   23  C30 UNL     1      -1.560 -17.436  17.409  1.00  0.00     0.126 C
HETATM   24  C27 UNL     1      -3.034 -15.196  16.216  1.00  0.00     0.020 C
HETATM   25  C28 UNL     1      -2.691 -16.423  15.428  1.00  0.00     0.003 C
HETATM   26  C29 UNL     1      -1.426 -17.096  15.930  1.00  0.00     0.020 C
ENDBRANCH  13  19
ENDBRANCH  10  13
ENDBRANCH   1   9
BRANCH   7  27
HETATM   27  C12 UNL     1     -10.699 -18.938  16.962  1.00  0.00     0.179 C
BRANCH  27  28
HETATM   28  C13 UNL     1     -10.819 -19.951  15.903  1.00  0.00     0.039 C
BRANCH  28  29
HETATM   29  C14 UNL     1     -11.766 -19.819  14.784  1.00  0.00    -0.012 C
HETATM   30  C15 UNL     1     -12.482 -21.027  14.298  1.00  0.00     0.005 C
HETATM   31  C16 UNL     1     -13.435 -21.570  15.367  1.00  0.00     0.000 C
HETATM   32  C17 UNL     1     -14.562 -20.569  15.499  1.00  0.00     0.000 C
HETATM   33  C18 UNL     1     -14.231 -19.241  14.889  1.00  0.00     0.000 C
HETATM   34  C19 UNL     1     -12.838 -18.764  15.113  1.00  0.00     0.005 C
ENDBRANCH  28  29
ENDBRANCH  27  28
BRANCH  27  35
HETATM   35  N3  UNL     1     -10.721 -19.751  18.230  1.00  0.00    -0.330 N
HETATM   36  C20 UNL     1     -11.932 -20.039  18.865  1.00  0.00     0.319 C
HETATM   37  O5  UNL     1     -13.003 -19.587  18.316  1.00  0.00    -0.247 OA
HETATM   38  N4  UNL     1     -12.093 -20.769  20.039  1.00  0.00    -0.330 N
HETATM   39  C21 UNL     1     -13.400 -20.990  20.608  1.00  0.00     0.153 C
HETATM   40  C24 UNL     1     -10.979 -21.370  20.783  1.00  0.00     0.153 C
HETATM   41  C22 UNL     1     -13.402 -22.452  21.068  1.00  0.00     0.187 C
HETATM   42  O6  UNL     1     -12.486 -23.210  20.359  1.00  0.00    -0.388 OA
HETATM   43  C23 UNL     1     -11.158 -22.877  20.614  1.00  0.00     0.187 C
ATOM     44  H3  UNL     1      -9.846 -20.094  18.627  1.00  0.00     0.165 HD
ENDBRANCH  27  35
ENDBRANCH   7  27
TORSDOF 10
ENDMDL