MODEL 5
REMARK VINA RESULT: -9.261725673      1.995      9.419
REMARK  12 active torsions:
REMARK  status: ('A' for Active; 'I' for Inactive)
REMARK       I    between atoms: N1_2  and  C2_4
REMARK    1  A    between atoms: C2_4  and  C3_6
REMARK    2  A    between atoms: N2_10  and  C7_11
REMARK    3  A    between atoms: C7_11  and  O2_12
REMARK    4  A    between atoms: C8_14  and  N3_15
REMARK    5  A    between atoms: C8_14  and  C26_39
REMARK       I    between atoms: N3_15  and  C9_17
REMARK    6  A    between atoms: C9_17  and  C10_19
REMARK       I    between atoms: N4_23  and  C14_24
REMARK    7  A    between atoms: C14_24  and  C15_26
REMARK    8  A    between atoms: C15_26  and  C16_27
REMARK    9  A    between atoms: C15_26  and  C19_32
REMARK   10  A    between atoms: C16_27  and  O5_28
REMARK   11  A    between atoms: O5_28  and  C17_29
REMARK   12  A    between atoms: C19_32  and  C20_33
ROOT
HETATM    1  C7  UNL     1     -12.141 -19.162  17.622  1.00  0.00     0.162 C
HETATM    2  C8  UNL     1     -11.775 -20.011  18.698  1.00  0.00     0.069 C
ENDROOT
BRANCH   2   3
HETATM    3  N3  UNL     1     -12.382 -21.346  18.698  1.00  0.00    -0.325 N
HETATM    4  C9  UNL     1     -13.143 -21.869  19.803  1.00  0.00     0.245 C
HETATM    5  O3  UNL     1     -13.287 -21.140  20.783  1.00  0.00    -0.271 OA
ATOM      6  H3  UNL     1     -12.258 -21.934  17.874  1.00  0.00     0.169 HD
BRANCH   4   7
HETATM    7  C10 UNL     1     -13.668 -23.194  19.668  1.00  0.00     0.180 C
HETATM    8  C11 UNL     1     -14.268 -23.625  21.060  1.00  0.00     0.037 C
HETATM    9  C12 UNL     1     -15.059 -24.855  20.716  1.00  0.00     0.022 C
HETATM   10  C13 UNL     1     -14.885 -24.959  19.245  1.00  0.00     0.127 C
HETATM   11  N4  UNL     1     -14.753 -23.554  18.819  1.00  0.00    -0.335 N
HETATM   12  C14 UNL     1     -15.471 -22.877  17.827  1.00  0.00     0.252 C
HETATM   13  O4  UNL     1     -15.073 -21.678  17.548  1.00  0.00    -0.268 OA
BRANCH  12  14
HETATM   14  C15 UNL     1     -16.633 -23.287  17.018  1.00  0.00     0.030 C
BRANCH  14  15
HETATM   15  C16 UNL     1     -17.959 -23.265  17.692  1.00  0.00     0.222 C
BRANCH  15  16
HETATM   16  O5  UNL     1     -18.564 -24.526  17.852  1.00  0.00    -0.317 OA
BRANCH  16  17
HETATM   17  C17 UNL     1     -18.399 -25.401  18.869  1.00  0.00     0.255 C
HETATM   18  C18 UNL     1     -18.202 -26.851  18.560  1.00  0.00     0.126 C
HETATM   19  O6  UNL     1     -18.415 -24.982  20.056  1.00  0.00    -0.266 OA
ENDBRANCH  16  17
ENDBRANCH  15  16
ENDBRANCH  14  15
BRANCH  14  20
HETATM   20  C19 UNL     1     -16.548 -22.925  15.593  1.00  0.00    -0.007 C
BRANCH  20  21
HETATM   21  C20 UNL     1     -17.237 -23.663  14.531  1.00  0.00     0.009 C
HETATM   22  C21 UNL     1     -16.151 -23.869  13.422  1.00  0.00     0.008 C
HETATM   23  C22 UNL     1     -16.869 -24.160  12.147  1.00  0.00     0.001 C
HETATM   24  C23 UNL     1     -17.977 -25.153  12.490  1.00  0.00     0.000 C
HETATM   25  C24 UNL     1     -17.499 -26.004  13.647  1.00  0.00     0.001 C
HETATM   26  C25 UNL     1     -17.514 -25.135  14.915  1.00  0.00     0.008 C
ENDBRANCH  20  21
ENDBRANCH  14  20
ENDBRANCH  12  14
ENDBRANCH   4   7
ENDBRANCH   2   3
BRANCH   2  27
HETATM   27  C26 UNL     1     -10.538 -19.883  19.455  1.00  0.00     0.067 C
HETATM   28  C27 UNL     1     -10.068 -18.638  20.079  1.00  0.00     0.040 C
HETATM   29  C28 UNL     1      -8.567 -18.863  20.246  1.00  0.00     0.233 C
HETATM   30  N5  UNL     1      -8.168 -19.751  19.224  1.00  0.00    -0.074 N
HETATM   31  C29 UNL     1      -9.328 -20.215  18.526  1.00  0.00     0.243 C
ATOM     32  H52 UNL     1      -7.479 -19.336  18.597  1.00  0.00     0.277 HD
ATOM     33  H51 UNL     1      -7.597 -20.518  19.578  1.00  0.00     0.277 HD
ENDBRANCH   2  27
BRANCH   1  34
HETATM   34  N2  UNL     1     -11.574 -18.379  16.650  1.00  0.00    -0.346 N
HETATM   35  C3  UNL     1     -11.335 -18.589  15.207  1.00  0.00     0.183 C
HETATM   36  C4  UNL     1      -9.859 -18.689  15.132  1.00  0.00     0.032 A
HETATM   37  C5  UNL     1      -9.402 -17.801  16.314  1.00  0.00     0.019 A
HETATM   38  C30 UNL     1      -9.010 -17.484  14.947  1.00  0.00    -0.036 A
HETATM   39  C6  UNL     1     -10.736 -17.157  16.813  1.00  0.00     0.132 C
HETATM   40  C31 UNL     1      -9.493 -16.215  14.342  1.00  0.00     0.016 C
HETATM   41  C32 UNL     1      -7.544 -17.791  14.620  1.00  0.00     0.016 C
BRANCH  35  42
HETATM   42  C2  UNL     1     -12.099 -19.558  14.510  1.00  0.00     0.240 C
HETATM   43  N1  UNL     1     -12.578 -20.789  15.032  1.00  0.00    -0.364 N
HETATM   44  C1  UNL     1     -13.368 -21.732  14.244  1.00  0.00     0.149 C
ATOM     45  H1  UNL     1     -12.361 -21.025  16.000  1.00  0.00     0.161 HD
HETATM   46  O1  UNL     1     -12.415 -19.334  13.288  1.00  0.00    -0.271 OA
ENDBRANCH  35  42
ENDBRANCH   1  34
BRANCH   1  47
HETATM   47  O2  UNL     1     -13.500 -19.098  17.512  1.00  0.00    -0.345 OA
ATOM     48  H2  UNL     1     -13.798 -18.253  17.826  1.00  0.00     0.219 HD
ENDBRANCH   1  47
TORSDOF 12
ENDMDL