MODEL 4
REMARK VINA RESULT: -5.200977555      8.554     13.691
REMARK  13 active torsions:
REMARK  status: ('A' for Active; 'I' for Inactive)
REMARK    1  A    between atoms: O1_2  and  C2_3
REMARK    2  A    between atoms: C2_3  and  C3_4
REMARK    3  A    between atoms: C3_4  and  N1_5
REMARK    4  A    between atoms: N1_5  and  C4_8
REMARK    5  A    between atoms: C4_8  and  C5_9
REMARK    6  A    between atoms: C5_9  and  C6_10
REMARK    7  A    between atoms: C6_10  and  N2_11
REMARK    8  A    between atoms: N3_25  and  C20_26
REMARK    9  A    between atoms: C20_26  and  O2_27
REMARK   10  A    between atoms: C21_29  and  N4_30
REMARK       I    between atoms: N4_30  and  C22_32
REMARK   11  A    between atoms: C27_38  and  C28_39
REMARK   12  A    between atoms: C28_39  and  O4_40
REMARK   13  A    between atoms: C32_46  and  O5_47
ROOT
HETATM    1  N2  UNL     1     -17.706 -26.044  12.935  1.00  0.00    -0.360 N
HETATM    2  C7  UNL     1     -17.410 -26.832  11.776  1.00  0.00     0.125 C
HETATM    3  C8  UNL     1     -17.557 -26.145  10.447  1.00  0.00     0.020 C
HETATM    4  C9  UNL     1     -17.736 -27.248   9.393  1.00  0.00     0.002 C
HETATM    5  C10 UNL     1     -16.519 -28.096   9.220  1.00  0.00     0.000 C
HETATM    6  C11 UNL     1     -16.818 -29.099   8.125  1.00  0.00     0.000 C
HETATM    7  C12 UNL     1     -16.843 -30.518   8.580  1.00  0.00     0.000 C
HETATM    8  C13 UNL     1     -18.090 -30.924   9.322  1.00  0.00     0.000 C
HETATM    9  C14 UNL     1     -19.297 -31.098   8.464  1.00  0.00     0.000 C
HETATM   10  C15 UNL     1     -20.503 -30.309   8.913  1.00  0.00     0.000 C
HETATM   11  C16 UNL     1     -20.943 -30.716  10.296  1.00  0.00     0.000 C
HETATM   12  C17 UNL     1     -21.708 -29.625  11.011  1.00  0.00     0.007 C
HETATM   13  C18 UNL     1     -20.766 -28.841  11.948  1.00  0.00     0.012 C
HETATM   14  C19 UNL     1     -21.006 -27.405  11.729  1.00  0.00     0.136 C
HETATM   15  N3  UNL     1     -20.869 -26.510  12.899  1.00  0.00    -0.326 N
HETATM   16  C24 UNL     1     -20.094 -26.377  14.054  1.00  0.00     0.065 C
HETATM   17  C25 UNL     1     -20.411 -27.282  15.218  1.00  0.00     0.071 C
HETATM   18  C26 UNL     1     -19.793 -28.613  15.240  1.00  0.00     0.060 C
HETATM   19  C27 UNL     1     -20.557 -29.745  15.873  1.00  0.00     0.253 C
HETATM   20  N5  UNL     1     -20.491 -30.579  14.728  1.00  0.00     0.101 N
HETATM   21  C29 UNL     1     -21.501 -30.566  13.730  1.00  0.00     0.280 C
HETATM   22  C30 UNL     1     -21.169 -29.196  13.338  1.00  0.00     0.053 C
HETATM   23  C31 UNL     1     -19.880 -29.462  14.047  1.00  0.00     0.236 C
HETATM   24  C32 UNL     1     -18.621 -26.232  13.967  1.00  0.00     0.161 C
ENDROOT
BRANCH   1  25
HETATM   25  C6  UNL     1     -16.830 -24.853  13.073  1.00  0.00     0.126 C
BRANCH  25  26
HETATM   26  C5  UNL     1     -17.578 -23.589  13.293  1.00  0.00     0.047 C
BRANCH  26  27
HETATM   27  C4  UNL     1     -16.914 -22.882  14.481  1.00  0.00     0.234 C
BRANCH  27  28
HETATM   28  N1  UNL     1     -16.919 -23.652  15.677  1.00  0.00    -0.073 N
ATOM     29  H12 UNL     1     -16.120 -24.286  15.694  1.00  0.00     0.277 HD
ATOM     30  H11 UNL     1     -17.681 -24.330  15.659  1.00  0.00     0.277 HD
BRANCH  28  31
HETATM   31  C3  UNL     1     -16.967 -22.875  16.895  1.00  0.00     0.258 C
BRANCH  31  32
HETATM   32  C2  UNL     1     -17.833 -23.621  17.877  1.00  0.00     0.194 C
BRANCH  32  33
HETATM   33  O1  UNL     1     -17.247 -23.872  19.094  1.00  0.00    -0.394 OA
HETATM   34  C1  UNL     1     -15.889 -23.631  19.141  1.00  0.00     0.201 C
ENDBRANCH  32  33
ENDBRANCH  31  32
ENDBRANCH  28  31
ENDBRANCH  27  28
ENDBRANCH  26  27
ENDBRANCH  25  26
ENDBRANCH   1  25
BRANCH  24  35
HETATM   35  O5  UNL     1     -18.095 -26.298  15.184  1.00  0.00    -0.345 OA
ATOM     36  H5  UNL     1     -18.271 -25.549  15.742  1.00  0.00     0.219 HD
ENDBRANCH  24  35
BRANCH  15  37
HETATM   37  C20 UNL     1     -21.790 -25.491  12.652  1.00  0.00     0.158 C
HETATM   38  C21 UNL     1     -22.100 -24.581  11.599  1.00  0.00     0.147 C
BRANCH  37  39
HETATM   39  O2  UNL     1     -22.660 -25.247  13.671  1.00  0.00    -0.345 OA
ATOM     40  H2  UNL     1     -23.415 -24.724  13.433  1.00  0.00     0.219 HD
ENDBRANCH  37  39
BRANCH  38  41
HETATM   41  N4  UNL     1     -21.442 -24.337  10.393  1.00  0.00    -0.333 N
HETATM   42  C22 UNL     1     -21.257 -22.940  10.017  1.00  0.00     0.217 C
HETATM   43  C23 UNL     1     -20.575 -22.637   8.765  1.00  0.00     0.117 C
HETATM   44  O3  UNL     1     -21.688 -22.066  10.776  1.00  0.00    -0.274 OA
ATOM     45  H4  UNL     1     -21.105 -25.098   9.803  1.00  0.00     0.168 HD
ENDBRANCH  38  41
ENDBRANCH  15  37
BRANCH  19  46
HETATM   46  C28 UNL     1     -21.851 -29.439  16.509  1.00  0.00     0.200 C
BRANCH  46  47
HETATM   47  O4  UNL     1     -21.867 -30.083  17.768  1.00  0.00    -0.399 OA
ATOM     48  H4  UNL     1     -21.774 -31.015  17.612  1.00  0.00     0.209 HD
ENDBRANCH  46  47
ENDBRANCH  19  46
TORSDOF 13
ENDMDL