MODEL 2
REMARK VINA RESULT: -9.627612919      1.633      2.831
REMARK  12 active torsions:
REMARK  status: ('A' for Active; 'I' for Inactive)
REMARK    1  A    between atoms: C2_2  and  C4_4
REMARK    2  A    between atoms: C4_4  and  C5_5
REMARK    3  A    between atoms: C8_8  and  C9_9
REMARK    4  A    between atoms: C9_9  and  N1_10
REMARK       I    between atoms: N1_10  and  C10_12
REMARK    5  A    between atoms: C10_12  and  C11_14
REMARK    6  A    between atoms: C11_14  and  N2_15
REMARK       I    between atoms: N2_15  and  C12_17
REMARK    7  A    between atoms: C12_17  and  C13_19
REMARK       I    between atoms: N3_23  and  C17_24
REMARK    8  A    between atoms: C17_24  and  C18_26
REMARK    9  A    between atoms: C18_26  and  O4_28
REMARK   10  A    between atoms: C18_26  and  C20_30
REMARK   11  A    between atoms: C20_30  and  C21_31
REMARK   12  A    between atoms: C21_31  and  S1_32
ROOT
HETATM    1  N1  UNL     1     -11.678 -20.093  20.480  1.00  0.00    -0.359 N
ATOM      2  H1  UNL     1     -12.394 -19.600  19.946  1.00  0.00     0.162 HD
HETATM    3  C10 UNL     1     -11.992 -21.358  21.035  1.00  0.00     0.235 C
HETATM    4  O1  UNL     1     -11.165 -22.027  21.694  1.00  0.00    -0.272 OA
ENDROOT
BRANCH   3   5
HETATM    5  C11 UNL     1     -13.349 -21.911  20.832  1.00  0.00     0.225 C
BRANCH   5   6
HETATM    6  N2  UNL     1     -13.673 -22.179  19.476  1.00  0.00    -0.351 N
HETATM    7  C12 UNL     1     -14.407 -21.344  18.610  1.00  0.00     0.241 C
HETATM    8  O2  UNL     1     -14.832 -20.230  19.083  1.00  0.00    -0.271 OA
ATOM      9  H2  UNL     1     -13.342 -23.063  19.091  1.00  0.00     0.163 HD
BRANCH   7  10
HETATM   10  C13 UNL     1     -14.753 -21.611  17.206  1.00  0.00     0.179 C
HETATM   11  C14 UNL     1     -14.982 -20.272  16.490  1.00  0.00     0.037 C
HETATM   12  C15 UNL     1     -16.330 -20.334  15.854  1.00  0.00     0.022 C
HETATM   13  C16 UNL     1     -16.558 -21.836  15.756  1.00  0.00     0.127 C
HETATM   14  N3  UNL     1     -15.978 -22.334  16.979  1.00  0.00    -0.336 N
HETATM   15  C17 UNL     1     -16.487 -23.401  17.802  1.00  0.00     0.254 C
HETATM   16  O3  UNL     1     -15.795 -23.774  18.798  1.00  0.00    -0.270 OA
BRANCH  15  17
HETATM   17  C18 UNL     1     -17.753 -24.108  17.592  1.00  0.00     0.135 C
HETATM   18  C19 UNL     1     -17.881 -24.560  16.173  1.00  0.00     0.056 C
BRANCH  17  19
HETATM   19  O4  UNL     1     -18.849 -23.235  17.821  1.00  0.00    -0.381 OA
ATOM     20  H4  UNL     1     -19.665 -23.721  17.814  1.00  0.00     0.211 HD
ENDBRANCH  17  19
BRANCH  17  21
HETATM   21  C20 UNL     1     -17.855 -25.262  18.582  1.00  0.00     0.057 C
BRANCH  21  22
HETATM   22  C21 UNL     1     -19.084 -26.066  18.166  1.00  0.00     0.066 C
BRANCH  22  23
HETATM   23  S1  UNL     1     -18.707 -27.767  17.867  1.00  0.00    -0.228 SA
HETATM   24  C22 UNL     1     -19.906 -28.742  18.752  1.00  0.00     0.078 C
HETATM   25  C23 UNL     1     -18.861 -28.132  16.127  1.00  0.00     0.078 C
ENDBRANCH  22  23
ENDBRANCH  21  22
ENDBRANCH  17  21
ENDBRANCH  15  17
ENDBRANCH   7  10
ENDBRANCH   5   6
ENDBRANCH   3   5
BRANCH   1  26
HETATM   26  C9  UNL     1     -10.398 -19.483  20.638  1.00  0.00     0.127 C
BRANCH  26  27
HETATM   27  C8  UNL     1      -9.979 -18.506  19.595  1.00  0.00     0.010 A
HETATM   28  C7  UNL     1      -8.527 -18.427  19.330  1.00  0.00     0.007 A
HETATM   29  C6  UNL     1      -8.302 -18.802  17.892  1.00  0.00     0.012 A
HETATM   30  C5  UNL     1      -9.617 -18.992  17.214  1.00  0.00    -0.013 A
HETATM   31  C24 UNL     1     -10.680 -18.879  18.320  1.00  0.00     0.020 A
HETATM   32  C32 UNL     1      -9.999 -17.774  16.415  1.00  0.00     0.100 C
HETATM   33  C25 UNL     1     -11.626 -17.794  17.949  1.00  0.00     0.128 C
HETATM   34  N4  UNL     1     -11.382 -17.509  16.584  1.00  0.00    -0.387 N
HETATM   35  C26 UNL     1     -12.331 -17.866  15.642  1.00  0.00     0.058 C
HETATM   36  C27 UNL     1     -11.940 -17.931  14.219  1.00  0.00     0.045 C
HETATM   37  C28 UNL     1     -10.483 -18.218  13.981  1.00  0.00     0.016 C
HETATM   38  C29 UNL     1      -9.581 -17.606  15.032  1.00  0.00    -0.026 C
HETATM   39  C30 UNL     1      -9.721 -16.080  14.755  1.00  0.00     0.017 C
HETATM   40  C31 UNL     1      -8.169 -17.900  14.665  1.00  0.00     0.017 C
BRANCH  30  41
HETATM   41  C4  UNL     1      -9.846 -20.270  16.547  1.00  0.00     0.016 C
BRANCH  41  42
HETATM   42  C2  UNL     1     -11.035 -21.094  16.811  1.00  0.00    -0.022 C
HETATM   43  C1  UNL     1     -10.822 -22.444  17.431  1.00  0.00     0.009 C
HETATM   44  C3  UNL     1     -11.773 -21.404  15.481  1.00  0.00     0.009 C
ENDBRANCH  41  42
ENDBRANCH  30  41
ENDBRANCH  26  27
ENDBRANCH   1  26
TORSDOF 12
ENDMDL