MODEL 3
REMARK VINA RESULT: -9.489721709      3.298      6.202
REMARK  12 active torsions:
REMARK  status: ('A' for Active; 'I' for Inactive)
REMARK       I    between atoms: N1_2  and  C2_4
REMARK    1  A    between atoms: C2_4  and  C3_6
REMARK       I    between atoms: N2_10  and  C7_11
REMARK    2  A    between atoms: C7_11  and  C8_13
REMARK    3  A    between atoms: C8_13  and  C9_15
REMARK    4  A    between atoms: C9_15  and  C10_16
REMARK    5  A    between atoms: C9_15  and  N3_23
REMARK    6  A    between atoms: C10_16  and  C11_17
REMARK       I    between atoms: N3_23  and  C17_25
REMARK       I    between atoms: C17_25  and  N4_27
REMARK    7  A    between atoms: N4_27  and  C18_29
REMARK    8  A    between atoms: C18_29  and  C19_30
REMARK    9  A    between atoms: C18_29  and  C29_44
REMARK   10  A    between atoms: C19_30  and  O5_31
REMARK   11  A    between atoms: C23_37  and  C24_38
REMARK   12  A    between atoms: C24_38  and  C25_40
ROOT
HETATM    1  N3  UNL     1     -17.369  21.759  -6.399  1.00  0.00    -0.309 N
ATOM      2  H3  UNL     1     -17.563  22.743  -6.581  1.00  0.00     0.170 HD
HETATM    3  C17 UNL     1     -15.996  21.497  -6.300  1.00  0.00     0.321 C
HETATM    4  O4  UNL     1     -15.619  20.329  -6.054  1.00  0.00    -0.247 OA
HETATM    5  N4  UNL     1     -15.039  22.527  -6.460  1.00  0.00    -0.330 N
ATOM      6  H4  UNL     1     -15.365  23.444  -6.765  1.00  0.00     0.165 HD
ENDROOT
BRANCH   1   7
HETATM    7  C9  UNL     1     -18.545  20.993  -6.306  1.00  0.00     0.070 C
BRANCH   7   8
HETATM    8  C8  UNL     1     -18.741  20.447  -4.952  1.00  0.00     0.261 C
HETATM    9  O3  UNL     1     -18.747  21.300  -3.990  1.00  0.00    -0.280 OA
BRANCH   8  10
HETATM   10  C7  UNL     1     -18.900  19.069  -4.590  1.00  0.00     0.296 C
HETATM   11  N2  UNL     1     -20.051  18.434  -4.038  1.00  0.00    -0.332 N
HETATM   12  C3  UNL     1     -20.107  17.004  -3.667  1.00  0.00     0.179 C
HETATM   13  C6  UNL     1     -21.350  18.934  -3.674  1.00  0.00     0.127 C
HETATM   14  C4  UNL     1     -20.741  17.047  -2.308  1.00  0.00     0.037 C
HETATM   15  C5  UNL     1     -21.420  18.396  -2.225  1.00  0.00     0.022 C
HETATM   16  O2  UNL     1     -17.908  18.262  -4.755  1.00  0.00    -0.264 OA
BRANCH  12  17
HETATM   17  C2  UNL     1     -20.874  16.280  -4.691  1.00  0.00     0.240 C
HETATM   18  N1  UNL     1     -20.366  16.138  -6.028  1.00  0.00    -0.364 N
HETATM   19  C1  UNL     1     -21.137  15.423  -7.002  1.00  0.00     0.149 C
ATOM     20  H1  UNL     1     -19.465  16.543  -6.282  1.00  0.00     0.161 HD
HETATM   21  O1  UNL     1     -21.982  15.781  -4.397  1.00  0.00    -0.271 OA
ENDBRANCH  12  17
ENDBRANCH   8  10
ENDBRANCH   7   8
BRANCH   7  22
HETATM   22  C10 UNL     1     -19.180  20.372  -7.477  1.00  0.00     0.066 C
BRANCH  22  23
HETATM   23  C11 UNL     1     -18.463  19.237  -8.147  1.00  0.00    -0.009 C
HETATM   24  C12 UNL     1     -19.537  18.345  -8.805  1.00  0.00     0.005 C
HETATM   25  C13 UNL     1     -18.913  17.098  -9.371  1.00  0.00     0.000 C
HETATM   26  C14 UNL     1     -17.441  16.981  -9.063  1.00  0.00     0.000 C
HETATM   27  C15 UNL     1     -16.738  18.198  -9.555  1.00  0.00     0.000 C
HETATM   28  C16 UNL     1     -17.328  19.504  -9.038  1.00  0.00     0.005 C
ENDBRANCH  22  23
ENDBRANCH   7  22
ENDBRANCH   1   7
BRANCH   5  29
HETATM   29  C18 UNL     1     -13.585  22.351  -6.211  1.00  0.00     0.168 C
BRANCH  29  30
HETATM   30  C19 UNL     1     -13.259  23.267  -5.116  1.00  0.00     0.138 C
HETATM   31  N5  UNL     1     -13.838  24.238  -4.354  1.00  0.00    -0.352 N
HETATM   32  C20 UNL     1     -15.138  24.844  -4.147  1.00  0.00     0.125 C
HETATM   33  C23 UNL     1     -13.108  25.074  -3.318  1.00  0.00     0.156 C
HETATM   34  C21 UNL     1     -15.342  24.667  -2.637  1.00  0.00     0.022 C
HETATM   35  C22 UNL     1     -13.880  24.551  -2.141  1.00  0.00     0.035 C
BRANCH  30  36
HETATM   36  O5  UNL     1     -11.976  23.040  -4.782  1.00  0.00    -0.348 OA
ATOM     37  H5  UNL     1     -11.648  23.837  -4.381  1.00  0.00     0.219 HD
ENDBRANCH  30  36
BRANCH  33  38
HETATM   38  C24 UNL     1     -11.686  25.026  -3.332  1.00  0.00     0.154 C
HETATM   39  O6  UNL     1     -11.188  24.311  -2.386  1.00  0.00    -0.295 OA
BRANCH  38  40
HETATM   40  C25 UNL     1     -10.677  25.622  -4.198  1.00  0.00     0.061 A
HETATM   41  C26 UNL     1     -11.294  26.279  -5.479  1.00  0.00     0.017 A
HETATM   42  C27 UNL     1     -10.435  27.033  -4.462  1.00  0.00    -0.007 A
HETATM   43  C28 UNL     1      -9.063  27.405  -5.017  1.00  0.00     0.011 C
ENDBRANCH  38  40
ENDBRANCH  33  38
ENDBRANCH  29  30
BRANCH  29  44
HETATM   44  C29 UNL     1     -12.770  22.210  -7.407  1.00  0.00    -0.023 C
HETATM   45  C30 UNL     1     -11.426  22.897  -7.380  1.00  0.00     0.017 C
HETATM   46  C31 UNL     1     -12.434  20.723  -7.703  1.00  0.00     0.017 C
HETATM   47  C32 UNL     1     -13.444  22.682  -8.711  1.00  0.00     0.017 C
ENDBRANCH  29  44
ENDBRANCH   5  29
TORSDOF 12
ENDMDL