MODEL 2
REMARK VINA RESULT: -8.877946177      4.417      8.884
REMARK  11 active torsions:
REMARK  status: ('A' for Active; 'I' for Inactive)
REMARK    1  A    between atoms: C2_2  and  N1_3
REMARK       I    between atoms: N1_3  and  C3_5
REMARK    2  A    between atoms: C3_5  and  C4_7
REMARK    3  A    between atoms: C5_8  and  C6_9
REMARK       I    between atoms: C6_9  and  N2_11
REMARK    4  A    between atoms: N2_11  and  C7_13
REMARK    5  A    between atoms: C7_13  and  C8_14
REMARK    6  A    between atoms: C7_13  and  C10_19
REMARK    7  A    between atoms: C8_14  and  C9_16
REMARK       I    between atoms: C10_19  and  N4_21
REMARK    8  A    between atoms: C14_25  and  C15_26
REMARK    9  A    between atoms: C15_26  and  C16_27
REMARK   10  A    between atoms: N5_37  and  C26_38
REMARK   11  A    between atoms: C26_38  and  C27_39
ROOT
HETATM    1  C4  UNL     1     -24.608  18.018  -3.666  1.00  0.00     0.189 C
HETATM    2  C5  UNL     1     -24.042  17.027  -4.606  1.00  0.00     0.114 C
HETATM    3  C20 UNL     1     -24.513  17.151  -6.015  1.00  0.00     0.010 C
HETATM    4  C21 UNL     1     -24.673  15.889  -6.760  1.00  0.00     0.006 C
HETATM    5  C22 UNL     1     -25.694  16.223  -7.821  1.00  0.00     0.001 C
HETATM    6  C23 UNL     1     -26.269  17.571  -7.456  1.00  0.00     0.010 C
HETATM    7  C24 UNL     1     -25.942  17.682  -6.006  1.00  0.00     0.029 C
HETATM    8  C25 UNL     1     -25.805  19.100  -5.517  1.00  0.00     0.064 C
HETATM    9  N5  UNL     1     -25.296  19.115  -4.230  1.00  0.00    -0.379 N
ENDROOT
BRANCH   2  10
HETATM   10  C6  UNL     1     -22.574  16.946  -4.590  1.00  0.00     0.225 C
HETATM   11  O2  UNL     1     -22.024  15.837  -4.277  1.00  0.00    -0.273 OA
HETATM   12  N2  UNL     1     -21.725  18.028  -4.904  1.00  0.00    -0.341 N
ATOM     13  H2  UNL     1     -22.156  18.919  -5.154  1.00  0.00     0.163 HD
BRANCH  12  14
HETATM   14  C7  UNL     1     -20.259  17.949  -4.892  1.00  0.00     0.257 C
BRANCH  14  15
HETATM   15  C8  UNL     1     -19.764  19.167  -4.173  1.00  0.00     0.245 C
HETATM   16  O3  UNL     1     -20.527  20.203  -4.252  1.00  0.00    -0.285 OA
BRANCH  15  17
HETATM   17  C9  UNL     1     -18.554  19.276  -3.426  1.00  0.00     0.303 C
HETATM   18  N3  UNL     1     -18.338  18.363  -2.312  1.00  0.00    -0.054 NA
HETATM   19  O4  UNL     1     -17.629  20.089  -3.623  1.00  0.00    -0.268 OA
ENDBRANCH  15  17
ENDBRANCH  14  15
BRANCH  14  20
HETATM   20  C10 UNL     1     -19.749  18.022  -6.287  1.00  0.00     0.251 C
HETATM   21  O5  UNL     1     -19.322  19.182  -6.636  1.00  0.00    -0.271 OA
HETATM   22  N4  UNL     1     -19.698  16.982  -7.218  1.00  0.00    -0.345 N
HETATM   23  C11 UNL     1     -20.284  15.655  -6.923  1.00  0.00     0.126 C
HETATM   24  C14 UNL     1     -19.134  16.866  -8.559  1.00  0.00     0.088 C
HETATM   25  C12 UNL     1     -20.895  15.205  -8.222  1.00  0.00     0.022 C
HETATM   26  C13 UNL     1     -20.150  16.014  -9.257  1.00  0.00     0.027 C
BRANCH  24  27
HETATM   27  C15 UNL     1     -18.837  18.183  -9.119  1.00  0.00     0.033 C
BRANCH  27  28
HETATM   28  C16 UNL     1     -17.434  18.466  -9.574  1.00  0.00    -0.050 C
HETATM   29  C17 UNL     1     -16.546  17.514  -8.742  1.00  0.00     0.014 C
HETATM   30  C18 UNL     1     -16.996  19.841  -9.131  1.00  0.00     0.014 C
HETATM   31  C19 UNL     1     -17.153  18.189 -10.997  1.00  0.00     0.014 C
ENDBRANCH  27  28
ENDBRANCH  24  27
ENDBRANCH  14  20
ENDBRANCH  12  14
ENDBRANCH   2  10
BRANCH   1  32
HETATM   32  C3  UNL     1     -25.496  17.389  -2.620  1.00  0.00     0.241 C
HETATM   33  N1  UNL     1     -26.812  16.948  -2.877  1.00  0.00    -0.360 N
ATOM     34  H1  UNL     1     -27.218  17.034  -3.808  1.00  0.00     0.162 HD
HETATM   35  O1  UNL     1     -25.031  17.256  -1.462  1.00  0.00    -0.271 OA
BRANCH  33  36
HETATM   36  C2  UNL     1     -27.573  16.370  -1.787  1.00  0.00     0.118 C
HETATM   37  C1  UNL     1     -28.660  17.341  -1.320  1.00  0.00     0.026 C
ENDBRANCH  33  36
ENDBRANCH   1  32
BRANCH   9  38
HETATM   38  C26 UNL     1     -25.367  20.271  -3.426  1.00  0.00     0.127 C
BRANCH  38  39
HETATM   39  C27 UNL     1     -25.930  21.512  -4.049  1.00  0.00     0.003 C
HETATM   40  C28 UNL     1     -24.942  22.592  -4.335  1.00  0.00     0.006 C
HETATM   41  C29 UNL     1     -25.498  23.966  -3.953  1.00  0.00     0.000 C
HETATM   42  C30 UNL     1     -25.761  24.018  -2.460  1.00  0.00     0.000 C
HETATM   43  C31 UNL     1     -26.561  22.845  -1.998  1.00  0.00     0.000 C
HETATM   44  C32 UNL     1     -27.075  22.084  -3.209  1.00  0.00     0.006 C
ENDBRANCH  38  39
ENDBRANCH   9  38
TORSDOF 11
ENDMDL