MODEL 1
REMARK VINA RESULT: -10.405205799      0.000      0.000
REMARK  10 active torsions:
REMARK  status: ('A' for Active; 'I' for Inactive)
REMARK    1  A    between atoms: C6_7  and  C7_8
REMARK       I    between atoms: C7_8  and  N2_10
REMARK    2  A    between atoms: N2_10  and  C8_12
REMARK    3  A    between atoms: C10_14  and  C11_15
REMARK       I    between atoms: C11_15  and  N3_17
REMARK    4  A    between atoms: N3_17  and  C12_19
REMARK    5  A    between atoms: C12_19  and  C13_20
REMARK    6  A    between atoms: N5_27  and  C17_28
REMARK    7  A    between atoms: C17_28  and  C18_29
REMARK    8  A    between atoms: C18_29  and  C19_30
REMARK    9  A    between atoms: N6_33  and  C22_34
REMARK   10  A    between atoms: C22_34  and  C23_35
ROOT
HETATM    1  C13 UNL     1     -11.715  24.577  -3.816  1.00  0.00     0.259 C
HETATM    2  C14 UNL     1     -10.626  25.514  -3.378  1.00  0.00     0.160 C
HETATM    3  N4  UNL     1     -10.526  26.718  -4.170  1.00  0.00    -0.357 N
ATOM      4  H4  UNL     1     -10.372  27.631  -3.744  1.00  0.00     0.162 HD
HETATM    5  C15 UNL     1     -10.655  26.556  -5.594  1.00  0.00     0.246 C
HETATM    6  O3  UNL     1     -10.571  27.463  -6.401  1.00  0.00    -0.272 OA
HETATM    7  C16 UNL     1     -10.908  25.148  -5.992  1.00  0.00     0.375 C
HETATM    8  N5  UNL     1     -11.910  24.491  -5.194  1.00  0.00     0.105 N
ENDROOT
BRANCH   1   9
HETATM    9  C12 UNL     1     -12.927  24.894  -2.968  1.00  0.00     0.160 C
BRANCH   9  10
HETATM   10  N3  UNL     1     -14.133  24.209  -3.335  1.00  0.00    -0.359 N
HETATM   11  C11 UNL     1     -14.780  23.431  -2.352  1.00  0.00     0.222 C
HETATM   12  O2  UNL     1     -14.315  23.347  -1.205  1.00  0.00    -0.273 OA
ATOM     13  H3  UNL     1     -14.512  24.283  -4.279  1.00  0.00     0.162 HD
BRANCH  11  14
HETATM   14  C10 UNL     1     -16.021  22.717  -2.700  1.00  0.00     0.080 C
HETATM   15  C9  UNL     1     -15.846  21.268  -3.019  1.00  0.00     0.040 C
HETATM   16  C8  UNL     1     -16.834  20.980  -4.097  1.00  0.00     0.093 C
HETATM   17  C32 UNL     1     -17.474  22.261  -4.478  1.00  0.00    -0.026 C
HETATM   18  C31 UNL     1     -16.541  23.339  -4.005  1.00  0.00     0.025 C
HETATM   19  C33 UNL     1     -17.593  22.426  -5.981  1.00  0.00     0.017 C
HETATM   20  C34 UNL     1     -18.810  22.482  -3.796  1.00  0.00     0.017 C
BRANCH  16  21
HETATM   21  N2  UNL     1     -17.793  19.960  -3.709  1.00  0.00    -0.354 N
HETATM   22  C7  UNL     1     -18.022  18.770  -4.403  1.00  0.00     0.240 C
HETATM   23  O1  UNL     1     -17.384  18.514  -5.443  1.00  0.00    -0.271 OA
ATOM     24  H2  UNL     1     -18.341  20.126  -2.865  1.00  0.00     0.162 HD
BRANCH  22  25
HETATM   25  C6  UNL     1     -19.024  17.805  -3.907  1.00  0.00     0.171 C
HETATM   26  N1  UNL     1     -20.007  18.431  -3.088  1.00  0.00    -0.404 N
HETATM   27  C1  UNL     1     -20.272  17.716  -1.858  1.00  0.00     0.144 C
HETATM   28  C2  UNL     1     -21.165  18.938  -3.734  1.00  0.00     0.117 C
HETATM   29  C3  UNL     1     -21.818  17.903  -4.658  1.00  0.00     0.019 C
HETATM   30  C4  UNL     1     -20.759  17.604  -5.719  1.00  0.00     0.004 C
HETATM   31  C5  UNL     1     -19.599  16.956  -5.013  1.00  0.00     0.035 C
ENDBRANCH  22  25
ENDBRANCH  16  21
ENDBRANCH  11  14
ENDBRANCH   9  10
ENDBRANCH   1   9
BRANCH   8  32
HETATM   32  C17 UNL     1     -12.008  23.143  -5.754  1.00  0.00     0.274 C
BRANCH  32  33
HETATM   33  C18 UNL     1     -11.713  23.177  -7.200  1.00  0.00     0.035 C
BRANCH  33  34
HETATM   34  C19 UNL     1     -12.460  22.100  -8.013  1.00  0.00    -0.007 C
HETATM   35  C20 UNL     1     -13.118  21.097  -7.168  1.00  0.00     0.049 C
HETATM   36  C21 UNL     1     -14.582  20.848  -7.443  1.00  0.00     0.064 C
HETATM   37  N6  UNL     1     -14.863  20.898  -8.814  1.00  0.00    -0.370 N
HETATM   38  C29 UNL     1     -14.606  22.184  -9.346  1.00  0.00     0.128 C
HETATM   39  C30 UNL     1     -13.238  22.714  -9.121  1.00  0.00     0.025 C
BRANCH  37  40
HETATM   40  C22 UNL     1     -15.759  20.043  -9.419  1.00  0.00     0.092 C
BRANCH  40  41
HETATM   41  C23 UNL     1     -16.672  19.169  -8.610  1.00  0.00    -0.064 C
HETATM   42  C24 UNL     1     -16.421  17.707  -8.723  1.00  0.00     0.035 C
HETATM   43  C25 UNL     1     -17.515  16.910  -9.388  1.00  0.00     0.004 C
HETATM   44  C26 UNL     1     -18.852  17.285  -8.768  1.00  0.00     0.001 C
HETATM   45  C27 UNL     1     -19.101  18.721  -9.220  1.00  0.00     0.004 C
HETATM   46  C28 UNL     1     -18.086  19.597  -8.583  1.00  0.00     0.035 C
ENDBRANCH  40  41
ENDBRANCH  37  40
ENDBRANCH  33  34
ENDBRANCH  32  33
ENDBRANCH   8  32
TORSDOF 10
ENDMDL