MODEL 1
REMARK VINA RESULT: -8.630765142      0.000      0.000
REMARK  14 active torsions:
REMARK  status: ('A' for Active; 'I' for Inactive)
REMARK    1  A    between atoms: C2_2  and  C3_3
REMARK    2  A    between atoms: C3_3  and  C4_5
REMARK    3  A    between atoms: C4_5  and  N1_6
REMARK    4  A    between atoms: C4_5  and  C28_43
REMARK       I    between atoms: N1_6  and  C5_8
REMARK    5  A    between atoms: C5_8  and  C6_10
REMARK    6  A    between atoms: N2_13  and  C9_14
REMARK    7  A    between atoms: C9_14  and  O3_15
REMARK    8  A    between atoms: C9_14  and  C10_17
REMARK    9  A    between atoms: C10_17  and  N3_18
REMARK   10  A    between atoms: C10_17  and  C24_39
REMARK       I    between atoms: N3_18  and  C11_20
REMARK   11  A    between atoms: C11_20  and  C12_22
REMARK       I    between atoms: N4_26  and  C16_27
REMARK   12  A    between atoms: C16_27  and  C17_29
REMARK   13  A    between atoms: C17_29  and  N5_30
REMARK   14  A    between atoms: C17_29  and  C20_35
REMARK       I    between atoms: N5_30  and  C18_32
ROOT
HETATM    1  C10 UNL     1     -17.935  19.469  -8.140  1.00  0.00     0.166 C
ENDROOT
BRANCH   1   2
HETATM    2  C9  UNL     1     -17.289  19.886  -6.885  1.00  0.00     0.138 C
BRANCH   2   3
HETATM    3  N2  UNL     1     -16.272  20.841  -6.695  1.00  0.00    -0.350 N
HETATM    4  C6  UNL     1     -15.883  22.215  -6.788  1.00  0.00     0.179 C
HETATM    5  C7  UNL     1     -14.442  21.763  -7.042  1.00  0.00     0.055 C
HETATM    6  C8  UNL     1     -14.879  20.609  -6.205  1.00  0.00     0.128 C
BRANCH   4   7
HETATM    7  C5  UNL     1     -16.021  23.025  -5.548  1.00  0.00     0.241 C
HETATM    8  N1  UNL     1     -14.913  23.537  -4.901  1.00  0.00    -0.348 N
ATOM      9  H1  UNL     1     -14.008  23.331  -5.326  1.00  0.00     0.163 HD
HETATM   10  O2  UNL     1     -17.175  23.222  -5.113  1.00  0.00    -0.271 OA
BRANCH   8  11
HETATM   11  C4  UNL     1     -14.886  24.325  -3.700  1.00  0.00     0.157 C
BRANCH  11  12
HETATM   12  C3  UNL     1     -13.643  25.142  -3.612  1.00  0.00     0.149 C
HETATM   13  O1  UNL     1     -13.302  25.907  -4.489  1.00  0.00    -0.296 OA
BRANCH  12  14
HETATM   14  C2  UNL     1     -12.804  25.005  -2.393  1.00  0.00     0.076 C
HETATM   15  C1  UNL     1     -11.349  25.349  -2.652  1.00  0.00     0.013 C
ENDBRANCH  12  14
ENDBRANCH  11  12
BRANCH  11  16
HETATM   16  C28 UNL     1     -15.083  23.580  -2.440  1.00  0.00     0.007 C
HETATM   17  C29 UNL     1     -15.196  22.100  -2.567  1.00  0.00     0.012 C
HETATM   18  C30 UNL     1     -16.229  24.159  -1.595  1.00  0.00     0.012 C
ENDBRANCH  11  16
ENDBRANCH   8  11
ENDBRANCH   4   7
ENDBRANCH   2   3
BRANCH   2  19
HETATM   19  O3  UNL     1     -17.707  19.307  -5.786  1.00  0.00    -0.348 OA
ATOM     20  H3  UNL     1     -18.451  18.728  -5.902  1.00  0.00     0.219 HD
ENDBRANCH   2  19
ENDBRANCH   1   2
BRANCH   1  21
HETATM   21  N3  UNL     1     -18.984  18.541  -7.767  1.00  0.00    -0.347 N
HETATM   22  C11 UNL     1     -20.329  18.529  -8.105  1.00  0.00     0.241 C
HETATM   23  O4  UNL     1     -20.770  19.431  -8.854  1.00  0.00    -0.271 OA
ATOM     24  H3  UNL     1     -18.687  17.778  -7.160  1.00  0.00     0.163 HD
BRANCH  22  25
HETATM   25  C12 UNL     1     -21.240  17.499  -7.617  1.00  0.00     0.179 C
HETATM   26  C13 UNL     1     -20.728  16.105  -8.017  1.00  0.00     0.037 C
HETATM   27  C14 UNL     1     -21.344  15.204  -6.985  1.00  0.00     0.022 C
HETATM   28  C15 UNL     1     -22.183  16.099  -6.094  1.00  0.00     0.127 C
HETATM   29  N4  UNL     1     -21.432  17.364  -6.210  1.00  0.00    -0.337 N
HETATM   30  C16 UNL     1     -21.138  18.144  -5.077  1.00  0.00     0.244 C
HETATM   31  O5  UNL     1     -20.595  19.265  -5.220  1.00  0.00    -0.271 OA
BRANCH  30  32
HETATM   32  C17 UNL     1     -21.436  17.719  -3.704  1.00  0.00     0.184 C
BRANCH  32  33
HETATM   33  N5  UNL     1     -22.474  18.654  -3.211  1.00  0.00    -0.347 N
HETATM   34  C18 UNL     1     -23.854  18.232  -3.204  1.00  0.00     0.214 C
HETATM   35  C19 UNL     1     -24.945  19.110  -2.736  1.00  0.00     0.117 C
HETATM   36  O6  UNL     1     -24.128  17.081  -3.610  1.00  0.00    -0.274 OA
ATOM     37  H5  UNL     1     -22.217  19.584  -2.880  1.00  0.00     0.163 HD
ENDBRANCH  32  33
BRANCH  32  38
HETATM   38  C20 UNL     1     -20.300  17.864  -2.728  1.00  0.00    -0.022 C
HETATM   39  C21 UNL     1     -18.934  17.654  -3.279  1.00  0.00     0.017 C
HETATM   40  C22 UNL     1     -20.391  19.162  -1.938  1.00  0.00     0.017 C
HETATM   41  C23 UNL     1     -20.516  16.748  -1.690  1.00  0.00     0.017 C
ENDBRANCH  32  38
ENDBRANCH  30  32
ENDBRANCH  22  25
ENDBRANCH   1  21
BRANCH   1  42
HETATM   42  C24 UNL     1     -16.963  18.842  -9.093  1.00  0.00    -0.023 C
HETATM   43  C25 UNL     1     -17.606  18.113 -10.244  1.00  0.00     0.017 C
HETATM   44  C26 UNL     1     -16.034  19.863  -9.718  1.00  0.00     0.017 C
HETATM   45  C27 UNL     1     -16.090  17.871  -8.356  1.00  0.00     0.017 C
ENDBRANCH   1  42
TORSDOF 14
ENDMDL