MODEL 5
REMARK VINA RESULT: -9.014200557      2.177      8.748
REMARK  12 active torsions:
REMARK  status: ('A' for Active; 'I' for Inactive)
REMARK    1  A    between atoms: C2_2  and  C3_3
REMARK    2  A    between atoms: C3_3  and  N1_4
REMARK    3  A    between atoms: C3_3  and  C25_39
REMARK       I    between atoms: N1_4  and  C4_6
REMARK    4  A    between atoms: C4_6  and  C5_8
REMARK    5  A    between atoms: C6_9  and  C7_10
REMARK    6  A    between atoms: C7_10  and  C8_11
REMARK    7  A    between atoms: C8_11  and  O3_13
REMARK       I    between atoms: N2_16  and  C11_17
REMARK    8  A    between atoms: C11_17  and  C12_19
REMARK    9  A    between atoms: C12_19  and  N3_21
REMARK       I    between atoms: N3_21  and  C14_23
REMARK       I    between atoms: C14_23  and  N4_25
REMARK   10  A    between atoms: N4_25  and  C15_27
REMARK   11  A    between atoms: C19_31  and  C20_32
REMARK   12  A    between atoms: C20_32  and  O6_34
REMARK       I    between atoms: C25_39  and  N5_41
ROOT
HETATM    1  C5  UNL     1     -19.460  18.289  -6.416  1.00  0.00     0.113 C
HETATM    2  C6  UNL     1     -18.770  18.685  -5.201  1.00  0.00    -0.043 C
HETATM    3  C10 UNL     1     -17.344  19.050  -5.507  1.00  0.00     0.161 C
HETATM    4  N2  UNL     1     -16.989  19.643  -6.738  1.00  0.00    -0.339 N
HETATM    5  C11 UNL     1     -15.787  20.385  -6.582  1.00  0.00     0.243 C
HETATM    6  O4  UNL     1     -15.353  21.035  -7.566  1.00  0.00    -0.271 OA
HETATM    7  C19 UNL     1     -17.460  19.706  -8.091  1.00  0.00     0.120 C
HETATM    8  C22 UNL     1     -18.885  19.824  -8.360  1.00  0.00     0.017 A
HETATM    9  C23 UNL     1     -19.770  18.695  -8.859  1.00  0.00     0.013 A
HETATM   10  C24 UNL     1     -19.848  19.287  -7.427  1.00  0.00     0.009 A
ENDROOT
BRANCH   1  11
HETATM   11  C4  UNL     1     -20.663  17.456  -6.138  1.00  0.00     0.227 C
HETATM   12  N1  UNL     1     -21.951  17.641  -6.647  1.00  0.00    -0.347 N
ATOM     13  H1  UNL     1     -22.116  18.401  -7.306  1.00  0.00     0.163 HD
HETATM   14  O1  UNL     1     -20.526  16.455  -5.340  1.00  0.00    -0.273 OA
BRANCH  12  15
HETATM   15  C3  UNL     1     -23.077  16.775  -6.263  1.00  0.00     0.176 C
BRANCH  15  16
HETATM   16  C2  UNL     1     -23.224  15.659  -7.276  1.00  0.00     0.030 C
HETATM   17  C1  UNL     1     -24.233  14.615  -6.880  1.00  0.00     0.007 C
ENDBRANCH  15  16
BRANCH  15  18
HETATM   18  C25 UNL     1     -24.288  17.586  -6.148  1.00  0.00     0.242 C
HETATM   19  O7  UNL     1     -24.915  17.842  -7.221  1.00  0.00    -0.271 OA
HETATM   20  N5  UNL     1     -24.813  18.109  -4.942  1.00  0.00    -0.350 N
HETATM   21  C26 UNL     1     -24.237  17.973  -3.629  1.00  0.00     0.126 C
HETATM   22  C30 UNL     1     -26.060  18.903  -4.983  1.00  0.00     0.126 C
HETATM   23  C27 UNL     1     -25.359  18.214  -2.605  1.00  0.00     0.020 C
HETATM   24  C28 UNL     1     -25.818  19.647  -2.657  1.00  0.00     0.003 C
HETATM   25  C29 UNL     1     -25.746  20.113  -4.097  1.00  0.00     0.020 C
ENDBRANCH  15  18
ENDBRANCH  12  15
ENDBRANCH   1  11
BRANCH   2  26
HETATM   26  C7  UNL     1     -19.388  19.534  -4.176  1.00  0.00     0.087 C
BRANCH  26  27
HETATM   27  C8  UNL     1     -19.598  19.120  -2.827  1.00  0.00     0.282 C
HETATM   28  O2  UNL     1     -18.777  19.098  -1.908  1.00  0.00    -0.260 OA
BRANCH  27  29
HETATM   29  O3  UNL     1     -20.891  18.673  -2.474  1.00  0.00    -0.323 OA
HETATM   30  C9  UNL     1     -21.044  17.527  -1.691  1.00  0.00     0.213 C
ENDBRANCH  27  29
ENDBRANCH  26  27
ENDBRANCH   2  26
BRANCH   7  31
HETATM   31  C20 UNL     1     -16.889  18.592  -8.971  1.00  0.00     0.137 C
HETATM   32  C21 UNL     1     -16.381  19.205 -10.275  1.00  0.00     0.041 C
BRANCH  31  33
HETATM   33  O6  UNL     1     -15.792  17.958  -8.384  1.00  0.00    -0.394 OA
ATOM     34  H6  UNL     1     -15.621  17.104  -8.764  1.00  0.00     0.210 HD
ENDBRANCH  31  33
ENDBRANCH   7  31
BRANCH   5  35
HETATM   35  C12 UNL     1     -14.943  20.495  -5.363  1.00  0.00     0.174 C
HETATM   36  C13 UNL     1     -14.218  19.242  -4.998  1.00  0.00     0.042 C
BRANCH  35  37
HETATM   37  N3  UNL     1     -13.989  21.591  -5.531  1.00  0.00    -0.330 N
HETATM   38  C14 UNL     1     -13.944  22.661  -4.598  1.00  0.00     0.317 C
HETATM   39  O5  UNL     1     -14.727  22.628  -3.644  1.00  0.00    -0.247 OA
HETATM   40  N4  UNL     1     -12.978  23.721  -4.832  1.00  0.00    -0.335 N
ATOM     41  H4  UNL     1     -12.366  23.661  -5.645  1.00  0.00     0.165 HD
ATOM     42  H3  UNL     1     -13.348  21.587  -6.325  1.00  0.00     0.165 HD
BRANCH  40  43
HETATM   43  C15 UNL     1     -12.860  24.849  -3.952  1.00  0.00     0.023 C
HETATM   44  C16 UNL     1     -14.211  25.546  -3.840  1.00  0.00     0.037 C
HETATM   45  C17 UNL     1     -12.334  24.471  -2.589  1.00  0.00     0.037 C
HETATM   46  C18 UNL     1     -11.894  25.837  -4.569  1.00  0.00     0.037 C
ENDBRANCH  40  43
ENDBRANCH  35  37
ENDBRANCH   5  35
TORSDOF 12
ENDMDL