MODEL 4
REMARK VINA RESULT: -8.947344108      2.241      8.683
REMARK  14 active torsions:
REMARK  status: ('A' for Active; 'I' for Inactive)
REMARK    1  A    between atoms: C2_2  and  C3_3
REMARK    2  A    between atoms: C3_3  and  C6_6
REMARK    3  A    between atoms: C6_6  and  C7_7
REMARK    4  A    between atoms: C7_7  and  N1_8
REMARK    5  A    between atoms: C7_7  and  C27_40
REMARK       I    between atoms: N1_8  and  C8_10
REMARK    6  A    between atoms: C8_10  and  C9_12
REMARK    7  A    between atoms: N2_19  and  C15_20
REMARK    8  A    between atoms: C15_20  and  O3_21
REMARK    9  A    between atoms: C15_20  and  C16_23
REMARK   10  A    between atoms: C16_23  and  N3_24
REMARK       I    between atoms: N3_24  and  C17_26
REMARK   11  A    between atoms: C17_26  and  C18_28
REMARK   12  A    between atoms: C18_28  and  N4_30
REMARK   13  A    between atoms: C27_40  and  O5_41
REMARK   14  A    between atoms: C27_40  and  N5_43
ROOT
HETATM    1  C9  UNL     1     -18.864  19.719  -4.631  1.00  0.00     0.210 C
HETATM    2  C10 UNL     1     -19.527  20.079  -3.355  1.00  0.00     0.183 A
HETATM    3  O2  UNL     1     -20.530  19.428  -2.719  1.00  0.00    -0.373 OA
HETATM    4  C11 UNL     1     -19.182  19.407  -2.167  1.00  0.00     0.155 A
HETATM    5  C12 UNL     1     -18.543  18.079  -2.317  1.00  0.00     0.059 C
HETATM    6  C13 UNL     1     -18.838  17.464  -3.678  1.00  0.00     0.085 C
HETATM    7  C14 UNL     1     -20.322  17.203  -3.833  1.00  0.00     0.032 C
HETATM    8  N2  UNL     1     -18.428  18.337  -4.754  1.00  0.00    -0.343 N
ENDROOT
BRANCH   1   9
HETATM    9  C8  UNL     1     -17.715  20.702  -4.704  1.00  0.00     0.247 C
HETATM   10  N1  UNL     1     -16.457  20.350  -4.209  1.00  0.00    -0.322 N
ATOM     11  H1  UNL     1     -16.338  19.424  -3.798  1.00  0.00     0.169 HD
HETATM   12  O1  UNL     1     -17.950  21.812  -5.218  1.00  0.00    -0.271 OA
BRANCH  10  13
HETATM   13  C7  UNL     1     -15.249  21.290  -4.255  1.00  0.00     0.083 C
BRANCH  13  14
HETATM   14  C6  UNL     1     -15.181  21.989  -3.011  1.00  0.00     0.016 C
BRANCH  14  15
HETATM   15  C3  UNL     1     -15.107  23.417  -2.743  1.00  0.00    -0.028 C
HETATM   16  C4  UNL     1     -15.933  24.093  -1.741  1.00  0.00     0.019 C
HETATM   17  C5  UNL     1     -15.655  24.058  -4.113  1.00  0.00     0.019 C
BRANCH  15  18
HETATM   18  C2  UNL     1     -13.694  23.982  -2.740  1.00  0.00     0.008 C
HETATM   19  C1  UNL     1     -13.651  25.113  -3.742  1.00  0.00     0.006 C
ENDBRANCH  15  18
ENDBRANCH  14  15
ENDBRANCH  13  14
BRANCH  13  20
HETATM   20  C27 UNL     1     -14.289  20.631  -5.090  1.00  0.00     0.165 C
BRANCH  20  21
HETATM   21  O5  UNL     1     -14.270  19.271  -4.768  1.00  0.00    -0.344 OA
ATOM     22  H5  UNL     1     -13.498  19.091  -4.245  1.00  0.00     0.219 HD
ENDBRANCH  20  21
BRANCH  20  23
HETATM   23  N5  UNL     1     -13.370  20.817  -6.090  1.00  0.00    -0.360 N
HETATM   24  C28 UNL     1     -12.742  22.179  -6.210  1.00  0.00     0.125 C
HETATM   25  C29 UNL     1     -13.465  22.840  -7.355  1.00  0.00     0.020 C
HETATM   26  C30 UNL     1     -13.340  22.000  -8.581  1.00  0.00     0.003 C
HETATM   27  C31 UNL     1     -12.418  20.832  -8.339  1.00  0.00     0.020 C
HETATM   28  C32 UNL     1     -12.896  19.975  -7.154  1.00  0.00     0.125 C
ENDBRANCH  20  23
ENDBRANCH  13  20
ENDBRANCH  10  13
ENDBRANCH   1   9
BRANCH   8  29
HETATM   29  C15 UNL     1     -17.686  17.853  -5.811  1.00  0.00     0.144 C
BRANCH  29  30
HETATM   30  O3  UNL     1     -16.585  17.232  -5.400  1.00  0.00    -0.347 OA
ATOM     31  H3  UNL     1     -16.042  17.793  -4.860  1.00  0.00     0.219 HD
ENDBRANCH  29  30
BRANCH  29  32
HETATM   32  C16 UNL     1     -17.772  17.819  -7.244  1.00  0.00     0.102 C
HETATM   33  C21 UNL     1     -16.469  17.224  -7.854  1.00  0.00     0.046 C
HETATM   34  C22 UNL     1     -16.104  18.615  -8.029  1.00  0.00     0.004 A
HETATM   35  C23 UNL     1     -17.583  18.873  -8.208  1.00  0.00     0.035 A
HETATM   36  C24 UNL     1     -16.535  19.624  -8.899  1.00  0.00    -0.037 A
HETATM   37  C25 UNL     1     -16.516  21.109  -8.743  1.00  0.00     0.015 C
HETATM   38  C26 UNL     1     -16.162  19.313 -10.387  1.00  0.00     0.015 C
BRANCH  32  39
HETATM   39  N3  UNL     1     -18.766  16.761  -7.595  1.00  0.00    -0.342 N
HETATM   40  C17 UNL     1     -20.142  16.815  -7.569  1.00  0.00     0.249 C
HETATM   41  O4  UNL     1     -20.798  17.815  -7.235  1.00  0.00    -0.271 OA
ATOM     42  H3  UNL     1     -18.369  15.872  -7.896  1.00  0.00     0.163 HD
BRANCH  40  43
HETATM   43  C18 UNL     1     -20.997  15.617  -7.963  1.00  0.00     0.272 C
HETATM   44  C19 UNL     1     -20.653  15.198  -9.355  1.00  0.00     0.050 C
BRANCH  43  45
HETATM   45  N4  UNL     1     -22.391  15.955  -7.858  1.00  0.00    -0.067 N
HETATM   46  C20 UNL     1     -23.055  15.174  -6.869  1.00  0.00     0.267 C
ATOM     47  H42 UNL     1     -22.519  16.953  -7.688  1.00  0.00     0.277 HD
ATOM     48  H41 UNL     1     -22.858  15.885  -8.762  1.00  0.00     0.277 HD
ENDBRANCH  43  45
ENDBRANCH  40  43
ENDBRANCH  32  39
ENDBRANCH  29  32
ENDBRANCH   8  29
TORSDOF 14
ENDMDL