MODEL 5
REMARK VINA RESULT: -8.029590372      2.439      8.293
REMARK  13 active torsions:
REMARK  status: ('A' for Active; 'I' for Inactive)
REMARK    1  A    between atoms: C2_2  and  C3_3
REMARK    2  A    between atoms: C4_4  and  C5_5
REMARK    3  A    between atoms: C5_5  and  N1_6
REMARK       I    between atoms: N1_6  and  C6_7
REMARK    4  A    between atoms: C6_7  and  C7_9
REMARK    5  A    between atoms: C7_9  and  N2_11
REMARK    6  A    between atoms: N2_11  and  C9_13
REMARK    7  A    between atoms: C10_16  and  O2_17
REMARK    8  A    between atoms: C10_16  and  N4_19
REMARK       I    between atoms: N5_22  and  C13_23
REMARK    9  A    between atoms: C18_29  and  C19_30
REMARK   10  A    between atoms: C19_30  and  N6_31
REMARK   11  A    between atoms: C19_30  and  C27_42
REMARK       I    between atoms: N6_31  and  C20_33
REMARK   12  A    between atoms: C20_33  and  C21_35
REMARK   13  A    between atoms: C21_35  and  C22_37
ROOT
HETATM    1  C5  UNL     1     -13.018  21.844  -7.196  1.00  0.00     0.143 C
HETATM    2  C10 UNL     1     -13.150  22.889  -6.223  1.00  0.00     0.176 C
ENDROOT
BRANCH   1   3
HETATM    3  C4  UNL     1     -13.684  20.553  -7.130  1.00  0.00     0.059 C
HETATM    4  C3  UNL     1     -14.836  20.198  -7.977  1.00  0.00     0.002 C
HETATM    5  C18 UNL     1     -15.489  19.585  -6.779  1.00  0.00     0.014 C
HETATM    6  C17 UNL     1     -14.618  20.446  -5.906  1.00  0.00     0.019 C
BRANCH   4   7
HETATM    7  C2  UNL     1     -15.520  21.172  -8.821  1.00  0.00     0.001 C
HETATM    8  C1  UNL     1     -15.339  21.214 -10.273  1.00  0.00     0.005 C
ENDBRANCH   4   7
BRANCH   5   9
HETATM    9  C19 UNL     1     -16.944  19.625  -6.578  1.00  0.00     0.092 C
BRANCH   9  10
HETATM   10  N6  UNL     1     -17.587  18.384  -7.048  1.00  0.00    -0.349 N
HETATM   11  C20 UNL     1     -18.208  18.273  -8.296  1.00  0.00     0.288 C
HETATM   12  O4  UNL     1     -18.218  19.279  -9.053  1.00  0.00    -0.264 OA
ATOM     13  H6  UNL     1     -17.578  17.569  -6.434  1.00  0.00     0.163 HD
BRANCH  11  14
HETATM   14  C21 UNL     1     -18.824  17.009  -8.680  1.00  0.00     0.224 C
HETATM   15  O5  UNL     1     -18.192  16.138  -9.316  1.00  0.00    -0.286 OA
BRANCH  14  16
HETATM   16  C22 UNL     1     -20.224  16.766  -8.302  1.00  0.00     0.026 C
HETATM   17  C23 UNL     1     -21.034  18.024  -8.321  1.00  0.00     0.024 C
HETATM   18  C24 UNL     1     -20.307  16.003  -6.995  1.00  0.00     0.017 C
HETATM   19  C25 UNL     1     -20.603  14.753  -7.793  1.00  0.00     0.002 C
HETATM   20  C26 UNL     1     -20.892  15.605  -8.994  1.00  0.00     0.017 C
ENDBRANCH  14  16
ENDBRANCH  11  14
ENDBRANCH   9  10
BRANCH   9  21
HETATM   21  C27 UNL     1     -17.265  19.612  -5.067  1.00  0.00     0.001 C
HETATM   22  C28 UNL     1     -17.586  18.172  -4.641  1.00  0.00     0.011 C
HETATM   23  C29 UNL     1     -18.493  20.398  -4.728  1.00  0.00     0.011 C
ENDBRANCH   9  21
ENDBRANCH   5   9
ENDBRANCH   1   3
BRANCH   1  24
HETATM   24  N1  UNL     1     -12.239  22.010  -8.138  1.00  0.00    -0.369 NA
HETATM   25  C6  UNL     1     -11.304  22.245  -9.003  1.00  0.00     0.314 C
HETATM   26  O1  UNL     1     -10.311  21.474  -9.329  1.00  0.00    -0.255 OA
BRANCH  25  27
HETATM   27  C7  UNL     1     -11.279  23.549  -9.781  1.00  0.00     0.186 C
HETATM   28  C8  UNL     1     -12.241  23.366 -10.940  1.00  0.00     0.043 C
BRANCH  27  29
HETATM   29  N2  UNL     1     -11.596  24.684  -8.979  1.00  0.00    -0.355 N
ATOM     30  H2  UNL     1     -12.414  24.591  -8.376  1.00  0.00     0.162 HD
BRANCH  29  31
HETATM   31  C9  UNL     1     -10.922  25.910  -8.915  1.00  0.00     0.181 C
HETATM   32  N3  UNL     1     -10.921  26.651  -7.707  1.00  0.00    -0.070 NA
HETATM   33  S1  UNL     1     -10.098  26.556 -10.172  1.00  0.00    -0.044 SA
ENDBRANCH  29  31
ENDBRANCH  27  29
ENDBRANCH  25  27
ENDBRANCH   1  24
BRANCH   2  34
HETATM   34  O2  UNL     1     -12.343  23.921  -6.457  1.00  0.00    -0.344 OA
ATOM     35  H2  UNL     1     -12.089  23.993  -7.369  1.00  0.00     0.219 HD
ENDBRANCH   2  34
BRANCH   2  36
HETATM   36  N4  UNL     1     -13.927  23.085  -5.085  1.00  0.00    -0.356 N
HETATM   37  C11 UNL     1     -13.298  22.675  -3.798  1.00  0.00     0.145 C
HETATM   38  C12 UNL     1     -13.405  23.873  -2.882  1.00  0.00     0.145 C
HETATM   39  N5  UNL     1     -14.845  24.020  -2.643  1.00  0.00    -0.349 N
HETATM   40  C13 UNL     1     -15.346  23.866  -1.327  1.00  0.00     0.215 C
HETATM   41  C15 UNL     1     -15.648  24.312  -3.779  1.00  0.00     0.145 C
HETATM   42  C14 UNL     1     -16.778  23.990  -1.004  1.00  0.00     0.117 C
HETATM   43  O3  UNL     1     -14.534  23.612  -0.396  1.00  0.00    -0.274 OA
HETATM   44  C16 UNL     1     -15.222  23.660  -5.074  1.00  0.00     0.145 C
ENDBRANCH   2  36
TORSDOF 13
ENDMDL