MODEL 5
REMARK VINA RESULT: -8.308873668      2.292      9.520
REMARK  12 active torsions:
REMARK  status: ('A' for Active; 'I' for Inactive)
REMARK    1  A    between atoms: C2_2  and  N1_4
REMARK    2  A    between atoms: N1_4  and  C3_6
REMARK    3  A    between atoms: C3_6  and  C4_7
REMARK    4  A    between atoms: C3_6  and  C8_11
REMARK    5  A    between atoms: C4_7  and  C5_8
REMARK       I    between atoms: C8_11  and  N2_13
REMARK       I    between atoms: N3_17  and  C12_18
REMARK    6  A    between atoms: C12_18  and  C13_20
REMARK    7  A    between atoms: C13_20  and  N4_21
REMARK    8  A    between atoms: C13_20  and  C21_32
REMARK       I    between atoms: N4_21  and  C14_23
REMARK    9  A    between atoms: C14_23  and  C15_25
REMARK   10  A    between atoms: C15_25  and  N5_26
REMARK   11  A    between atoms: C26_37  and  C27_38
REMARK       I    between atoms: C27_38  and  N6_40
REMARK   12  A    between atoms: N6_40  and  C28_42
ROOT
HETATM    1  C8  UNL     1     -18.059  18.486  -6.829  1.00  0.00     0.243 C
HETATM    2  O1  UNL     1     -17.663  17.295  -6.551  1.00  0.00    -0.271 OA
HETATM    3  N2  UNL     1     -17.977  19.423  -5.781  1.00  0.00    -0.333 N
HETATM    4  C9  UNL     1     -18.362  20.800  -5.892  1.00  0.00     0.152 C
HETATM    5  C10 UNL     1     -17.826  21.649  -4.782  1.00  0.00     0.101 C
HETATM    6  C11 UNL     1     -18.876  21.671  -3.678  1.00  0.00     0.034 C
HETATM    7  N3  UNL     1     -16.549  21.164  -4.359  1.00  0.00    -0.342 N
HETATM    8  C12 UNL     1     -15.328  21.868  -4.426  1.00  0.00     0.243 C
HETATM    9  O2  UNL     1     -14.277  21.230  -4.027  1.00  0.00    -0.271 OA
HETATM   10  C25 UNL     1     -16.528  19.809  -3.797  1.00  0.00     0.161 C
HETATM   11  C26 UNL     1     -17.476  18.921  -4.514  1.00  0.00     0.197 C
ENDROOT
BRANCH   8  12
HETATM   12  C13 UNL     1     -15.079  23.227  -4.887  1.00  0.00     0.184 C
BRANCH  12  13
HETATM   13  N4  UNL     1     -13.836  23.247  -5.658  1.00  0.00    -0.343 N
HETATM   14  C14 UNL     1     -13.692  22.739  -6.960  1.00  0.00     0.257 C
HETATM   15  O3  UNL     1     -14.669  22.217  -7.535  1.00  0.00    -0.267 OA
ATOM     16  H4  UNL     1     -13.014  23.660  -5.218  1.00  0.00     0.163 HD
BRANCH  14  17
HETATM   17  C15 UNL     1     -12.405  22.805  -7.685  1.00  0.00     0.160 C
BRANCH  17  18
HETATM   18  N5  UNL     1     -12.497  22.610  -9.072  1.00  0.00    -0.385 N
HETATM   19  C16 UNL     1     -11.329  22.484  -9.845  1.00  0.00     0.122 C
HETATM   20  C17 UNL     1     -10.799  23.891 -10.163  1.00  0.00     0.020 C
HETATM   21  C18 UNL     1     -11.870  24.722 -10.794  1.00  0.00     0.003 C
HETATM   22  C19 UNL     1     -13.200  24.635 -10.074  1.00  0.00     0.020 C
HETATM   23  C20 UNL     1     -13.567  23.192  -9.786  1.00  0.00     0.122 C
ENDBRANCH  17  18
ENDBRANCH  14  17
ENDBRANCH  12  13
BRANCH  12  24
HETATM   24  C21 UNL     1     -14.857  24.094  -3.632  1.00  0.00    -0.022 C
HETATM   25  C22 UNL     1     -15.035  25.556  -4.017  1.00  0.00     0.017 C
HETATM   26  C23 UNL     1     -15.902  23.813  -2.590  1.00  0.00     0.017 C
HETATM   27  C24 UNL     1     -13.518  23.843  -3.005  1.00  0.00     0.017 C
ENDBRANCH  12  24
ENDBRANCH   8  12
BRANCH  11  28
HETATM   28  C27 UNL     1     -18.582  18.369  -3.722  1.00  0.00     0.242 C
HETATM   29  O4  UNL     1     -18.419  18.223  -2.483  1.00  0.00    -0.271 OA
HETATM   30  N6  UNL     1     -19.812  17.996  -4.293  1.00  0.00    -0.355 N
ATOM     31  H6  UNL     1     -19.955  18.105  -5.297  1.00  0.00     0.162 HD
BRANCH  30  32
HETATM   32  C28 UNL     1     -20.878  17.461  -3.474  1.00  0.00     0.084 A
HETATM   33  C29 UNL     1     -22.288  17.796  -3.851  1.00  0.00     0.027 A
HETATM   34  C30 UNL     1     -21.629  18.428  -2.639  1.00  0.00     0.027 A
ENDBRANCH  30  32
ENDBRANCH  11  28
BRANCH   1  35
HETATM   35  C3  UNL     1     -18.538  18.672  -8.208  1.00  0.00     0.175 C
BRANCH  35  36
HETATM   36  N1  UNL     1     -17.636  18.011  -9.146  1.00  0.00    -0.371 N
ATOM     37  H1  UNL     1     -17.470  17.011  -9.029  1.00  0.00     0.161 HD
BRANCH  36  38
HETATM   38  C2  UNL     1     -16.994  18.661 -10.185  1.00  0.00     0.070 C
HETATM   39  C1  UNL     1     -17.257  18.235 -11.604  1.00  0.00     0.081 C
HETATM   40  S1  UNL     1     -15.925  19.864  -9.942  1.00  0.00    -0.066 SA
ENDBRANCH  36  38
ENDBRANCH  35  36
BRANCH  35  41
HETATM   41  C4  UNL     1     -19.958  18.371  -8.466  1.00  0.00     0.038 C
BRANCH  41  42
HETATM   42  C5  UNL     1     -20.516  17.091  -7.961  1.00  0.00    -0.020 C
HETATM   43  C6  UNL     1     -21.974  17.320  -7.522  1.00  0.00     0.009 C
HETATM   44  C7  UNL     1     -20.537  15.931  -8.878  1.00  0.00     0.009 C
ENDBRANCH  41  42
ENDBRANCH  35  41
ENDBRANCH   1  35
TORSDOF 12
ENDMDL