MODEL 4
REMARK VINA RESULT: -8.613331371      3.495     11.820
REMARK  13 active torsions:
REMARK  status: ('A' for Active; 'I' for Inactive)
REMARK    1  A    between atoms: C2_2  and  C3_3
REMARK    2  A    between atoms: C3_3  and  C5_5
REMARK       I    between atoms: C5_5  and  N1_7
REMARK       I    between atoms: N2_10  and  C8_11
REMARK    3  A    between atoms: C8_11  and  C9_13
REMARK    4  A    between atoms: C9_13  and  C10_14
REMARK    5  A    between atoms: C9_13  and  N3_18
REMARK    6  A    between atoms: C10_14  and  C11_15
REMARK       I    between atoms: N3_18  and  C14_20
REMARK    7  A    between atoms: C14_20  and  C15_22
REMARK    8  A    between atoms: C15_22  and  N4_23
REMARK    9  A    between atoms: C15_22  and  C24_38
REMARK       I    between atoms: N4_23  and  C16_25
REMARK   10  A    between atoms: C16_25  and  C17_27
REMARK   11  A    between atoms: C17_27  and  N5_29
REMARK       I    between atoms: N5_29  and  C19_31
REMARK   12  A    between atoms: C19_31  and  O6_33
REMARK   13  A    between atoms: O6_33  and  C20_34
ROOT
HETATM    1  N3  UNL     1     -18.742  18.852  -5.817  1.00  0.00    -0.343 N
ATOM      2  H3  UNL     1     -18.399  17.927  -6.073  1.00  0.00     0.163 HD
HETATM    3  C14 UNL     1     -19.756  18.990  -4.838  1.00  0.00     0.265 C
HETATM    4  O3  UNL     1     -20.091  20.215  -4.589  1.00  0.00    -0.266 OA
ENDROOT
BRANCH   1   5
HETATM    5  C9  UNL     1     -18.178  20.064  -6.470  1.00  0.00     0.177 C
BRANCH   5   6
HETATM    6  C8  UNL     1     -16.683  19.817  -6.456  1.00  0.00     0.243 C
HETATM    7  N2  UNL     1     -15.803  20.710  -5.746  1.00  0.00    -0.336 N
HETATM    8  C7  UNL     1     -14.386  20.533  -5.745  1.00  0.00     0.147 C
HETATM    9  C28 UNL     1     -16.400  21.769  -4.983  1.00  0.00     0.176 C
HETATM   10  C6  UNL     1     -13.558  21.768  -5.761  1.00  0.00     0.155 C
HETATM   11  N1  UNL     1     -14.127  22.779  -4.868  1.00  0.00    -0.285 N
HETATM   12  C5  UNL     1     -13.265  23.485  -4.004  1.00  0.00     0.230 C
HETATM   13  C30 UNL     1     -15.531  22.984  -4.909  1.00  0.00     0.249 C
HETATM   14  O1  UNL     1     -12.026  23.235  -4.023  1.00  0.00    -0.273 OA
HETATM   15  O7  UNL     1     -16.003  24.141  -4.884  1.00  0.00    -0.271 OA
HETATM   16  C29 UNL     1     -16.582  21.315  -3.514  1.00  0.00     0.042 C
HETATM   17  O2  UNL     1     -16.152  18.846  -7.040  1.00  0.00    -0.271 OA
BRANCH  12  18
HETATM   18  C3  UNL     1     -13.734  24.507  -3.072  1.00  0.00     0.074 C
HETATM   19  C4  UNL     1     -12.639  25.470  -2.665  1.00  0.00     0.020 C
BRANCH  18  20
HETATM   20  C2  UNL     1     -14.321  23.848  -1.824  1.00  0.00     0.009 C
HETATM   21  C1  UNL     1     -15.712  24.285  -1.518  1.00  0.00     0.006 C
ENDBRANCH  18  20
ENDBRANCH  12  18
ENDBRANCH   5   6
BRANCH   5  22
HETATM   22  C10 UNL     1     -18.611  20.104  -7.887  1.00  0.00     0.038 C
BRANCH  22  23
HETATM   23  C11 UNL     1     -19.147  18.855  -8.470  1.00  0.00    -0.020 C
HETATM   24  C12 UNL     1     -18.509  18.331  -9.703  1.00  0.00     0.009 C
HETATM   25  C13 UNL     1     -20.631  19.077  -8.804  1.00  0.00     0.009 C
ENDBRANCH  22  23
ENDBRANCH   5  22
ENDBRANCH   1   5
BRANCH   3  26
HETATM   26  C15 UNL     1     -20.427  17.907  -4.116  1.00  0.00     0.087 C
BRANCH  26  27
HETATM   27  N4  UNL     1     -21.673  17.517  -4.712  1.00  0.00    -0.324 N
HETATM   28  C16 UNL     1     -21.801  16.785  -5.899  1.00  0.00     0.244 C
HETATM   29  O4  UNL     1     -20.813  16.411  -6.544  1.00  0.00    -0.271 OA
ATOM     30  H4  UNL     1     -22.531  17.795  -4.235  1.00  0.00     0.169 HD
BRANCH  28  31
HETATM   31  C17 UNL     1     -23.160  16.443  -6.402  1.00  0.00     0.175 C
HETATM   32  C18 UNL     1     -23.132  14.999  -6.864  1.00  0.00     0.042 C
BRANCH  31  33
HETATM   33  N5  UNL     1     -24.213  16.700  -5.477  1.00  0.00    -0.324 N
HETATM   34  C19 UNL     1     -25.249  17.623  -5.774  1.00  0.00     0.362 C
HETATM   35  O5  UNL     1     -25.264  18.260  -6.884  1.00  0.00    -0.238 OA
ATOM     36  H5  UNL     1     -24.221  16.211  -4.583  1.00  0.00     0.165 HD
BRANCH  34  37
HETATM   37  O6  UNL     1     -26.302  17.915  -4.935  1.00  0.00    -0.294 OA
BRANCH  37  38
HETATM   38  C20 UNL     1     -26.216  18.848  -3.915  1.00  0.00     0.061 C
HETATM   39  C21 UNL     1     -27.505  19.641  -3.791  1.00  0.00     0.046 C
HETATM   40  C22 UNL     1     -26.126  18.036  -2.608  1.00  0.00     0.046 C
HETATM   41  C23 UNL     1     -25.070  19.781  -3.945  1.00  0.00     0.046 C
ENDBRANCH  37  38
ENDBRANCH  34  37
ENDBRANCH  31  33
ENDBRANCH  28  31
ENDBRANCH  26  27
BRANCH  26  42
HETATM   42  C24 UNL     1     -20.476  17.990  -2.632  1.00  0.00    -0.003 C
HETATM   43  C25 UNL     1     -21.805  18.376  -2.050  1.00  0.00     0.021 C
HETATM   44  C26 UNL     1     -20.287  16.514  -2.156  1.00  0.00     0.021 C
HETATM   45  C27 UNL     1     -19.312  18.726  -2.064  1.00  0.00     0.021 C
ENDBRANCH  26  42
ENDBRANCH   3  26
TORSDOF 13
ENDMDL