MODEL 3
REMARK VINA RESULT: -8.548797382      3.233      7.529
REMARK  10 active torsions:
REMARK  status: ('A' for Active; 'I' for Inactive)
REMARK    1  A    between atoms: C2_2  and  N1_3
REMARK    2  A    between atoms: C5_6  and  N2_7
REMARK       I    between atoms: N2_7  and  C6_9
REMARK    3  A    between atoms: C6_9  and  C7_11
REMARK    4  A    between atoms: C7_11  and  N3_12
REMARK       I    between atoms: N3_12  and  C8_13
REMARK    5  A    between atoms: N3_12  and  C13_21
REMARK       I    between atoms: C8_13  and  N4_15
REMARK    6  A    between atoms: N4_15  and  C9_17
REMARK    7  A    between atoms: C19_27  and  N5_28
REMARK       I    between atoms: N5_28  and  C20_30
REMARK    8  A    between atoms: C20_30  and  C21_32
REMARK    9  A    between atoms: C21_32  and  O4_34
REMARK   10  A    between atoms: C21_32  and  C24_36
ROOT
HETATM    1  C13 UNL     1     -14.982  21.367  -5.862  1.00  0.00     0.127 C
HETATM    2  C14 UNL     1     -13.528  21.569  -6.314  1.00  0.00     0.060 C
HETATM    3  C15 UNL     1     -13.268  20.313  -7.090  1.00  0.00     0.124 C
HETATM    4  C16 UNL     1     -13.196  20.693  -8.557  1.00  0.00     0.038 C
HETATM    5  C17 UNL     1     -14.529  21.036  -9.121  1.00  0.00     0.009 C
HETATM    6  C18 UNL     1     -14.560  22.490  -9.517  1.00  0.00     0.012 C
HETATM    7  C19 UNL     1     -15.706  20.647  -8.246  1.00  0.00     0.119 C
HETATM    8  C30 UNL     1     -15.450  20.408  -6.835  1.00  0.00     0.168 C
HETATM    9  O5  UNL     1     -14.323  19.479  -6.821  1.00  0.00    -0.376 OA
ENDROOT
BRANCH   1  10
HETATM   10  N3  UNL     1     -15.550  22.521  -5.424  1.00  0.00    -0.297 N
HETATM   11  C8  UNL     1     -15.027  22.960  -4.198  1.00  0.00     0.323 C
HETATM   12  O2  UNL     1     -13.833  22.609  -3.902  1.00  0.00    -0.247 OA
HETATM   13  N4  UNL     1     -15.729  23.757  -3.283  1.00  0.00    -0.335 N
ATOM     14  H4  UNL     1     -16.680  24.048  -3.511  1.00  0.00     0.165 HD
BRANCH  10  15
HETATM   15  C7  UNL     1     -16.869  22.938  -5.624  1.00  0.00     0.170 C
BRANCH  15  16
HETATM   16  C6  UNL     1     -17.835  22.324  -4.651  1.00  0.00     0.257 C
HETATM   17  N2  UNL     1     -18.000  20.927  -4.569  1.00  0.00    -0.352 N
ATOM     18  H2  UNL     1     -17.452  20.326  -5.184  1.00  0.00     0.163 HD
HETATM   19  O1  UNL     1     -18.504  23.071  -3.900  1.00  0.00    -0.267 OA
BRANCH  17  20
HETATM   20  C5  UNL     1     -18.928  20.320  -3.635  1.00  0.00     0.088 C
HETATM   21  C4  UNL     1     -20.088  19.783  -4.431  1.00  0.00     0.055 C
HETATM   22  C3  UNL     1     -20.967  18.858  -3.629  1.00  0.00     0.274 C
HETATM   23  N1  UNL     1     -20.423  18.593  -2.311  1.00  0.00     0.088 N
HETATM   24  C32 UNL     1     -19.088  18.100  -2.482  1.00  0.00     0.274 C
HETATM   25  C31 UNL     1     -18.204  19.271  -2.855  1.00  0.00     0.055 C
BRANCH  23  26
HETATM   26  C2  UNL     1     -21.292  17.610  -1.669  1.00  0.00     0.268 C
HETATM   27  C1  UNL     1     -22.664  18.248  -1.590  1.00  0.00     0.037 C
ENDBRANCH  23  26
ENDBRANCH  17  20
ENDBRANCH  15  16
ENDBRANCH  10  15
BRANCH  13  28
HETATM   28  C9  UNL     1     -15.146  24.186  -2.015  1.00  0.00     0.023 C
HETATM   29  C10 UNL     1     -16.226  24.901  -1.234  1.00  0.00     0.037 C
HETATM   30  C11 UNL     1     -14.041  25.157  -2.249  1.00  0.00     0.037 C
HETATM   31  C12 UNL     1     -14.665  23.035  -1.183  1.00  0.00     0.037 C
ENDBRANCH  13  28
ENDBRANCH   1  10
BRANCH   7  32
HETATM   32  N5  UNL     1     -16.147  19.303  -8.772  1.00  0.00    -0.351 N
HETATM   33  C20 UNL     1     -17.474  18.936  -8.877  1.00  0.00     0.253 C
HETATM   34  O3  UNL     1     -18.333  19.826  -8.502  1.00  0.00    -0.270 OA
ATOM     35  H5  UNL     1     -15.433  18.636  -9.064  1.00  0.00     0.163 HD
BRANCH  33  36
HETATM   36  C21 UNL     1     -18.075  17.685  -9.353  1.00  0.00     0.140 C
HETATM   37  C22 UNL     1     -17.094  16.521  -9.274  1.00  0.00     0.057 C
BRANCH  36  38
HETATM   38  O4  UNL     1     -18.526  17.813 -10.645  1.00  0.00    -0.375 OA
HETATM   39  C23 UNL     1     -17.617  18.212 -11.582  1.00  0.00     0.203 C
ENDBRANCH  36  38
BRANCH  36  40
HETATM   40  C24 UNL     1     -19.273  17.301  -8.466  1.00  0.00     0.029 C
HETATM   41  C25 UNL     1     -20.092  16.228  -9.109  1.00  0.00     0.008 C
HETATM   42  C26 UNL     1     -20.479  15.143  -8.126  1.00  0.00     0.000 C
HETATM   43  C27 UNL     1     -20.955  15.707  -6.818  1.00  0.00     0.000 C
HETATM   44  C28 UNL     1     -19.925  16.593  -6.160  1.00  0.00     0.000 C
HETATM   45  C29 UNL     1     -18.787  16.932  -7.080  1.00  0.00     0.008 C
ENDBRANCH  36  40
ENDBRANCH  33  36
ENDBRANCH   7  32
TORSDOF 10
ENDMDL