MODEL 2
REMARK VINA RESULT: -5.199568860      1.787      3.670
REMARK  6 active torsions:
REMARK  status: ('A' for Active; 'I' for Inactive)
REMARK    1  A    between atoms: C4_4  and  C5_5
REMARK    2  A    between atoms: C6_6  and  C7_7
REMARK    3  A    between atoms: C7_7  and  N1_8
REMARK    4  A    between atoms: N1_8  and  C8_11
REMARK    5  A    between atoms: C8_11  and  C9_12
REMARK    6  A    between atoms: C9_12  and  N2_13
ROOT
HETATM    1  C1  UNL     1     -26.368 -20.496 -17.704  1.00  0.00     0.027 C
HETATM    2  C2  UNL     1     -25.677 -19.835 -18.443  1.00  0.00    -0.026 C
HETATM    3  C3  UNL     1     -24.863 -19.075 -19.328  1.00  0.00    -0.011 C
HETATM    4  C4  UNL     1     -24.183 -18.438 -20.095  1.00  0.00    -0.065 C
ENDROOT
BRANCH   4   5
HETATM    5  C5  UNL     1     -23.383 -17.686 -21.024  1.00  0.00     0.063 C
HETATM    6  C6  UNL     1     -22.322 -17.061 -20.580  1.00  0.00     0.009 C
BRANCH   6   7
HETATM    7  C7  UNL     1     -21.955 -17.125 -19.156  1.00  0.00     0.260 C
BRANCH   7   8
HETATM    8  N1  UNL     1     -20.644 -17.657 -18.985  1.00  0.00    -0.070 N
ATOM      9  H12 UNL     1     -20.460 -18.413 -19.645  1.00  0.00     0.277 HD
ATOM     10  H11 UNL     1     -19.931 -16.998 -19.295  1.00  0.00     0.277 HD
BRANCH   8  11
HETATM   11  C8  UNL     1     -20.417 -18.075 -17.638  1.00  0.00     0.253 C
BRANCH  11  12
HETATM   12  C9  UNL     1     -19.479 -19.265 -17.542  1.00  0.00     0.166 C
BRANCH  12  13
HETATM   13  N2  UNL     1     -18.591 -19.174 -18.661  1.00  0.00    -0.341 N
HETATM   14  N3  UNL     1     -17.968 -20.197 -18.985  1.00  0.00    -0.349 N
ATOM     15  H32 UNL     1     -18.095 -21.064 -18.463  1.00  0.00     0.176 HD
ATOM     16  H31 UNL     1     -17.334 -20.132 -19.783  1.00  0.00     0.176 HD
ATOM     17  H2  UNL     1     -18.476 -18.300 -19.174  1.00  0.00     0.179 HD
ENDBRANCH  12  13
ENDBRANCH  11  12
ENDBRANCH   8  11
ENDBRANCH   7   8
ENDBRANCH   6   7
ENDBRANCH   4   5
TORSDOF 6
ENDMDL