MODEL 2
REMARK VINA RESULT: -4.081479648      3.793      5.509
REMARK  6 active torsions:
REMARK  status: ('A' for Active; 'I' for Inactive)
REMARK    1  A    between atoms: C2_2  and  C3_3
REMARK    2  A    between atoms: C3_3  and  N1_4
REMARK    3  A    between atoms: C6_7  and  C7_8
REMARK    4  A    between atoms: C7_8  and  N2_9
REMARK    5  A    between atoms: C8_11  and  N3_12
REMARK    6  A    between atoms: N3_12  and  N4_14
ROOT
HETATM    1  N2  UNL     1     -24.724 -18.505 -19.363  1.00  0.00    -0.383 N
ATOM      2  H2  UNL     1     -25.249 -18.217 -20.188  1.00  0.00     0.160 HD
HETATM    3  C8  UNL     1     -23.500 -18.120 -19.236  1.00  0.00     0.194 C
ENDROOT
BRANCH   1   4
HETATM    4  C7  UNL     1     -25.374 -19.333 -18.367  1.00  0.00     0.155 C
BRANCH   4   5
HETATM    5  C6  UNL     1     -24.378 -19.909 -17.386  1.00  0.00     0.234 A
HETATM    6  N1  UNL     1     -24.384 -19.462 -16.028  1.00  0.00    -0.058 N
HETATM    7  C4  UNL     1     -25.394 -18.501 -15.625  1.00  0.00     0.273 C
HETATM    8  C5  UNL     1     -24.770 -20.815 -16.313  1.00  0.00     0.272 A
BRANCH   6   9
HETATM    9  C3  UNL     1     -23.113 -19.313 -15.329  1.00  0.00     0.264 C
BRANCH   9  10
HETATM   10  C2  UNL     1     -21.965 -19.651 -16.201  1.00  0.00    -0.009 C
HETATM   11  C1  UNL     1     -20.956 -18.825 -16.434  1.00  0.00     0.008 C
ENDBRANCH   9  10
ENDBRANCH   6   9
ENDBRANCH   4   5
ENDBRANCH   1   4
BRANCH   3  12
HETATM   12  N3  UNL     1     -22.903 -17.315 -20.225  1.00  0.00    -0.283 N
ATOM     13  H3  UNL     1     -22.053 -16.797 -20.003  1.00  0.00     0.189 HD
BRANCH  12  14
HETATM   14  N4  UNL     1     -23.455 -17.215 -21.502  1.00  0.00    -0.248 N
HETATM   15  N5  UNL     1     -23.162 -16.253 -22.265  1.00  0.00    -0.331 N
ATOM     16  H52 UNL     1     -22.509 -15.545 -21.927  1.00  0.00     0.178 HD
ATOM     17  H51 UNL     1     -23.565 -16.179 -23.199  1.00  0.00     0.178 HD
ATOM     18  H4  UNL     1     -24.107 -17.930 -21.824  1.00  0.00     0.207 HD
ENDBRANCH  12  14
ENDBRANCH   3  12
TORSDOF 6
ENDMDL