MODEL 2
REMARK VINA RESULT: -4.578042046      0.933      1.063
REMARK  5 active torsions:
REMARK  status: ('A' for Active; 'I' for Inactive)
REMARK    1  A    between atoms: C2_2  and  N1_3
REMARK    2  A    between atoms: N3_8  and  C5_9
REMARK    3  A    between atoms: C5_9  and  C6_10
REMARK    4  A    between atoms: C6_10  and  N4_11
REMARK    5  A    between atoms: N4_11  and  C7_13
ROOT
HETATM    1  N1  UNL     1     -23.032 -17.607 -20.193  1.00  0.00    -0.207 N
HETATM    2  N2  UNL     1     -24.247 -18.153 -20.211  1.00  0.00    -0.290 N
ATOM      3  H2  UNL     1     -24.888 -18.138 -21.004  1.00  0.00     0.188 HD
HETATM    4  C3  UNL     1     -24.497 -18.726 -19.022  1.00  0.00     0.128 A
HETATM    5  C4  UNL     1     -23.354 -18.495 -18.276  1.00  0.00     0.131 A
HETATM    6  N3  UNL     1     -22.463 -17.806 -19.013  1.00  0.00    -0.280 N
ENDROOT
BRANCH   6   7
HETATM    7  C5  UNL     1     -21.141 -17.382 -18.554  1.00  0.00     0.170 C
BRANCH   7   8
HETATM    8  C6  UNL     1     -20.725 -18.359 -17.485  1.00  0.00     0.142 C
BRANCH   8   9
HETATM    9  N4  UNL     1     -19.464 -18.982 -17.689  1.00  0.00    -0.385 N
ATOM     10  H4  UNL     1     -18.828 -18.617 -18.398  1.00  0.00     0.160 HD
BRANCH   9  11
HETATM   11  C7  UNL     1     -19.082 -20.106 -16.914  1.00  0.00     0.168 C
HETATM   12  N5  UNL     1     -20.006 -20.827 -16.324  1.00  0.00    -0.396 N
ATOM     13  H52 UNL     1     -20.986 -20.566 -16.431  1.00  0.00     0.156 HD
ATOM     14  H51 UNL     1     -19.731 -21.636 -15.766  1.00  0.00     0.156 HD
ENDBRANCH   9  11
ENDBRANCH   8   9
ENDBRANCH   7   8
ENDBRANCH   6   7
BRANCH   1  15
HETATM   15  C2  UNL     1     -22.410 -16.908 -21.253  1.00  0.00     0.126 C
HETATM   16  C1  UNL     1     -23.106 -16.622 -22.340  1.00  0.00     0.033 C
ENDBRANCH   1  15
TORSDOF 5
ENDMDL