MODEL 2
REMARK VINA RESULT: -3.731582281      2.194      4.709
REMARK  5 active torsions:
REMARK  status: ('A' for Active; 'I' for Inactive)
REMARK    1  A    between atoms: N2_4  and  C1_6
REMARK    2  A    between atoms: C1_6  and  C2_7
REMARK    3  A    between atoms: C4_12  and  C5_13
REMARK    4  A    between atoms: C5_13  and  N4_14
REMARK    5  A    between atoms: N4_14  and  C6_16
ROOT
HETATM    1  C2  UNL     1     -24.364 -19.472 -17.586  1.00  0.00     0.121 C
HETATM    2  C3  UNL     1     -25.602 -19.626 -18.357  1.00  0.00     0.226 C
HETATM    3  O1  UNL     1     -26.744 -20.053 -18.189  1.00  0.00    -0.273 OA
HETATM    4  N3  UNL     1     -24.927 -19.052 -19.456  1.00  0.00    -0.354 N
ATOM      5  H3  UNL     1     -24.950 -19.146 -20.471  1.00  0.00     0.163 HD
HETATM    6  C4  UNL     1     -24.188 -18.270 -18.488  1.00  0.00     0.116 C
ENDROOT
BRANCH   1   7
HETATM    7  C1  UNL     1     -24.505 -19.041 -16.158  1.00  0.00     0.155 C
BRANCH   7   8
HETATM    8  N2  UNL     1     -25.699 -18.301 -15.911  1.00  0.00    -0.342 N
HETATM    9  N1  UNL     1     -26.646 -18.680 -15.228  1.00  0.00    -0.349 N
ATOM     10  H12 UNL     1     -26.556 -19.606 -14.809  1.00  0.00     0.176 HD
ATOM     11  H11 UNL     1     -27.501 -18.151 -15.051  1.00  0.00     0.176 HD
ATOM     12  H2  UNL     1     -25.772 -17.378 -16.338  1.00  0.00     0.179 HD
ENDBRANCH   7   8
ENDBRANCH   1   7
BRANCH   6  13
HETATM   13  C5  UNL     1     -22.783 -17.924 -18.848  1.00  0.00     0.148 C
BRANCH  13  14
HETATM   14  N4  UNL     1     -22.665 -16.792 -19.691  1.00  0.00    -0.366 N
ATOM     15  H4  UNL     1     -22.713 -15.855 -19.290  1.00  0.00     0.161 HD
BRANCH  14  16
HETATM   16  C6  UNL     1     -22.482 -16.946 -21.085  1.00  0.00     0.348 C
HETATM   17  O2  UNL     1     -23.409 -17.426 -21.774  1.00  0.00    -0.284 OA
ENDBRANCH  14  16
ENDBRANCH  13  14
ENDBRANCH   6  13
TORSDOF 5
ENDMDL