MODEL 3
REMARK VINA RESULT: -3.810241971      2.204      2.407
REMARK  6 active torsions:
REMARK  status: ('A' for Active; 'I' for Inactive)
REMARK    1  A    between atoms: C2_2  and  C3_3
REMARK    2  A    between atoms: C3_3  and  N1_4
REMARK    3  A    between atoms: N1_4  and  S1_6
REMARK    4  A    between atoms: S1_6  and  N2_9
REMARK    5  A    between atoms: N2_9  and  C4_11
REMARK    6  A    between atoms: N3_12  and  N4_14
ROOT
HETATM    1  S1  UNL     1     -24.364 -18.950 -17.593  1.00  0.00     0.320 S
HETATM    2  O1  UNL     1     -25.085 -20.149 -18.177  1.00  0.00    -0.182 OA
HETATM    3  O2  UNL     1     -22.965 -19.310 -17.195  1.00  0.00    -0.182 OA
ENDROOT
BRANCH   1   4
HETATM    4  N1  UNL     1     -24.366 -17.746 -18.835  1.00  0.00    -0.299 N
ATOM      5  H1  UNL     1     -25.096 -17.046 -18.961  1.00  0.00     0.174 HD
BRANCH   4   6
HETATM    6  C3  UNL     1     -23.173 -17.868 -19.686  1.00  0.00     0.160 C
BRANCH   6   7
HETATM    7  C2  UNL     1     -23.659 -17.814 -21.088  1.00  0.00    -0.017 C
HETATM    8  C1  UNL     1     -23.064 -17.000 -21.932  1.00  0.00     0.008 C
ENDBRANCH   6   7
ENDBRANCH   4   6
ENDBRANCH   1   4
BRANCH   1   9
HETATM    9  N2  UNL     1     -25.265 -18.420 -16.235  1.00  0.00    -0.263 N
ATOM     10  H2  UNL     1     -24.944 -17.619 -15.691  1.00  0.00     0.181 HD
BRANCH   9  11
HETATM   11  C4  UNL     1     -26.469 -19.101 -15.864  1.00  0.00     0.208 C
HETATM   12  N3  UNL     1     -27.130 -18.680 -14.855  1.00  0.00    -0.302 N
ATOM     13  H3  UNL     1     -27.990 -19.159 -14.583  1.00  0.00     0.187 HD
BRANCH  12  14
HETATM   14  N4  UNL     1     -26.703 -17.595 -14.129  1.00  0.00    -0.344 N
ATOM     15  H42 UNL     1     -26.404 -16.761 -14.633  1.00  0.00     0.176 HD
ATOM     16  H41 UNL     1     -26.684 -17.617 -13.109  1.00  0.00     0.176 HD
ENDBRANCH  12  14
ENDBRANCH   9  11
ENDBRANCH   1   9
TORSDOF 6
ENDMDL