MODEL 3
REMARK VINA RESULT: -3.869474487      1.540      1.563
REMARK  6 active torsions:
REMARK  status: ('A' for Active; 'I' for Inactive)
REMARK    1  A    between atoms: N2_4  and  C1_6
REMARK    2  A    between atoms: C1_6  and  C2_7
REMARK    3  A    between atoms: C2_7  and  C3_8
REMARK    4  A    between atoms: C3_8  and  N3_9
REMARK    5  A    between atoms: N3_9  and  C4_11
REMARK    6  A    between atoms: C6_14  and  C7_15
ROOT
HETATM    1  C2  UNL     1     -29.064 -12.681 -13.094  1.00  0.00     0.004 A
HETATM    2  C5  UNL     1     -27.585 -12.396 -13.288  1.00  0.00     0.026 A
HETATM    3  C6  UNL     1     -28.581 -11.309 -12.982  1.00  0.00     0.060 A
ENDROOT
BRANCH   1   4
HETATM    4  C1  UNL     1     -29.920 -12.941 -14.362  1.00  0.00     0.150 C
BRANCH   4   5
HETATM    5  N2  UNL     1     -29.900 -14.324 -14.689  1.00  0.00    -0.342 N
HETATM    6  N1  UNL     1     -30.883 -14.887 -15.241  1.00  0.00    -0.349 N
ATOM      7  H12 UNL     1     -31.706 -14.322 -15.451  1.00  0.00     0.176 HD
ATOM      8  H11 UNL     1     -30.869 -15.880 -15.476  1.00  0.00     0.176 HD
ATOM      9  H2  UNL     1     -29.069 -14.874 -14.472  1.00  0.00     0.179 HD
ENDBRANCH   4   5
ENDBRANCH   1   4
BRANCH   1  10
HETATM   10  C3  UNL     1     -29.379 -13.654 -12.042  1.00  0.00     0.134 C
BRANCH  10  11
HETATM   11  N3  UNL     1     -30.548 -13.518 -11.255  1.00  0.00    -0.367 N
ATOM     12  H3  UNL     1     -30.654 -12.746 -10.598  1.00  0.00     0.161 HD
BRANCH  11  13
HETATM   13  C4  UNL     1     -31.569 -14.497 -11.410  1.00  0.00     0.348 C
HETATM   14  O1  UNL     1     -31.472 -15.354 -12.313  1.00  0.00    -0.284 OA
ENDBRANCH  11  13
ENDBRANCH  10  11
ENDBRANCH   1  10
BRANCH   3  15
HETATM   15  C7  UNL     1     -28.481 -10.466 -11.819  1.00  0.00     0.236 C
HETATM   16  O2  UNL     1     -27.412 -10.296 -11.218  1.00  0.00    -0.306 OA
ENDBRANCH   3  15
TORSDOF 6
ENDMDL