MODEL 4
REMARK VINA RESULT: -4.284791089      1.228      1.627
REMARK  5 active torsions:
REMARK  status: ('A' for Active; 'I' for Inactive)
REMARK    1  A    between atoms: N2_4  and  N3_6
REMARK    2  A    between atoms: C1_8  and  N4_9
REMARK    3  A    between atoms: N4_9  and  C2_11
REMARK    4  A    between atoms: C2_11  and  C3_12
REMARK    5  A    between atoms: C3_12  and  N5_13
ROOT
HETATM    1  N4  UNL     1     -19.718 -19.137 -17.407  1.00  0.00    -0.383 N
ATOM      2  H4  UNL     1     -19.497 -19.804 -16.667  1.00  0.00     0.160 HD
ENDROOT
BRANCH   1   3
HETATM    3  C1  UNL     1     -18.759 -18.931 -18.435  1.00  0.00     0.194 C
HETATM    4  N3  UNL     1     -18.052 -19.921 -18.835  1.00  0.00    -0.283 N
ATOM      5  H3  UNL     1     -17.364 -19.780 -19.575  1.00  0.00     0.189 HD
BRANCH   4   6
HETATM    6  N2  UNL     1     -18.206 -21.186 -18.278  1.00  0.00    -0.248 N
HETATM    7  N1  UNL     1     -17.405 -22.116 -18.536  1.00  0.00    -0.331 N
ATOM      8  H12 UNL     1     -16.629 -21.924 -19.170  1.00  0.00     0.178 HD
ATOM      9  H11 UNL     1     -17.518 -23.044 -18.128  1.00  0.00     0.178 HD
ATOM     10  H2  UNL     1     -18.987 -21.361 -17.647  1.00  0.00     0.207 HD
ENDBRANCH   4   6
ENDBRANCH   1   3
BRANCH   1  11
HETATM   11  C2  UNL     1     -20.988 -18.453 -17.351  1.00  0.00     0.142 C
BRANCH  11  12
HETATM   12  C3  UNL     1     -21.056 -17.369 -18.429  1.00  0.00     0.167 C
BRANCH  12  13
HETATM   13  N5  UNL     1     -22.195 -17.612 -19.298  1.00  0.00    -0.302 N
HETATM   14  C4  UNL     1     -23.339 -18.261 -18.993  1.00  0.00     0.111 A
HETATM   15  C5  UNL     1     -24.130 -18.250 -20.116  1.00  0.00     0.037 A
HETATM   16  C6  UNL     1     -23.438 -17.575 -21.115  1.00  0.00     0.108 A
HETATM   17  N6  UNL     1     -22.266 -17.215 -20.544  1.00  0.00    -0.310 N
ATOM     18  H6  UNL     1     -21.529 -16.699 -21.024  1.00  0.00     0.186 HD
ENDBRANCH  12  13
ENDBRANCH  11  12
ENDBRANCH   1  11
TORSDOF 5
ENDMDL