MODEL 3
REMARK VINA RESULT: -4.411952363      4.600      5.471
REMARK  5 active torsions:
REMARK  status: ('A' for Active; 'I' for Inactive)
REMARK    1  A    between atoms: C2_2  and  C3_3
REMARK    2  A    between atoms: C3_3  and  N1_4
REMARK    3  A    between atoms: N1_4  and  C4_6
REMARK    4  A    between atoms: C4_6  and  C5_7
REMARK    5  A    between atoms: C5_7  and  N2_8
ROOT
HETATM    1  N2  UNL     1     -19.353 -19.685 -16.948  1.00  0.00     0.044 N
HETATM    2  C6  UNL     1     -18.911 -20.425 -15.809  1.00  0.00     0.304 A
HETATM    3  C7  UNL     1     -19.224 -21.081 -17.153  1.00  0.00     0.280 A
HETATM    4  C8  UNL     1     -18.077 -21.289 -18.055  1.00  0.00     0.114 A
HETATM    5  N3  UNL     1     -17.556 -20.146 -18.306  1.00  0.00    -0.291 N
ATOM      6  H3  UNL     1     -16.745 -20.001 -18.907  1.00  0.00     0.183 HD
HETATM    7  N4  UNL     1     -18.239 -19.135 -17.658  1.00  0.00     0.073 NA
ENDROOT
BRANCH   1   8
HETATM    8  C5  UNL     1     -20.548 -18.950 -17.037  1.00  0.00     0.282 C
BRANCH   8   9
HETATM    9  C4  UNL     1     -20.730 -17.934 -18.086  1.00  0.00     0.144 C
BRANCH   9  10
HETATM   10  N1  UNL     1     -21.993 -17.860 -18.737  1.00  0.00    -0.417 N
ATOM     11  H1  UNL     1     -22.801 -18.382 -18.398  1.00  0.00     0.153 HD
BRANCH  10  12
HETATM   12  C3  UNL     1     -22.074 -17.024 -19.885  1.00  0.00     0.140 C
BRANCH  12  13
HETATM   13  C2  UNL     1     -23.069 -17.474 -20.873  1.00  0.00    -0.018 C
HETATM   14  C1  UNL     1     -23.075 -16.966 -22.081  1.00  0.00     0.008 C
ENDBRANCH  12  13
ENDBRANCH  10  12
ENDBRANCH   9  10
ENDBRANCH   8   9
ENDBRANCH   1   8
TORSDOF 5
ENDMDL