MODEL 5
REMARK VINA RESULT: -4.375430972      3.536      6.850
REMARK  5 active torsions:
REMARK  status: ('A' for Active; 'I' for Inactive)
REMARK    1  A    between atoms: C4_7  and  C5_8
REMARK    2  A    between atoms: C5_8  and  C6_9
REMARK    3  A    between atoms: C6_9  and  N3_10
REMARK    4  A    between atoms: C7_12  and  N4_13
REMARK    5  A    between atoms: N4_13  and  N5_15
ROOT
HETATM    1  N3  UNL     1     -25.948 -19.556 -17.795  1.00  0.00    -0.385 N
ATOM      2  H3  UNL     1     -25.490 -19.459 -16.889  1.00  0.00     0.160 HD
HETATM    3  C7  UNL     1     -27.181 -19.899 -17.838  1.00  0.00     0.194 C
ENDROOT
BRANCH   1   4
HETATM    4  C6  UNL     1     -25.195 -19.304 -18.985  1.00  0.00     0.128 C
BRANCH   4   5
HETATM    5  C5  UNL     1     -23.956 -18.537 -18.634  1.00  0.00     0.096 C
BRANCH   5   6
HETATM    6  C4  UNL     1     -23.354 -17.867 -19.812  1.00  0.00     0.084 A
HETATM    7  N1  UNL     1     -22.148 -17.293 -19.958  1.00  0.00    -0.350 N
HETATM    8  C1  UNL     1     -21.137 -17.217 -18.913  1.00  0.00     0.156 C
HETATM    9  C2  UNL     1     -22.013 -16.796 -21.220  1.00  0.00     0.108 A
HETATM   10  C3  UNL     1     -23.191 -17.080 -21.879  1.00  0.00     0.106 A
HETATM   11  N2  UNL     1     -23.991 -17.728 -21.013  1.00  0.00    -0.354 N
ATOM     12  H2  UNL     1     -24.931 -18.064 -21.222  1.00  0.00     0.166 HD
ENDBRANCH   5   6
ENDBRANCH   4   5
ENDBRANCH   1   4
BRANCH   3  13
HETATM   13  N4  UNL     1     -27.956 -20.156 -16.675  1.00  0.00    -0.283 N
ATOM     14  H4  UNL     1     -27.922 -21.057 -16.199  1.00  0.00     0.189 HD
BRANCH  13  15
HETATM   15  N5  UNL     1     -28.769 -19.114 -16.215  1.00  0.00    -0.248 N
HETATM   16  N6  UNL     1     -29.694 -18.639 -16.928  1.00  0.00    -0.331 N
ATOM     17  H62 UNL     1     -29.840 -19.034 -17.857  1.00  0.00     0.178 HD
ATOM     18  H61 UNL     1     -30.286 -17.880 -16.593  1.00  0.00     0.178 HD
ATOM     19  H5  UNL     1     -28.610 -18.730 -15.284  1.00  0.00     0.207 HD
ENDBRANCH  13  15
ENDBRANCH   3  13
TORSDOF 5
ENDMDL