MODEL 1
REMARK VINA RESULT: -3.701265404      0.000      0.000
REMARK  5 active torsions:
REMARK  status: ('A' for Active; 'I' for Inactive)
REMARK    1  A    between atoms: N1_2  and  C2_3
REMARK    2  A    between atoms: C2_3  and  C3_4
REMARK    3  A    between atoms: C3_4  and  N2_5
REMARK    4  A    between atoms: N2_5  and  C4_7
REMARK    5  A    between atoms: N3_8  and  N4_10
ROOT
HETATM    1  N2  UNL     1     -23.377 -18.278 -18.644  1.00  0.00    -0.383 N
ATOM      2  H2  UNL     1     -22.647 -17.567 -18.659  1.00  0.00     0.160 HD
ENDROOT
BRANCH   1   3
HETATM    3  C3  UNL     1     -23.620 -19.009 -17.413  1.00  0.00     0.148 C
BRANCH   3   4
HETATM    4  C2  UNL     1     -24.886 -19.777 -17.601  1.00  0.00     0.256 C
BRANCH   4   5
HETATM    5  N1  UNL     1     -25.891 -19.553 -16.604  1.00  0.00    -0.066 N
HETATM    6  C1  UNL     1     -25.522 -18.497 -15.659  1.00  0.00     0.272 C
HETATM    7  C5  UNL     1     -26.623 -20.675 -16.052  1.00  0.00     0.265 A
HETATM    8  C6  UNL     1     -27.286 -19.625 -16.914  1.00  0.00     0.265 A
ENDBRANCH   4   5
ENDBRANCH   3   4
ENDBRANCH   1   3
BRANCH   1   9
HETATM    9  C4  UNL     1     -24.119 -18.520 -19.822  1.00  0.00     0.194 C
HETATM   10  N3  UNL     1     -23.827 -17.915 -20.909  1.00  0.00    -0.283 N
ATOM     11  H3  UNL     1     -24.364 -18.090 -21.759  1.00  0.00     0.189 HD
BRANCH  10  12
HETATM   12  N4  UNL     1     -22.766 -17.011 -20.916  1.00  0.00    -0.248 N
HETATM   13  N5  UNL     1     -22.667 -16.125 -21.815  1.00  0.00    -0.331 N
ATOM     14  H52 UNL     1     -23.384 -16.086 -22.539  1.00  0.00     0.178 HD
ATOM     15  H51 UNL     1     -21.890 -15.464 -21.820  1.00  0.00     0.178 HD
ATOM     16  H4  UNL     1     -22.057 -17.064 -20.185  1.00  0.00     0.207 HD
ENDBRANCH  10  12
ENDBRANCH   1   9
TORSDOF 5
ENDMDL