MODEL 4
REMARK VINA RESULT: -4.043500329      3.238      5.274
REMARK  5 active torsions:
REMARK  status: ('A' for Active; 'I' for Inactive)
REMARK    1  A    between atoms: C2_2  and  N1_3
REMARK    2  A    between atoms: N1_3  and  C3_4
REMARK    3  A    between atoms: N1_3  and  N4_12
REMARK    4  A    between atoms: N2_5  and  N3_7
REMARK    5  A    between atoms: N3_7  and  C4_9
ROOT
HETATM    1  C3  UNL     1     -20.362 -18.295 -17.891  1.00  0.00     0.212 C
HETATM    2  N2  UNL     1     -21.492 -17.965 -18.412  1.00  0.00    -0.299 N
ATOM      3  H2  UNL     1     -22.362 -18.208 -17.940  1.00  0.00     0.187 HD
ENDROOT
BRANCH   2   4
HETATM    4  N3  UNL     1     -21.525 -17.271 -19.629  1.00  0.00    -0.331 N
ATOM      5  H3  UNL     1     -20.635 -17.012 -20.056  1.00  0.00     0.180 HD
BRANCH   4   6
HETATM    6  C4  UNL     1     -22.741 -16.899 -20.318  1.00  0.00     0.099 A
HETATM    7  C5  UNL     1     -22.849 -17.052 -21.779  1.00  0.00     0.029 A
HETATM    8  C6  UNL     1     -23.624 -17.977 -20.876  1.00  0.00     0.029 A
ENDBRANCH   4   6
ENDBRANCH   2   4
BRANCH   1   9
HETATM    9  N1  UNL     1     -20.361 -19.000 -16.654  1.00  0.00    -0.291 N
BRANCH   9  10
HETATM   10  C2  UNL     1     -21.542 -19.055 -15.817  1.00  0.00     0.141 C
HETATM   11  C1  UNL     1     -21.247 -18.368 -14.498  1.00  0.00     0.028 C
ENDBRANCH   9  10
BRANCH   9  12
HETATM   12  N4  UNL     1     -19.229 -19.677 -16.178  1.00  0.00    -0.143 NA
HETATM   13  C7  UNL     1     -18.319 -20.027 -17.250  1.00  0.00     0.159 C
ENDBRANCH   9  12
ENDBRANCH   1   9
TORSDOF 5
ENDMDL