MODEL 3
REMARK VINA RESULT: -3.939311143      1.574      1.648
REMARK  6 active torsions:
REMARK  status: ('A' for Active; 'I' for Inactive)
REMARK    1  A    between atoms: N1_1  and  C1_5
REMARK    2  A    between atoms: C1_5  and  N2_6
REMARK    3  A    between atoms: C2_8  and  C3_9
REMARK    4  A    between atoms: C5_11  and  C6_12
REMARK    5  A    between atoms: C6_12  and  N3_13
REMARK    6  A    between atoms: N3_13  and  C7_15
ROOT
HETATM    1  C3  UNL     1     -24.622 -18.445 -18.686  1.00  0.00     0.030 A
HETATM    2  C4  UNL     1     -23.948 -19.345 -17.673  1.00  0.00     0.017 A
HETATM    3  C5  UNL     1     -25.193 -19.794 -18.461  1.00  0.00     0.013 A
ENDROOT
BRANCH   1   4
HETATM    4  C2  UNL     1     -23.843 -18.237 -19.940  1.00  0.00     0.062 C
HETATM    5  N2  UNL     1     -23.109 -17.192 -20.105  1.00  0.00    -0.380 N
ATOM      6  H2  UNL     1     -23.066 -16.499 -19.358  1.00  0.00     0.160 HD
BRANCH   5   7
HETATM    7  C1  UNL     1     -22.350 -16.967 -21.300  1.00  0.00     0.351 C
BRANCH   7   8
HETATM    8  N1  UNL     1     -23.085 -16.102 -22.190  1.00  0.00    -0.064 N
ATOM      9  H13 UNL     1     -23.661 -15.430 -21.684  1.00  0.00     0.276 HD
ATOM     10  H12 UNL     1     -22.476 -15.441 -22.673  1.00  0.00     0.276 HD
ATOM     11  H11 UNL     1     -23.634 -16.662 -22.842  1.00  0.00     0.276 HD
ENDBRANCH   7   8
ENDBRANCH   5   7
ENDBRANCH   1   4
BRANCH   3  12
HETATM   12  C6  UNL     1     -26.388 -20.035 -17.614  1.00  0.00     0.127 C
BRANCH  12  13
HETATM   13  N3  UNL     1     -27.461 -20.542 -18.436  1.00  0.00    -0.368 N
ATOM     14  H3  UNL     1     -27.282 -21.353 -19.027  1.00  0.00     0.161 HD
BRANCH  13  15
HETATM   15  C7  UNL     1     -28.758 -19.955 -18.455  1.00  0.00     0.348 C
HETATM   16  O1  UNL     1     -28.838 -18.708 -18.499  1.00  0.00    -0.284 OA
ENDBRANCH  13  15
ENDBRANCH  12  13
ENDBRANCH   3  12
TORSDOF 6
ENDMDL