MODEL 3
REMARK VINA RESULT: -3.700432539      3.068      3.753
REMARK  5 active torsions:
REMARK  status: ('A' for Active; 'I' for Inactive)
REMARK    1  A    between atoms: N2_4  and  N3_6
REMARK    2  A    between atoms: C1_8  and  C2_9
REMARK    3  A    between atoms: C3_13  and  C4_14
REMARK    4  A    between atoms: C4_14  and  N5_15
REMARK    5  A    between atoms: N5_15  and  C5_17
ROOT
HETATM    1  C2  UNL     1     -24.534 -18.779 -18.092  1.00  0.00     0.258 A
HETATM    2  N4  UNL     1     -25.016 -20.110 -17.681  1.00  0.00    -0.056 N
ATOM      3  H41 UNL     1     -25.301 -20.955 -18.176  1.00  0.00     0.278 HD
ATOM      4  H42 UNL     1     -25.878 -20.465 -17.266  1.00  0.00     0.278 HD
HETATM    5  C3  UNL     1     -23.738 -19.602 -17.146  1.00  0.00     0.240 A
ENDROOT
BRANCH   1   6
HETATM    6  C1  UNL     1     -24.188 -18.662 -19.508  1.00  0.00     0.116 C
HETATM    7  N3  UNL     1     -23.760 -17.565 -20.054  1.00  0.00    -0.300 N
ATOM      8  H3  UNL     1     -23.657 -16.737 -19.468  1.00  0.00     0.187 HD
BRANCH   7   9
HETATM    9  N2  UNL     1     -23.437 -17.470 -21.400  1.00  0.00    -0.250 N
HETATM   10  N1  UNL     1     -22.815 -16.452 -21.822  1.00  0.00    -0.331 N
ATOM     11  H12 UNL     1     -22.560 -15.716 -21.164  1.00  0.00     0.178 HD
ATOM     12  H11 UNL     1     -22.577 -16.381 -22.811  1.00  0.00     0.178 HD
ATOM     13  H2  UNL     1     -23.698 -18.216 -22.045  1.00  0.00     0.207 HD
ENDBRANCH   7   9
ENDBRANCH   1   6
BRANCH   5  14
HETATM   14  C4  UNL     1     -23.751 -19.296 -15.687  1.00  0.00     0.157 C
BRANCH  14  15
HETATM   15  N5  UNL     1     -22.396 -19.105 -15.225  1.00  0.00    -0.366 N
ATOM     16  H5  UNL     1     -22.221 -18.987 -14.227  1.00  0.00     0.161 HD
BRANCH  15  17
HETATM   17  C5  UNL     1     -21.313 -19.079 -16.119  1.00  0.00     0.348 C
HETATM   18  O1  UNL     1     -20.516 -18.128 -16.116  1.00  0.00    -0.284 OA
ENDBRANCH  15  17
ENDBRANCH  14  15
ENDBRANCH   5  14
TORSDOF 5
ENDMDL