MODEL 5
REMARK VINA RESULT: -3.711574520     12.303     13.017
REMARK  5 active torsions:
REMARK  status: ('A' for Active; 'I' for Inactive)
REMARK    1  A    between atoms: N2_4  and  C1_6
REMARK    2  A    between atoms: C1_6  and  N3_7
REMARK    3  A    between atoms: C2_9  and  N4_10
REMARK    4  A    between atoms: N4_10  and  C3_12
REMARK    5  A    between atoms: C3_12  and  C4_13
ROOT
HETATM    1  N3  UNL     1     -31.349 -12.477 -15.373  1.00  0.00    -0.369 N
ATOM      2  H3  UNL     1     -31.264 -12.300 -16.374  1.00  0.00     0.161 HD
HETATM    3  C2  UNL     1     -31.316 -11.484 -14.580  1.00  0.00     0.172 C
ENDROOT
BRANCH   3   4
HETATM    4  N4  UNL     1     -31.428 -11.669 -13.185  1.00  0.00    -0.384 N
ATOM      5  H4  UNL     1     -32.316 -12.000 -12.809  1.00  0.00     0.160 HD
BRANCH   4   6
HETATM    6  C3  UNL     1     -30.338 -11.411 -12.264  1.00  0.00     0.155 C
BRANCH   6   7
HETATM    7  C4  UNL     1     -29.164 -10.770 -12.922  1.00  0.00     0.194 A
HETATM    8  N5  UNL     1     -27.971 -11.553 -13.124  1.00  0.00    -0.344 N
HETATM    9  C5  UNL     1     -27.974 -10.548 -12.068  1.00  0.00     0.242 A
ATOM     10  H5  UNL     1     -27.479 -12.284 -13.636  1.00  0.00     0.163 HD
HETATM   11  O1  UNL     1     -27.233 -10.071 -11.179  1.00  0.00    -0.271 OA
ENDBRANCH   6   7
ENDBRANCH   4   6
ENDBRANCH   3   4
BRANCH   1  12
HETATM   12  C1  UNL     1     -31.499 -13.838 -14.932  1.00  0.00     0.261 C
BRANCH  12  13
HETATM   13  N2  UNL     1     -30.283 -14.578 -15.056  1.00  0.00    -0.325 N
HETATM   14  N1  UNL     1     -29.417 -14.522 -14.186  1.00  0.00    -0.348 N
ATOM     15  H12 UNL     1     -29.585 -13.934 -13.369  1.00  0.00     0.176 HD
ATOM     16  H11 UNL     1     -28.549 -15.050 -14.274  1.00  0.00     0.176 HD
ATOM     17  H2  UNL     1     -30.130 -15.161 -15.878  1.00  0.00     0.181 HD
ENDBRANCH  12  13
ENDBRANCH   1  12
TORSDOF 5
ENDMDL