MODEL 1
REMARK VINA RESULT: -5.037960092      0.000      0.000
REMARK  12 active torsions:
REMARK  status: ('A' for Active; 'I' for Inactive)
REMARK    1  A    between atoms: C2_2  and  C3_3
REMARK    2  A    between atoms: C3_3  and  C4_4
REMARK    3  A    between atoms: C5_5  and  O1_6
REMARK    4  A    between atoms: C9_14  and  C10_15
REMARK    5  A    between atoms: C10_15  and  C11_16
REMARK    6  A    between atoms: C11_16  and  C12_17
REMARK    7  A    between atoms: C12_17  and  N3_18
REMARK    8  A    between atoms: C15_25  and  O2_26
REMARK    9  A    between atoms: C17_29  and  C19_31
REMARK   10  A    between atoms: C21_35  and  O3_36
REMARK   11  A    between atoms: C22_38  and  C23_39
REMARK   12  A    between atoms: C29_48  and  C30_49
REMARK       I    between atoms: C30_49  and  N9_51
ROOT
HETATM    1  C4  UNL     1      26.200  -3.307  -1.191  1.00  0.00     0.011 C
HETATM    2  C5  UNL     1      24.956  -2.562  -1.203  1.00  0.00     0.149 C
HETATM    3  N1  UNL     1      24.541  -1.247  -1.223  1.00  0.00    -0.321 N
ATOM      4  H1  UNL     1      24.177  -0.992  -0.304  1.00  0.00     0.169 HD
HETATM    5  C6  UNL     1      24.449  -0.106  -2.113  1.00  0.00     0.127 C
HETATM    6  N2  UNL     1      24.843   0.996  -1.565  1.00  0.00    -0.374 N
HETATM    7  C7  UNL     1      24.946   2.337  -2.006  1.00  0.00     0.150 C
HETATM    8  C8  UNL     1      25.262   0.917  -0.106  1.00  0.00     0.150 C
HETATM    9  C9  UNL     1      23.848  -0.163  -3.457  1.00  0.00     0.057 C
HETATM   10  N6  UNL     1      24.459  -1.012  -4.465  1.00  0.00    -0.331 N
HETATM   11  C14 UNL     1      23.885  -2.407  -4.504  1.00  0.00     0.158 C
HETATM   12  C15 UNL     1      25.402  -0.814  -5.456  1.00  0.00     0.170 C
HETATM   13  C16 UNL     1      26.629  -0.101  -5.812  1.00  0.00     0.087 C
HETATM   14  C17 UNL     1      27.332   0.799  -4.926  1.00  0.00    -0.053 C
HETATM   15  C18 UNL     1      27.896   0.387  -3.641  1.00  0.00     0.046 C
HETATM   16  N7  UNL     1      27.474  -0.883  -6.708  1.00  0.00    -0.335 N
ATOM     17  H7  UNL     1      27.365  -0.616  -7.687  1.00  0.00     0.168 HD
HETATM   18  C21 UNL     1      28.393  -1.907  -6.532  1.00  0.00     0.139 C
HETATM   19  C22 UNL     1      29.762  -1.931  -5.970  1.00  0.00     0.162 C
HETATM   20  N8  UNL     1      30.153  -3.243  -5.502  1.00  0.00    -0.348 N
ATOM     21  H8  UNL     1      31.051  -3.596  -5.834  1.00  0.00     0.163 HD
HETATM   22  C26 UNL     1      29.426  -4.083  -4.636  1.00  0.00     0.221 C
HETATM   23  O4  UNL     1      29.297  -5.296  -4.974  1.00  0.00    -0.273 OA
HETATM   24  C27 UNL     1      28.787  -3.691  -3.352  1.00  0.00     0.131 C
HETATM   25  C28 UNL     1      27.339  -3.781  -3.411  1.00  0.00     0.000 C
HETATM   26  C29 UNL     1      26.502  -4.262  -2.310  1.00  0.00     0.039 C
ENDROOT
BRANCH   9  27
HETATM   27  C10 UNL     1      23.376   1.141  -4.055  1.00  0.00     0.063 C
BRANCH  27  28
HETATM   28  C11 UNL     1      21.869   1.389  -3.880  1.00  0.00     0.026 C
BRANCH  28  29
HETATM   29  C12 UNL     1      21.108   0.140  -3.531  1.00  0.00     0.122 C
BRANCH  29  30
HETATM   30  N3  UNL     1      20.648   0.234  -2.129  1.00  0.00    -0.367 N
HETATM   31  C13 UNL     1      20.772  -0.787  -1.364  1.00  0.00     0.196 C
HETATM   32  N4  UNL     1      21.342  -1.986  -1.850  1.00  0.00    -0.067 NA
HETATM   33  N5  UNL     1      20.335  -0.707  -0.025  1.00  0.00    -0.067 NA
ATOM     34  H3  UNL     1      20.238   1.098  -1.776  1.00  0.00     0.161 HD
ENDBRANCH  29  30
ENDBRANCH  28  29
ENDBRANCH  27  28
ENDBRANCH   9  27
BRANCH  12  35
HETATM   35  O2  UNL     1      25.120  -1.552  -6.557  1.00  0.00    -0.344 OA
ATOM     36  H2  UNL     1      25.201  -1.033  -7.349  1.00  0.00     0.219 HD
ENDBRANCH  12  35
BRANCH   2  37
HETATM   37  O1  UNL     1      23.932  -3.415  -1.181  1.00  0.00    -0.346 OA
ATOM     38  H1  UNL     1      23.119  -2.930  -1.255  1.00  0.00     0.219 HD
ENDBRANCH   2  37
BRANCH   1  39
HETATM   39  C3  UNL     1      27.411  -2.693  -0.555  1.00  0.00     0.070 C
BRANCH  39  40
HETATM   40  C2  UNL     1      27.414  -3.041   0.883  1.00  0.00    -0.032 C
HETATM   41  C1  UNL     1      26.875  -2.201   1.750  1.00  0.00     0.007 C
ENDBRANCH  39  40
ENDBRANCH   1  39
BRANCH  14  42
HETATM   42  C19 UNL     1      28.321   1.640  -5.767  1.00  0.00     0.031 C
HETATM   43  C20 UNL     1      29.628   1.700  -4.964  1.00  0.00     0.010 C
ENDBRANCH  14  42
BRANCH  26  44
HETATM   44  C30 UNL     1      26.860  -5.635  -1.834  1.00  0.00     0.251 C
HETATM   45  O5  UNL     1      26.723  -6.026  -0.670  1.00  0.00    -0.268 OA
HETATM   46  N9  UNL     1      27.391  -6.555  -2.772  1.00  0.00    -0.361 N
HETATM   47  C31 UNL     1      27.740  -7.906  -2.307  1.00  0.00     0.149 C
ATOM     48  H9  UNL     1      27.527  -6.286  -3.746  1.00  0.00     0.162 HD
ENDBRANCH  26  44
BRANCH  18  49
HETATM   49  O3  UNL     1      28.063  -3.110  -6.912  1.00  0.00    -0.348 OA
ATOM     50  H3  UNL     1      28.533  -3.848  -6.540  1.00  0.00     0.219 HD
ENDBRANCH  18  49
BRANCH  19  51
HETATM   51  C23 UNL     1      30.779  -1.504  -7.068  1.00  0.00     0.008 C
HETATM   52  C24 UNL     1      31.941  -0.899  -6.308  1.00  0.00     0.012 C
HETATM   53  C25 UNL     1      31.210  -2.698  -7.866  1.00  0.00     0.012 C
ENDBRANCH  19  51
TORSDOF 12
ENDMDL