MODEL 3
REMARK VINA RESULT: -8.792180756      1.921      2.557
REMARK  13 active torsions:
REMARK  status: ('A' for Active; 'I' for Inactive)
REMARK    1  A    between atoms: C2_2  and  C3_3
REMARK    2  A    between atoms: C3_3  and  C5_5
REMARK    3  A    between atoms: C5_5  and  N1_6
REMARK    4  A    between atoms: C5_5  and  C13_26
REMARK       I    between atoms: N1_6  and  C6_8
REMARK       I    between atoms: C6_8  and  N2_10
REMARK    5  A    between atoms: N2_10  and  C8_12
REMARK    6  A    between atoms: C8_12  and  C9_13
REMARK    7  A    between atoms: C9_13  and  C10_14
REMARK    8  A    between atoms: C10_14  and  N3_15
REMARK       I    between atoms: N3_15  and  C11_17
REMARK       I    between atoms: N5_19  and  C12_21
REMARK    9  A    between atoms: C13_26  and  O2_27
REMARK   10  A    between atoms: C13_26  and  N8_29
REMARK   11  A    between atoms: C16_32  and  N9_33
REMARK       I    between atoms: N9_33  and  C17_35
REMARK   12  A    between atoms: C17_35  and  C18_37
REMARK   13  A    between atoms: C18_37  and  C19_38
REMARK       I    between atoms: C19_38  and  N10_40
ROOT
HETATM    1  C13 UNL     1      29.355 -11.453   0.081  1.00  0.00     0.137 C
ENDROOT
BRANCH   1   2
HETATM    2  C5  UNL     1      29.304 -12.905  -0.190  1.00  0.00     0.164 C
BRANCH   2   3
HETATM    3  C3  UNL     1      28.229 -13.629   0.608  1.00  0.00     0.012 C
HETATM    4  C4  UNL     1      28.733 -13.955   2.011  1.00  0.00     0.012 C
BRANCH   3   5
HETATM    5  C2  UNL     1      26.885 -13.030   0.611  1.00  0.00     0.002 C
HETATM    6  C1  UNL     1      25.963 -13.629   1.662  1.00  0.00     0.005 C
ENDBRANCH   3   5
ENDBRANCH   2   3
BRANCH   2   7
HETATM    7  N1  UNL     1      30.548 -13.492   0.394  1.00  0.00    -0.331 N
HETATM    8  C6  UNL     1      31.143 -14.658  -0.076  1.00  0.00     0.318 C
HETATM    9  O1  UNL     1      30.637 -15.274  -1.042  1.00  0.00    -0.247 OA
HETATM   10  N2  UNL     1      32.321 -15.176   0.518  1.00  0.00    -0.339 N
HETATM   11  C7  UNL     1      32.983 -14.512   1.627  1.00  0.00     0.154 C
ATOM     12  H1  UNL     1      30.984 -13.010   1.180  1.00  0.00     0.165 HD
BRANCH  10  13
HETATM   13  C8  UNL     1      32.904 -16.410   0.050  1.00  0.00     0.128 C
BRANCH  13  14
HETATM   14  C9  UNL     1      32.927 -17.334   1.269  1.00  0.00     0.039 C
BRANCH  14  15
HETATM   15  C10 UNL     1      31.565 -17.866   1.555  1.00  0.00     0.124 C
BRANCH  15  16
HETATM   16  N3  UNL     1      31.137 -17.704   2.915  1.00  0.00    -0.364 N
HETATM   17  C11 UNL     1      29.781 -17.409   3.206  1.00  0.00     0.190 C
HETATM   18  N4  UNL     1      28.802 -17.325   2.168  1.00  0.00    -0.063 NA
HETATM   19  N5  UNL     1      29.399 -17.214   4.428  1.00  0.00    -0.305 N
HETATM   20  C12 UNL     1      28.044 -16.920   4.706  1.00  0.00     0.188 C
ATOM     21  H5  UNL     1      30.075 -17.273   5.189  1.00  0.00     0.171 HD
HETATM   22  N6  UNL     1      27.731 -15.779   5.204  1.00  0.00    -0.373 N
HETATM   23  N7  UNL     1      27.010 -17.855   4.443  1.00  0.00    -0.064 NA
ATOM     24  H62 UNL     1      28.474 -15.107   5.393  1.00  0.00     0.158 HD
ATOM     25  H61 UNL     1      26.754 -15.567   5.405  1.00  0.00     0.158 HD
ATOM     26  H3  UNL     1      31.810 -17.801   3.675  1.00  0.00     0.162 HD
ENDBRANCH  15  16
ENDBRANCH  14  15
ENDBRANCH  13  14
ENDBRANCH  10  13
ENDBRANCH   2   7
ENDBRANCH   1   2
BRANCH   1  27
HETATM   27  O2  UNL     1      29.764 -11.097   1.264  1.00  0.00    -0.348 OA
ATOM     28  H2  UNL     1      29.341 -10.337   1.648  1.00  0.00     0.219 HD
ENDBRANCH   1  27
BRANCH   1  29
HETATM   29  N8  UNL     1      29.031 -10.396  -0.752  1.00  0.00    -0.363 N
HETATM   30  C14 UNL     1      29.025 -10.280  -2.198  1.00  0.00     0.131 C
HETATM   31  C15 UNL     1      27.766  -9.435  -2.493  1.00  0.00     0.033 C
HETATM   32  C16 UNL     1      28.126  -8.527  -3.578  1.00  0.00     0.090 C
HETATM   33  C29 UNL     1      27.313  -9.040  -1.184  1.00  0.00     0.019 C
HETATM   34  C22 UNL     1      26.949  -7.710  -4.148  1.00  0.00     0.030 C
HETATM   35  C23 UNL     1      26.530  -6.790  -3.071  1.00  0.00    -0.007 A
HETATM   36  C24 UNL     1      25.191  -6.388  -2.725  1.00  0.00     0.011 A
HETATM   37  C25 UNL     1      25.605  -7.652  -2.171  1.00  0.00    -0.002 A
HETATM   38  C26 UNL     1      26.402  -7.908  -0.947  1.00  0.00    -0.038 C
HETATM   39  C27 UNL     1      27.072  -6.670  -0.389  1.00  0.00     0.015 C
HETATM   40  C28 UNL     1      25.339  -8.246   0.131  1.00  0.00     0.015 C
HETATM   41  C30 UNL     1      28.539  -9.059  -0.274  1.00  0.00     0.130 C
BRANCH  32  42
HETATM   42  N9  UNL     1      29.291  -7.720  -3.431  1.00  0.00    -0.356 N
HETATM   43  C17 UNL     1      30.286  -7.667  -4.422  1.00  0.00     0.226 C
HETATM   44  O3  UNL     1      30.130  -8.357  -5.462  1.00  0.00    -0.273 OA
ATOM     45  H9  UNL     1      29.405  -7.165  -2.583  1.00  0.00     0.162 HD
BRANCH  43  46
HETATM   46  C18 UNL     1      31.521  -6.846  -4.327  1.00  0.00     0.205 C
BRANCH  46  47
HETATM   47  C19 UNL     1      32.727  -7.686  -4.177  1.00  0.00     0.227 C
HETATM   48  O4  UNL     1      33.497  -7.779  -5.161  1.00  0.00    -0.273 OA
HETATM   49  N10 UNL     1      33.054  -8.384  -2.995  1.00  0.00    -0.360 N
HETATM   50  C20 UNL     1      32.210  -8.333  -1.813  1.00  0.00     0.152 C
HETATM   51  C21 UNL     1      34.259  -9.183  -2.922  1.00  0.00     0.152 C
ENDBRANCH  46  47
ENDBRANCH  43  46
ENDBRANCH  32  42
ENDBRANCH   1  29
TORSDOF 13
ENDMDL