MODEL 1
REMARK VINA RESULT: -8.373612777      0.000      0.000
REMARK  13 active torsions:
REMARK  status: ('A' for Active; 'I' for Inactive)
REMARK    1  A    between atoms: C2_2  and  C4_4
REMARK    2  A    between atoms: C4_4  and  C5_5
REMARK    3  A    between atoms: C4_4  and  N9_40
REMARK    4  A    between atoms: C5_5  and  N1_6
REMARK    5  A    between atoms: N1_6  and  C6_8
REMARK    6  A    between atoms: C6_8  and  C14_20
REMARK       I    between atoms: N3_15  and  C13_17
REMARK    7  A    between atoms: C14_20  and  N5_22
REMARK    8  A    between atoms: N5_22  and  C16_24
REMARK    9  A    between atoms: C16_24  and  C17_28
REMARK   10  A    between atoms: C17_28  and  N7_29
REMARK       I    between atoms: N7_29  and  C18_31
REMARK   11  A    between atoms: C18_31  and  C19_33
REMARK   12  A    between atoms: C19_33  and  N8_35
REMARK       I    between atoms: N8_35  and  C21_37
REMARK       I    between atoms: N9_40  and  C23_42
REMARK   13  A    between atoms: C23_42  and  C24_44
ROOT
HETATM    1  C6  UNL     1      29.891  -8.166  -3.187  1.00  0.00     0.089 C
HETATM    2  C7  UNL     1      30.954  -8.971  -3.144  1.00  0.00     0.340 C
HETATM    3  N2  UNL     1      30.990 -10.358  -2.819  1.00  0.00    -0.018 N
HETATM    4  C8  UNL     1      30.763 -10.642  -1.428  1.00  0.00     0.281 C
HETATM    5  C9  UNL     1      30.169 -11.211  -3.617  1.00  0.00     0.281 C
HETATM    6  C10 UNL     1      32.357 -10.784  -3.113  1.00  0.00     0.274 C
HETATM    7  C11 UNL     1      33.172  -9.558  -2.894  1.00  0.00     0.285 C
HETATM    8  N3  UNL     1      32.270  -8.510  -3.399  1.00  0.00     0.065 N
HETATM    9  C12 UNL     1      32.641  -7.328  -2.637  1.00  0.00     0.294 C
HETATM   10  C13 UNL     1      32.611  -8.391  -4.761  1.00  0.00     0.434 C
HETATM   11  N4  UNL     1      33.561  -7.433  -5.167  1.00  0.00    -0.033 NA
HETATM   12  O1  UNL     1      32.079  -9.126  -5.607  1.00  0.00    -0.242 OA
ENDROOT
BRANCH   1  13
HETATM   13  N1  UNL     1      29.921  -6.779  -3.527  1.00  0.00    -0.386 N
ATOM     14  H1  UNL     1      30.042  -6.111  -2.765  1.00  0.00     0.159 HD
BRANCH  13  15
HETATM   15  C5  UNL     1      29.797  -6.257  -4.843  1.00  0.00     0.149 C
BRANCH  15  16
HETATM   16  C4  UNL     1      29.462  -4.838  -4.984  1.00  0.00     0.130 C
BRANCH  16  17
HETATM   17  C2  UNL     1      30.337  -3.940  -5.733  1.00  0.00    -0.069 C
HETATM   18  C1  UNL     1      31.425  -3.422  -5.141  1.00  0.00     0.016 C
HETATM   19  C3  UNL     1      30.124  -3.517  -7.148  1.00  0.00     0.044 C
ENDBRANCH  16  17
BRANCH  16  20
HETATM   20  N9  UNL     1      29.175  -4.132  -3.708  1.00  0.00    -0.347 N
HETATM   21  C23 UNL     1      27.845  -3.816  -3.358  1.00  0.00     0.253 C
HETATM   22  O4  UNL     1      26.910  -4.163  -4.190  1.00  0.00    -0.268 OA
ATOM     23  H9  UNL     1      29.941  -3.875  -3.085  1.00  0.00     0.163 HD
BRANCH  21  24
HETATM   24  C24 UNL     1      27.388  -3.139  -2.180  1.00  0.00     0.043 A
HETATM   25  C25 UNL     1      27.081  -3.773  -0.997  1.00  0.00    -0.045 A
HETATM   26  C26 UNL     1      27.076  -5.260  -0.828  1.00  0.00     0.049 C
HETATM   27  C27 UNL     1      26.702  -3.072   0.146  1.00  0.00     0.014 A
HETATM   28  C28 UNL     1      26.626  -1.700   0.106  1.00  0.00    -0.061 A
HETATM   29  C29 UNL     1      26.222  -0.907   1.310  1.00  0.00     0.048 C
HETATM   30  C30 UNL     1      26.930  -1.085  -1.070  1.00  0.00     0.014 A
HETATM   31  C31 UNL     1      27.309  -1.735  -2.221  1.00  0.00    -0.045 A
HETATM   32  C32 UNL     1      27.634  -0.951  -3.445  1.00  0.00     0.049 C
ENDBRANCH  21  24
ENDBRANCH  16  20
ENDBRANCH  15  16
ENDBRANCH  13  15
ENDBRANCH   1  13
BRANCH   1  33
HETATM   33  C14 UNL     1      28.517  -8.652  -2.870  1.00  0.00     0.132 C
HETATM   34  C15 UNL     1      27.433  -7.817  -3.561  1.00  0.00     0.039 C
BRANCH  33  35
HETATM   35  N5  UNL     1      28.233  -8.577  -1.453  1.00  0.00    -0.369 N
ATOM     36  H5  UNL     1      28.785  -7.910  -0.913  1.00  0.00     0.161 HD
BRANCH  35  37
HETATM   37  C16 UNL     1      27.276  -9.326  -0.736  1.00  0.00     0.089 C
HETATM   38  N6  UNL     1      26.568  -8.708   0.154  1.00  0.00    -0.388 N
ATOM     39  H62 UNL     1      26.727  -7.712   0.311  1.00  0.00     0.157 HD
ATOM     40  H61 UNL     1      25.876  -9.249   0.672  1.00  0.00     0.157 HD
BRANCH  37  41
HETATM   41  C17 UNL     1      27.045 -10.778  -0.966  1.00  0.00     0.198 C
BRANCH  41  42
HETATM   42  N7  UNL     1      27.596 -11.595   0.065  1.00  0.00    -0.352 N
HETATM   43  C18 UNL     1      28.225 -12.821  -0.261  1.00  0.00     0.240 C
HETATM   44  O2  UNL     1      28.294 -13.173  -1.471  1.00  0.00    -0.271 OA
ATOM     45  H7  UNL     1      27.538 -11.295   1.038  1.00  0.00     0.162 HD
BRANCH  43  46
HETATM   46  C19 UNL     1      28.808 -13.718   0.771  1.00  0.00     0.172 C
HETATM   47  C20 UNL     1      27.685 -14.529   1.448  1.00  0.00     0.042 C
BRANCH  46  48
HETATM   48  N8  UNL     1      29.664 -14.672   0.148  1.00  0.00    -0.349 N
HETATM   49  C21 UNL     1      31.074 -14.533   0.179  1.00  0.00     0.214 C
HETATM   50  C22 UNL     1      31.913 -15.573  -0.493  1.00  0.00     0.117 C
HETATM   51  O3  UNL     1      31.575 -13.536   0.774  1.00  0.00    -0.274 OA
ATOM     52  H8  UNL     1      29.252 -15.473  -0.331  1.00  0.00     0.163 HD
ENDBRANCH  46  48
ENDBRANCH  43  46
ENDBRANCH  41  42
ENDBRANCH  37  41
ENDBRANCH  35  37
ENDBRANCH  33  35
ENDBRANCH   1  33
TORSDOF 13
ENDMDL