MODEL 3
REMARK VINA RESULT: -9.036727291      0.918      1.760
REMARK  13 active torsions:
REMARK  status: ('A' for Active; 'I' for Inactive)
REMARK       I    between atoms: C2_4  and  N3_6
REMARK    1  A    between atoms: N3_6  and  C3_8
REMARK    2  A    between atoms: C3_8  and  C4_9
REMARK    3  A    between atoms: C4_9  and  C5_10
REMARK    4  A    between atoms: C5_10  and  C6_11
REMARK    5  A    between atoms: C6_11  and  C7_12
REMARK    6  A    between atoms: C7_12  and  C8_13
REMARK    7  A    between atoms: C14_23  and  O2_24
REMARK    8  A    between atoms: C15_26  and  C16_27
REMARK    9  A    between atoms: C16_27  and  N6_28
REMARK   10  A    between atoms: C17_30  and  C18_31
REMARK   11  A    between atoms: C17_30  and  N7_34
REMARK   12  A    between atoms: C26_43  and  C27_44
REMARK   13  A    between atoms: C27_44  and  C28_45
ROOT
HETATM    1  C8  UNL     1      29.152 -11.034  -1.391  1.00  0.00     0.176 C
HETATM    2  N4  UNL     1      27.777 -11.295  -1.651  1.00  0.00    -0.346 N
ATOM      3  H4  UNL     1      27.508 -12.278  -1.668  1.00  0.00     0.163 HD
HETATM    4  C9  UNL     1      26.735 -10.370  -1.890  1.00  0.00     0.241 C
HETATM    5  O1  UNL     1      26.018 -10.613  -2.933  1.00  0.00    -0.271 OA
HETATM    6  C10 UNL     1      26.361  -9.218  -1.151  1.00  0.00     0.178 C
HETATM    7  C11 UNL     1      27.243  -8.615  -0.127  1.00  0.00     0.037 C
HETATM    8  C12 UNL     1      26.314  -7.472   0.350  1.00  0.00     0.022 C
HETATM    9  C13 UNL     1      25.244  -7.363  -0.718  1.00  0.00     0.126 C
HETATM   10  N5  UNL     1      25.947  -8.017  -1.860  1.00  0.00    -0.347 N
HETATM   11  C14 UNL     1      26.147  -7.640  -3.190  1.00  0.00     0.163 C
HETATM   12  C15 UNL     1      27.357  -7.294  -3.943  1.00  0.00     0.081 C
HETATM   13  N8  UNL     1      28.150  -8.355  -4.474  1.00  0.00    -0.324 N
ATOM     14  H8  UNL     1      27.631  -9.061  -4.996  1.00  0.00     0.169 HD
HETATM   15  C25 UNL     1      29.533  -8.577  -4.391  1.00  0.00     0.244 C
HETATM   16  O3  UNL     1      30.206  -8.633  -5.450  1.00  0.00    -0.271 OA
HETATM   17  C26 UNL     1      30.341  -8.768  -3.141  1.00  0.00     0.177 C
HETATM   18  N9  UNL     1      30.748 -10.156  -3.149  1.00  0.00    -0.346 N
ATOM     19  H9  UNL     1      31.662 -10.384  -3.540  1.00  0.00     0.163 HD
HETATM   20  C31 UNL     1      29.971 -11.202  -2.654  1.00  0.00     0.241 C
HETATM   21  O4  UNL     1      29.889 -12.336  -3.196  1.00  0.00    -0.271 OA
ENDROOT
BRANCH   1  22
HETATM   22  C7  UNL     1      29.814 -11.914  -0.382  1.00  0.00     0.035 C
BRANCH  22  23
HETATM   23  C6  UNL     1      29.229 -11.968   0.958  1.00  0.00     0.002 C
BRANCH  23  24
HETATM   24  C5  UNL     1      28.368 -13.100   1.338  1.00  0.00     0.002 C
BRANCH  24  25
HETATM   25  C4  UNL     1      29.130 -14.272   1.943  1.00  0.00     0.020 C
BRANCH  25  26
HETATM   26  C3  UNL     1      28.232 -15.486   2.090  1.00  0.00     0.122 C
BRANCH  26  27
HETATM   27  N3  UNL     1      27.628 -15.520   3.402  1.00  0.00    -0.365 N
HETATM   28  C2  UNL     1      26.350 -16.124   3.526  1.00  0.00     0.183 C
HETATM   29  N1  UNL     1      25.240 -15.544   3.252  1.00  0.00    -0.369 N
HETATM   30  N2  UNL     1      26.295 -17.469   3.984  1.00  0.00    -0.064 NA
HETATM   31  C1  UNL     1      25.162 -14.174   2.776  1.00  0.00     0.148 C
ATOM     32  H1  UNL     1      24.373 -16.068   3.374  1.00  0.00     0.161 HD
ATOM     33  H3  UNL     1      28.103 -15.123   4.212  1.00  0.00     0.162 HD
ENDBRANCH  26  27
ENDBRANCH  25  26
ENDBRANCH  24  25
ENDBRANCH  23  24
ENDBRANCH  22  23
ENDBRANCH   1  22
BRANCH  17  34
HETATM   34  C27 UNL     1      31.564  -7.886  -3.142  1.00  0.00     0.038 C
BRANCH  34  35
HETATM   35  C28 UNL     1      32.836  -8.566  -3.490  1.00  0.00    -0.020 C
HETATM   36  C29 UNL     1      33.420  -8.078  -4.810  1.00  0.00     0.009 C
HETATM   37  C30 UNL     1      33.914  -8.567  -2.471  1.00  0.00     0.009 C
ENDBRANCH  34  35
ENDBRANCH  17  34
BRANCH  11  38
HETATM   38  O2  UNL     1      25.030  -7.597  -3.856  1.00  0.00    -0.345 OA
ATOM     39  H2  UNL     1      24.537  -6.806  -3.670  1.00  0.00     0.219 HD
ENDBRANCH  11  38
BRANCH  12  40
HETATM   40  C16 UNL     1      28.172  -6.177  -3.294  1.00  0.00     0.182 C
BRANCH  40  41
HETATM   41  N6  UNL     1      27.976  -4.925  -3.951  1.00  0.00    -0.374 N
HETATM   42  C17 UNL     1      27.530  -3.879  -3.357  1.00  0.00     0.078 C
ATOM     43  H6  UNL     1      28.203  -4.859  -4.943  1.00  0.00     0.161 HD
BRANCH  42  44
HETATM   44  C18 UNL     1      27.197  -3.967  -1.915  1.00  0.00     0.045 C
HETATM   45  C19 UNL     1      25.693  -3.981  -1.708  1.00  0.00     0.017 C
HETATM   46  C20 UNL     1      27.812  -2.846  -1.147  1.00  0.00     0.017 C
ENDBRANCH  42  44
BRANCH  42  47
HETATM   47  N7  UNL     1      27.359  -2.639  -4.016  1.00  0.00    -0.371 N
HETATM   48  C21 UNL     1      26.118  -1.982  -4.315  1.00  0.00     0.124 C
HETATM   49  C22 UNL     1      26.458  -0.519  -4.301  1.00  0.00     0.021 C
HETATM   50  C23 UNL     1      27.960  -0.422  -4.131  1.00  0.00     0.021 C
HETATM   51  C24 UNL     1      28.426  -1.810  -4.512  1.00  0.00     0.124 C
ENDBRANCH  42  47
ENDBRANCH  40  41
ENDBRANCH  12  40
TORSDOF 13
ENDMDL