MODEL 4
REMARK VINA RESULT: -8.686468454      2.762      3.924
REMARK  14 active torsions:
REMARK  status: ('A' for Active; 'I' for Inactive)
REMARK    1  A    between atoms: C2_2  and  C3_3
REMARK    2  A    between atoms: C3_3  and  N1_4
REMARK       I    between atoms: N1_4  and  C4_6
REMARK    3  A    between atoms: C4_6  and  C5_8
REMARK       I    between atoms: N2_11  and  C8_12
REMARK    4  A    between atoms: C8_12  and  C9_14
REMARK    5  A    between atoms: C9_14  and  N3_16
REMARK       I    between atoms: N3_16  and  C11_18
REMARK    6  A    between atoms: C11_18  and  C12_20
REMARK    7  A    between atoms: N4_26  and  C18_27
REMARK    8  A    between atoms: C18_27  and  O4_28
REMARK    9  A    between atoms: C18_27  and  N5_30
REMARK   10  A    between atoms: N5_30  and  C19_32
REMARK   11  A    between atoms: C19_32  and  C20_33
REMARK   12  A    between atoms: C23_36  and  C24_37
REMARK       I    between atoms: C24_37  and  N6_39
REMARK   13  A    between atoms: N6_39  and  C25_41
REMARK   14  A    between atoms: C25_41  and  C26_42
REMARK       I    between atoms: N7_45  and  C29_46
ROOT
HETATM    1  C5  UNL     1      28.431 -16.226   4.170  1.00  0.00     0.111 C
HETATM    2  C6  UNL     1      28.532 -15.037   3.220  1.00  0.00     0.036 C
HETATM    3  C7  UNL     1      28.756 -15.786   1.900  1.00  0.00     0.128 C
HETATM    4  N2  UNL     1      29.834 -16.706   2.387  1.00  0.00    -0.336 N
HETATM    5  C8  UNL     1      31.047 -16.757   1.669  1.00  0.00     0.243 C
HETATM    6  O2  UNL     1      31.991 -17.473   2.049  1.00  0.00    -0.271 OA
HETATM    7  C23 UNL     1      29.274 -17.341   3.516  1.00  0.00     0.192 C
ENDROOT
BRANCH   5   8
HETATM    8  C9  UNL     1      31.281 -15.981   0.431  1.00  0.00     0.172 C
HETATM    9  C10 UNL     1      32.779 -16.034   0.067  1.00  0.00     0.042 C
BRANCH   8  10
HETATM   10  N3  UNL     1      30.917 -14.586   0.565  1.00  0.00    -0.346 N
HETATM   11  C11 UNL     1      30.056 -13.986  -0.363  1.00  0.00     0.241 C
HETATM   12  O3  UNL     1      29.606 -14.660  -1.316  1.00  0.00    -0.271 OA
ATOM     13  H3  UNL     1      31.288 -14.038   1.340  1.00  0.00     0.163 HD
BRANCH  11  14
HETATM   14  C12 UNL     1      29.653 -12.567  -0.266  1.00  0.00     0.180 C
HETATM   15  C13 UNL     1      30.514 -11.721   0.605  1.00  0.00     0.035 C
HETATM   16  C14 UNL     1      30.345 -10.257   0.191  1.00  0.00     0.004 C
HETATM   17  C15 UNL     1      31.080 -10.056  -1.132  1.00  0.00     0.025 C
HETATM   18  C16 UNL     1      30.880 -11.332  -1.971  1.00  0.00     0.084 C
HETATM   19  C17 UNL     1      31.241 -11.057  -3.361  1.00  0.00     0.032 C
HETATM   20  N4  UNL     1      29.628 -11.929  -1.632  1.00  0.00    -0.330 N
BRANCH  20  21
HETATM   21  C18 UNL     1      28.456 -11.946  -2.377  1.00  0.00     0.216 C
BRANCH  21  22
HETATM   22  O4  UNL     1      28.375 -12.937  -3.224  1.00  0.00    -0.333 OA
ATOM     23  H4  UNL     1      29.178 -13.436  -3.316  1.00  0.00     0.220 HD
ENDBRANCH  21  22
BRANCH  21  24
HETATM   24  N5  UNL     1      27.346 -11.102  -2.388  1.00  0.00    -0.356 N
ATOM     25  H5  UNL     1      26.422 -11.515  -2.259  1.00  0.00     0.163 HD
BRANCH  24  26
HETATM   26  C19 UNL     1      27.440  -9.644  -2.579  1.00  0.00     0.128 C
BRANCH  26  27
HETATM   27  C20 UNL     1      26.054  -9.068  -2.438  1.00  0.00     0.003 A
HETATM   28  C21 UNL     1      25.571  -8.070  -3.435  1.00  0.00     0.007 A
HETATM   29  C22 UNL     1      26.030  -7.576  -2.068  1.00  0.00     0.007 A
ENDBRANCH  26  27
ENDBRANCH  24  26
ENDBRANCH  21  24
ENDBRANCH  20  21
ENDBRANCH  11  14
ENDBRANCH   8  10
ENDBRANCH   5   8
BRANCH   7  30
HETATM   30  C24 UNL     1      30.145 -17.888   4.550  1.00  0.00     0.241 C
HETATM   31  O5  UNL     1      31.405 -18.041   4.465  1.00  0.00    -0.271 OA
HETATM   32  N6  UNL     1      29.541 -18.301   5.793  1.00  0.00    -0.359 N
ATOM     33  H6  UNL     1      28.534 -18.182   5.903  1.00  0.00     0.162 HD
BRANCH  32  34
HETATM   34  C25 UNL     1      30.279 -18.871   6.886  1.00  0.00     0.127 C
BRANCH  34  35
HETATM   35  C26 UNL     1      29.799 -18.363   8.228  1.00  0.00     0.006 C
HETATM   36  C27 UNL     1      30.345 -19.222   9.357  1.00  0.00     0.026 C
HETATM   37  C28 UNL     1      29.862 -20.651   9.229  1.00  0.00     0.126 C
HETATM   38  N7  UNL     1      28.487 -20.795   8.907  1.00  0.00    -0.356 N
HETATM   39  C29 UNL     1      27.719 -21.881   9.469  1.00  0.00     0.183 C
HETATM   40  C30 UNL     1      27.818 -19.887   8.016  1.00  0.00     0.126 C
HETATM   41  N8  UNL     1      27.768 -22.134  10.731  1.00  0.00    -0.374 N
HETATM   42  N9  UNL     1      26.908 -22.678   8.641  1.00  0.00    -0.064 NA
ATOM     43  H82 UNL     1      28.356 -21.556  11.332  1.00  0.00     0.158 HD
ATOM     44  H81 UNL     1      27.226 -22.901  11.128  1.00  0.00     0.158 HD
HETATM   45  C31 UNL     1      28.297 -18.488   8.265  1.00  0.00     0.026 C
ENDBRANCH  34  35
ENDBRANCH  32  34
ENDBRANCH   7  30
BRANCH   1  46
HETATM   46  C4  UNL     1      27.020 -16.622   4.326  1.00  0.00     0.224 C
HETATM   47  N1  UNL     1      26.044 -15.639   4.589  1.00  0.00    -0.357 N
ATOM     48  H1  UNL     1      26.352 -14.670   4.664  1.00  0.00     0.162 HD
HETATM   49  O1  UNL     1      26.643 -17.818   4.231  1.00  0.00    -0.273 OA
BRANCH  47  50
HETATM   50  C3  UNL     1      24.628 -15.918   4.758  1.00  0.00     0.149 C
BRANCH  50  51
HETATM   51  C2  UNL     1      23.840 -15.418   3.609  1.00  0.00    -0.018 C
HETATM   52  C1  UNL     1      24.395 -14.574   2.762  1.00  0.00     0.008 C
ENDBRANCH  50  51
ENDBRANCH  47  50
ENDBRANCH   1  46
TORSDOF 14
ENDMDL