MODEL 2
REMARK VINA RESULT: -4.831957900      2.175      7.493
REMARK  13 active torsions:
REMARK  status: ('A' for Active; 'I' for Inactive)
REMARK    1  A    between atoms: C2_2  and  C3_3
REMARK    2  A    between atoms: C3_3  and  C4_4
REMARK    3  A    between atoms: C4_4  and  C5_5
REMARK    4  A    between atoms: C5_5  and  C6_6
REMARK    5  A    between atoms: C6_6  and  C7_7
REMARK    6  A    between atoms: C8_8  and  O1_9
REMARK    7  A    between atoms: C9_13  and  C10_14
REMARK    8  A    between atoms: C19_28  and  C20_29
REMARK    9  A    between atoms: C20_29  and  C21_30
REMARK   10  A    between atoms: C21_30  and  C22_31
REMARK   11  A    between atoms: C22_31  and  N4_32
REMARK   12  A    between atoms: C28_43  and  O5_44
REMARK   13  A    between atoms: C29_48  and  C30_49
ROOT
HETATM    1  C7  UNL     1      30.402  -3.647  -4.513  1.00  0.00     0.110 C
HETATM    2  C8  UNL     1      29.120  -4.373  -4.474  1.00  0.00     0.126 C
HETATM    3  N1  UNL     1      28.224  -4.774  -3.522  1.00  0.00    -0.339 N
ATOM      4  H1  UNL     1      28.190  -5.793  -3.546  1.00  0.00     0.167 HD
HETATM    5  C9  UNL     1      27.321  -4.341  -2.511  1.00  0.00     0.083 C
HETATM    6  C13 UNL     1      27.535  -3.104  -1.816  1.00  0.00     0.267 C
HETATM    7  O2  UNL     1      28.777  -2.785  -1.697  1.00  0.00    -0.266 OA
HETATM    8  N2  UNL     1      26.736  -2.141  -1.220  1.00  0.00    -0.334 N
HETATM    9  C14 UNL     1      27.007  -1.179  -0.095  1.00  0.00     0.127 C
HETATM   10  C15 UNL     1      25.838  -1.525   0.793  1.00  0.00     0.022 C
HETATM   11  C16 UNL     1      24.783  -2.140  -0.102  1.00  0.00     0.037 C
HETATM   12  C17 UNL     1      25.369  -1.751  -1.483  1.00  0.00     0.179 C
HETATM   13  C18 UNL     1      25.184  -0.255  -1.555  1.00  0.00     0.241 C
HETATM   14  O3  UNL     1      24.517   0.343  -0.634  1.00  0.00    -0.271 OA
HETATM   15  N3  UNL     1      25.678   0.583  -2.553  1.00  0.00    -0.346 N
ATOM     16  H3  UNL     1      26.090   1.468  -2.254  1.00  0.00     0.163 HD
HETATM   17  C19 UNL     1      25.656   0.306  -3.998  1.00  0.00     0.177 C
HETATM   18  C24 UNL     1      26.948   0.654  -4.625  1.00  0.00     0.246 C
HETATM   19  O4  UNL     1      27.661   1.415  -3.858  1.00  0.00    -0.271 OA
HETATM   20  N7  UNL     1      27.498   0.315  -5.849  1.00  0.00    -0.321 N
HETATM   21  C25 UNL     1      28.239   1.350  -6.567  1.00  0.00     0.159 C
HETATM   22  C26 UNL     1      27.462  -0.935  -6.567  1.00  0.00     0.061 C
HETATM   23  C27 UNL     1      26.541  -1.974  -6.013  1.00  0.00     0.073 C
HETATM   24  C28 UNL     1      28.784  -1.424  -7.018  1.00  0.00     0.163 C
HETATM   25  N8  UNL     1      29.685  -2.411  -6.617  1.00  0.00    -0.338 N
ATOM     26  H8  UNL     1      29.650  -3.204  -7.258  1.00  0.00     0.168 HD
HETATM   27  C29 UNL     1      30.631  -2.648  -5.591  1.00  0.00     0.025 C
ENDROOT
BRANCH  17  28
HETATM   28  C20 UNL     1      24.600   1.220  -4.661  1.00  0.00     0.036 C
BRANCH  28  29
HETATM   29  C21 UNL     1      23.720   0.459  -5.603  1.00  0.00     0.022 C
BRANCH  29  30
HETATM   30  C22 UNL     1      22.700  -0.290  -4.783  1.00  0.00     0.122 C
BRANCH  30  31
HETATM   31  N4  UNL     1      22.009  -1.313  -5.506  1.00  0.00    -0.367 N
HETATM   32  C23 UNL     1      22.280  -2.575  -5.410  1.00  0.00     0.196 C
HETATM   33  N5  UNL     1      23.298  -3.070  -4.570  1.00  0.00    -0.067 NA
HETATM   34  N6  UNL     1      21.543  -3.535  -6.166  1.00  0.00    -0.067 NA
ATOM     35  H4  UNL     1      21.256  -1.031  -6.134  1.00  0.00     0.161 HD
ENDBRANCH  30  31
ENDBRANCH  29  30
ENDBRANCH  28  29
ENDBRANCH  17  28
BRANCH  24  36
HETATM   36  O5  UNL     1      29.169  -0.726  -8.063  1.00  0.00    -0.345 OA
ATOM     37  H5  UNL     1      29.659  -1.289  -8.651  1.00  0.00     0.219 HD
ENDBRANCH  24  36
BRANCH   5  38
HETATM   38  C10 UNL     1      25.870  -4.608  -2.953  1.00  0.00     0.041 A
HETATM   39  C11 UNL     1      25.561  -6.086  -2.981  1.00  0.00     0.011 A
HETATM   40  C12 UNL     1      24.871  -5.187  -2.061  1.00  0.00     0.011 A
ENDBRANCH   5  38
BRANCH  27  41
HETATM   41  C30 UNL     1      31.334  -1.418  -5.024  1.00  0.00    -0.064 C
HETATM   42  C31 UNL     1      30.589  -0.629  -4.036  1.00  0.00     0.045 C
HETATM   43  C32 UNL     1      32.050  -0.644  -6.102  1.00  0.00     0.045 C
ENDBRANCH  27  41
BRANCH   1  44
HETATM   44  C6  UNL     1      31.423  -4.829  -4.593  1.00  0.00     0.019 C
BRANCH  44  45
HETATM   45  C5  UNL     1      31.086  -6.021  -3.844  1.00  0.00     0.001 C
BRANCH  45  46
HETATM   46  C4  UNL     1      32.255  -7.012  -4.012  1.00  0.00     0.004 C
BRANCH  46  47
HETATM   47  C3  UNL     1      32.624  -7.642  -2.706  1.00  0.00     0.026 C
BRANCH  47  48
HETATM   48  C2  UNL     1      33.379  -8.886  -2.933  1.00  0.00    -0.037 C
HETATM   49  C1  UNL     1      32.742  -9.989  -3.307  1.00  0.00     0.007 C
ENDBRANCH  47  48
ENDBRANCH  46  47
ENDBRANCH  45  46
ENDBRANCH  44  45
ENDBRANCH   1  44
BRANCH   2  50
HETATM   50  O1  UNL     1      28.833  -4.690  -5.722  1.00  0.00    -0.349 OA
ATOM     51  H1  UNL     1      28.520  -5.587  -5.706  1.00  0.00     0.219 HD
ENDBRANCH   2  50
TORSDOF 13
ENDMDL