MODEL 1
REMARK VINA RESULT: -8.566873646      0.000      0.000
REMARK  16 active torsions:
REMARK  status: ('A' for Active; 'I' for Inactive)
REMARK       I    between atoms: N1_2  and  C2_4
REMARK    1  A    between atoms: C2_4  and  C3_6
REMARK    2  A    between atoms: C3_6  and  N2_7
REMARK    3  A    between atoms: C3_6  and  C26_47
REMARK    4  A    between atoms: N2_7  and  C4_9
REMARK    5  A    between atoms: C4_9  and  C5_10
REMARK    6  A    between atoms: C4_9  and  C13_22
REMARK    7  A    between atoms: C5_10  and  N3_11
REMARK    8  A    between atoms: C8_14  and  N4_15
REMARK       I    between atoms: N4_15  and  C9_17
REMARK    9  A    between atoms: C13_22  and  N5_23
REMARK   10  A    between atoms: C13_22  and  N9_38
REMARK   11  A    between atoms: N5_23  and  C14_24
REMARK   12  A    between atoms: C14_24  and  N6_26
REMARK       I    between atoms: C15_28  and  N8_30
REMARK   13  A    between atoms: N8_30  and  C16_32
REMARK   14  A    between atoms: N9_38  and  C22_40
REMARK   15  A    between atoms: C22_40  and  C24_42
REMARK       I    between atoms: C24_42  and  N10_44
REMARK   16  A    between atoms: C26_47  and  C28_49
ROOT
HETATM    1  C4  UNL     1      29.445  -9.005  -2.999  1.00  0.00     0.199 C
ENDROOT
BRANCH   1   2
HETATM    2  N2  UNL     1      30.487  -9.087  -3.959  1.00  0.00    -0.393 N
ATOM      3  H2  UNL     1      30.533  -9.849  -4.635  1.00  0.00     0.155 HD
BRANCH   2   4
HETATM    4  C3  UNL     1      31.481  -8.036  -3.931  1.00  0.00     0.174 C
BRANCH   4   5
HETATM    5  C2  UNL     1      31.254  -7.087  -5.078  1.00  0.00     0.243 C
HETATM    6  N1  UNL     1      31.489  -5.666  -4.922  1.00  0.00    -0.345 N
HETATM    7  C1  UNL     1      30.769  -4.858  -5.608  1.00  0.00     0.121 C
ATOM      8  H1  UNL     1      32.206  -5.319  -4.285  1.00  0.00     0.167 HD
HETATM    9  O1  UNL     1      30.859  -7.430  -6.206  1.00  0.00    -0.271 OA
ENDBRANCH   4   5
BRANCH   4  10
HETATM   10  C26 UNL     1      32.833  -8.693  -4.100  1.00  0.00     0.013 C
HETATM   11  C27 UNL     1      32.780 -10.039  -4.709  1.00  0.00     0.012 C
BRANCH  10  12
HETATM   12  C28 UNL     1      33.632  -8.660  -2.815  1.00  0.00     0.002 C
HETATM   13  C29 UNL     1      33.074  -7.606  -1.874  1.00  0.00     0.005 C
ENDBRANCH  10  12
ENDBRANCH   4  10
ENDBRANCH   2   4
ENDBRANCH   1   2
BRANCH   1  14
HETATM   14  C5  UNL     1      28.177  -8.553  -3.667  1.00  0.00     0.091 C
BRANCH  14  15
HETATM   15  N3  UNL     1      27.624  -7.318  -3.375  1.00  0.00    -0.391 N
HETATM   16  C6  UNL     1      27.748  -6.239  -4.288  1.00  0.00     0.124 C
HETATM   17  C7  UNL     1      27.844  -4.947  -3.486  1.00  0.00     0.045 C
HETATM   18  C8  UNL     1      26.704  -4.767  -2.562  1.00  0.00     0.087 C
HETATM   19  C11 UNL     1      25.759  -5.981  -2.604  1.00  0.00     0.045 C
HETATM   20  C12 UNL     1      26.541  -7.254  -2.452  1.00  0.00     0.124 C
BRANCH  18  21
HETATM   21  N4  UNL     1      27.109  -4.609  -1.176  1.00  0.00    -0.357 N
HETATM   22  C9  UNL     1      27.335  -3.360  -0.552  1.00  0.00     0.213 C
HETATM   23  C10 UNL     1      27.749  -3.339   0.887  1.00  0.00     0.117 C
HETATM   24  O2  UNL     1      27.196  -2.301  -1.182  1.00  0.00    -0.274 OA
ATOM     25  H4  UNL     1      27.239  -5.453  -0.617  1.00  0.00     0.162 HD
ENDBRANCH  18  21
ENDBRANCH  14  15
ENDBRANCH   1  14
BRANCH   1  26
HETATM   26  C13 UNL     1      29.094 -10.350  -2.402  1.00  0.00     0.183 C
BRANCH  26  27
HETATM   27  N5  UNL     1      28.180 -10.720  -1.734  1.00  0.00    -0.360 NA
BRANCH  27  28
HETATM   28  C14 UNL     1      27.181 -11.121  -0.994  1.00  0.00     0.253 C
HETATM   29  S1  UNL     1      25.924 -10.209  -0.467  1.00  0.00    -0.025 SA
BRANCH  28  30
HETATM   30  N6  UNL     1      27.083 -12.508  -0.545  1.00  0.00    -0.296 N
HETATM   31  C15 UNL     1      27.813 -12.828   0.492  1.00  0.00     0.191 C
HETATM   32  N7  UNL     1      28.650 -11.895   1.147  1.00  0.00    -0.063 NA
HETATM   33  N8  UNL     1      27.742 -14.171   0.983  1.00  0.00    -0.360 N
ATOM     34  H8  UNL     1      28.152 -14.960   0.483  1.00  0.00     0.162 HD
ATOM     35  H6  UNL     1      26.481 -13.186  -1.012  1.00  0.00     0.172 HD
BRANCH  33  36
HETATM   36  C16 UNL     1      27.036 -14.324   2.255  1.00  0.00     0.084 C
HETATM   37  C17 UNL     1      27.248 -15.687   2.842  1.00  0.00     0.025 C
HETATM   38  C18 UNL     1      25.975 -16.292   3.395  1.00  0.00     0.002 C
HETATM   39  C19 UNL     1      25.143 -15.318   4.159  1.00  0.00     0.000 C
HETATM   40  C20 UNL     1      24.960 -14.002   3.478  1.00  0.00     0.002 C
HETATM   41  C21 UNL     1      25.526 -14.140   2.074  1.00  0.00     0.025 C
ENDBRANCH  33  36
ENDBRANCH  28  30
ENDBRANCH  27  28
ENDBRANCH  26  27
BRANCH  26  42
HETATM   42  N9  UNL     1      30.144 -11.346  -2.694  1.00  0.00    -0.354 N
ATOM     43  H9  UNL     1      30.174 -11.808  -3.604  1.00  0.00     0.162 HD
BRANCH  42  44
HETATM   44  C22 UNL     1      31.118 -11.661  -1.700  1.00  0.00     0.172 C
HETATM   45  C23 UNL     1      31.130 -10.492  -0.719  1.00  0.00     0.042 C
BRANCH  44  46
HETATM   46  C24 UNL     1      30.839 -12.947  -0.999  1.00  0.00     0.239 C
HETATM   47  O3  UNL     1      29.985 -13.726  -1.459  1.00  0.00    -0.271 OA
HETATM   48  N10 UNL     1      31.560 -13.288   0.206  1.00  0.00    -0.364 N
HETATM   49  C25 UNL     1      31.265 -14.538   0.849  1.00  0.00     0.149 C
ATOM     50  H10 UNL     1      32.263 -12.656   0.591  1.00  0.00     0.161 HD
ENDBRANCH  44  46
ENDBRANCH  42  44
ENDBRANCH  26  42
ENDBRANCH   1  26
TORSDOF 16
ENDMDL