MODEL 2
REMARK VINA RESULT: -6.232723797      1.266      1.601
REMARK  15 active torsions:
REMARK  status: ('A' for Active; 'I' for Inactive)
REMARK    1  A    between atoms: C3_3  and  C4_4
REMARK    2  A    between atoms: C5_5  and  C6_6
REMARK    3  A    between atoms: C6_6  and  N1_7
REMARK    4  A    between atoms: C9_13  and  C10_14
REMARK    5  A    between atoms: C10_14  and  C11_15
REMARK    6  A    between atoms: C14_18  and  O2_19
REMARK    7  A    between atoms: C19_26  and  O3_27
REMARK    8  A    between atoms: C20_31  and  C21_32
REMARK    9  A    between atoms: C21_32  and  C22_33
REMARK   10  A    between atoms: C25_36  and  O4_37
REMARK   11  A    between atoms: C26_41  and  C27_42
REMARK   12  A    between atoms: C27_42  and  C28_43
REMARK   13  A    between atoms: C28_43  and  C29_44
REMARK   14  A    between atoms: C29_44  and  C30_45
REMARK   15  A    between atoms: C30_45  and  N6_46
REMARK       I    between atoms: N6_46  and  C31_48
ROOT
HETATM    1  C1  UNL     1      31.096 -11.779   0.269  1.00  0.00     0.113 C
HETATM    2  C2  UNL     1      30.793 -10.836  -0.812  1.00  0.00    -0.097 C
HETATM    3  C3  UNL     1      30.523 -10.058  -1.703  1.00  0.00    -0.015 C
ENDROOT
BRANCH   3   4
HETATM    4  C4  UNL     1      30.182  -9.156  -2.739  1.00  0.00    -0.013 C
HETATM    5  C5  UNL     1      29.869  -8.376  -3.624  1.00  0.00    -0.073 C
BRANCH   5   6
HETATM    6  C6  UNL     1      29.466  -7.449  -4.691  1.00  0.00     0.221 C
BRANCH   6   7
HETATM    7  N1  UNL     1      28.684  -6.389  -4.062  1.00  0.00    -0.328 N
HETATM    8  C7  UNL     1      29.397  -5.217  -3.565  1.00  0.00     0.230 C
HETATM    9  C8  UNL     1      30.339  -4.641  -4.516  1.00  0.00     0.240 C
HETATM   10  O1  UNL     1      31.528  -5.144  -4.458  1.00  0.00    -0.271 OA
HETATM   11  N2  UNL     1      30.166  -3.631  -5.485  1.00  0.00    -0.322 N
HETATM   12  C9  UNL     1      29.681  -2.273  -5.308  1.00  0.00     0.082 C
ATOM     13  H2  UNL     1      30.415  -3.888  -6.440  1.00  0.00     0.169 HD
HETATM   14  C14 UNL     1      28.239  -2.147  -5.141  1.00  0.00     0.166 C
HETATM   15  N3  UNL     1      27.348  -1.175  -4.727  1.00  0.00    -0.348 N
HETATM   16  C15 UNL     1      26.216  -0.620  -5.519  1.00  0.00     0.126 C
HETATM   17  C18 UNL     1      27.275  -0.471  -3.477  1.00  0.00     0.160 C
HETATM   18  C16 UNL     1      25.464   0.301  -4.682  1.00  0.00     0.022 C
HETATM   19  C17 UNL     1      26.400   0.719  -3.620  1.00  0.00     0.035 C
HETATM   20  C19 UNL     1      27.008  -1.253  -2.249  1.00  0.00     0.135 C
HETATM   21  N4  UNL     1      26.508  -2.480  -1.943  1.00  0.00    -0.361 N
HETATM   22  C20 UNL     1      25.239  -3.153  -1.831  1.00  0.00     0.158 C
ATOM     23  H4  UNL     1      27.268  -3.125  -1.725  1.00  0.00     0.162 HD
HETATM   24  C25 UNL     1      25.079  -4.109  -2.918  1.00  0.00     0.139 C
HETATM   25  N5  UNL     1      25.294  -5.482  -3.039  1.00  0.00    -0.338 N
HETATM   26  C26 UNL     1      26.387  -6.342  -2.803  1.00  0.00     0.079 C
ATOM     27  H5  UNL     1      24.470  -5.979  -3.375  1.00  0.00     0.167 HD
HETATM   28  C32 UNL     1      27.290  -6.553  -3.979  1.00  0.00     0.267 C
HETATM   29  O5  UNL     1      26.688  -6.937  -5.047  1.00  0.00    -0.266 OA
BRANCH  12  30
HETATM   30  C10 UNL     1      30.665  -1.326  -4.794  1.00  0.00     0.011 C
BRANCH  30  31
HETATM   31  C11 UNL     1      30.780   0.056  -5.256  1.00  0.00     0.002 C
HETATM   32  C12 UNL     1      31.918   0.568  -6.000  1.00  0.00     0.013 C
HETATM   33  C13 UNL     1      30.701   0.919  -3.966  1.00  0.00     0.013 C
ENDBRANCH  30  31
ENDBRANCH  12  30
BRANCH  14  34
HETATM   34  O2  UNL     1      27.652  -3.267  -5.486  1.00  0.00    -0.344 OA
ATOM     35  H2  UNL     1      27.066  -3.112  -6.218  1.00  0.00     0.219 HD
ENDBRANCH  14  34
BRANCH  20  36
HETATM   36  O3  UNL     1      27.369  -0.527  -1.214  1.00  0.00    -0.348 OA
ATOM     37  H3  UNL     1      26.731  -0.658  -0.522  1.00  0.00     0.219 HD
ENDBRANCH  20  36
BRANCH  22  38
HETATM   38  C21 UNL     1      24.050  -2.249  -1.631  1.00  0.00     0.037 C
BRANCH  38  39
HETATM   39  C22 UNL     1      23.588  -2.090  -0.235  1.00  0.00    -0.020 C
HETATM   40  C23 UNL     1      22.281  -1.279  -0.324  1.00  0.00     0.009 C
HETATM   41  C24 UNL     1      24.519  -1.274   0.628  1.00  0.00     0.009 C
ENDBRANCH  38  39
ENDBRANCH  22  38
BRANCH  24  42
HETATM   42  O4  UNL     1      24.633  -3.520  -3.998  1.00  0.00    -0.348 OA
ATOM     43  H4  UNL     1      24.696  -4.096  -4.751  1.00  0.00     0.219 HD
ENDBRANCH  24  42
BRANCH  26  44
HETATM   44  C27 UNL     1      27.072  -6.329  -1.489  1.00  0.00     0.063 C
BRANCH  44  45
HETATM   45  C28 UNL     1      27.355  -7.722  -0.958  1.00  0.00     0.008 C
BRANCH  45  46
HETATM   46  C29 UNL     1      26.041  -8.375  -0.606  1.00  0.00     0.020 C
BRANCH  46  47
HETATM   47  C30 UNL     1      25.653  -9.442  -1.612  1.00  0.00     0.122 C
BRANCH  47  48
HETATM   48  N6  UNL     1      26.796 -10.047  -2.250  1.00  0.00    -0.365 N
HETATM   49  C31 UNL     1      27.288 -11.326  -1.910  1.00  0.00     0.181 C
HETATM   50  N7  UNL     1      27.055 -11.848  -0.776  1.00  0.00    -0.374 N
HETATM   51  N8  UNL     1      28.064 -12.045  -2.871  1.00  0.00    -0.064 NA
ATOM     52  H72 UNL     1      26.501 -11.335  -0.090  1.00  0.00     0.158 HD
ATOM     53  H71 UNL     1      27.411 -12.772  -0.530  1.00  0.00     0.158 HD
ATOM     54  H6  UNL     1      27.273  -9.523  -2.984  1.00  0.00     0.162 HD
ENDBRANCH  47  48
ENDBRANCH  46  47
ENDBRANCH  45  46
ENDBRANCH  44  45
ENDBRANCH  26  44
ENDBRANCH   6   7
ENDBRANCH   5   6
ENDBRANCH   3   4
TORSDOF 15
ENDMDL