MODEL 3
REMARK VINA RESULT: -4.207005264      1.068      1.874
REMARK  12 active torsions:
REMARK  status: ('A' for Active; 'I' for Inactive)
REMARK    1  A    between atoms: C2_2  and  C3_3
REMARK       I    between atoms: N1_5  and  C5_6
REMARK    2  A    between atoms: C9_14  and  C10_15
REMARK    3  A    between atoms: C10_15  and  N4_16
REMARK    4  A    between atoms: C17_26  and  N6_27
REMARK    5  A    between atoms: N6_27  and  C18_28
REMARK    6  A    between atoms: C18_28  and  C19_29
REMARK    7  A    between atoms: C19_29  and  O2_30
REMARK    8  A    between atoms: C26_41  and  C27_42
REMARK    9  A    between atoms: C27_42  and  C28_43
REMARK   10  A    between atoms: C28_43  and  C29_44
REMARK   11  A    between atoms: C29_44  and  C30_45
REMARK   12  A    between atoms: C30_45  and  N8_46
ROOT
HETATM    1  C3  UNL     1      25.883  -0.607   0.674  1.00  0.00     0.128 C
HETATM    2  C4  UNL     1      25.024  -1.195   1.778  1.00  0.00     0.155 C
HETATM    3  N1  UNL     1      23.657  -1.019   1.393  1.00  0.00    -0.352 N
HETATM    4  C5  UNL     1      22.681  -1.110   2.422  1.00  0.00     0.184 C
HETATM    5  N2  UNL     1      22.953  -0.644   3.587  1.00  0.00    -0.374 N
ATOM      6  H21 UNL     1      22.253  -0.710   4.325  1.00  0.00     0.158 HD
ATOM      7  H22 UNL     1      23.869  -0.220   3.736  1.00  0.00     0.158 HD
HETATM    8  N3  UNL     1      21.410  -1.698   2.215  1.00  0.00    -0.064 NA
HETATM    9  C6  UNL     1      23.190  -0.755   0.050  1.00  0.00     0.150 C
HETATM   10  C7  UNL     1      24.149  -1.100  -1.039  1.00  0.00     0.107 C
HETATM   11  C8  UNL     1      24.138   0.029  -2.045  1.00  0.00     0.042 C
HETATM   12  C9  UNL     1      23.413  -0.318  -3.335  1.00  0.00     0.106 C
HETATM   13  C14 UNL     1      23.993   0.548  -4.389  1.00  0.00     0.223 C
HETATM   14  O1  UNL     1      23.877   1.787  -4.220  1.00  0.00    -0.273 OA
HETATM   15  N5  UNL     1      24.656   0.108  -5.553  1.00  0.00    -0.361 N
ATOM     16  H5  UNL     1      24.746   0.785  -6.311  1.00  0.00     0.162 HD
HETATM   17  C15 UNL     1      25.216  -1.189  -5.780  1.00  0.00     0.125 C
HETATM   18  C16 UNL     1      26.736  -1.055  -6.002  1.00  0.00     0.063 C
HETATM   19  C17 UNL     1      27.439  -1.163  -4.700  1.00  0.00     0.283 C
HETATM   20  C25 UNL     1      27.523  -2.639  -4.421  1.00  0.00     0.249 C
HETATM   21  O3  UNL     1      27.784  -3.402  -5.426  1.00  0.00    -0.271 OA
HETATM   22  N7  UNL     1      27.341  -3.234  -3.169  1.00  0.00    -0.346 N
ATOM     23  H7  UNL     1      28.091  -3.849  -2.853  1.00  0.00     0.163 HD
HETATM   24  C26 UNL     1      26.221  -3.084  -2.267  1.00  0.00     0.176 C
HETATM   25  C31 UNL     1      26.481  -2.093  -1.194  1.00  0.00     0.243 C
HETATM   26  O4  UNL     1      27.678  -1.958  -0.820  1.00  0.00    -0.271 OA
HETATM   27  N9  UNL     1      25.496  -1.296  -0.569  1.00  0.00    -0.334 N
ENDROOT
BRANCH  19  28
HETATM   28  N6  UNL     1      28.663  -0.433  -4.516  1.00  0.00    -0.052 N
HETATM   29  C20 UNL     1      28.556   0.790  -5.342  1.00  0.00     0.238 C
HETATM   30  C21 UNL     1      29.762   1.689  -5.169  1.00  0.00     0.028 C
HETATM   31  C22 UNL     1      29.631   2.346  -3.824  1.00  0.00     0.003 C
HETATM   32  C23 UNL     1      28.682   1.554  -2.997  1.00  0.00     0.028 C
HETATM   33  C24 UNL     1      28.727   0.072  -3.152  1.00  0.00     0.238 C
BRANCH  28  34
HETATM   34  C18 UNL     1      29.855  -1.080  -4.945  1.00  0.00     0.264 C
BRANCH  34  35
HETATM   35  C19 UNL     1      30.784  -1.604  -3.895  1.00  0.00     0.192 C
BRANCH  35  36
HETATM   36  O2  UNL     1      30.612  -3.009  -3.901  1.00  0.00    -0.399 OA
ATOM     37  H2  UNL     1      29.681  -3.153  -3.780  1.00  0.00     0.209 HD
ENDBRANCH  35  36
ENDBRANCH  34  35
ENDBRANCH  28  34
ENDBRANCH  19  28
BRANCH  24  38
HETATM   38  C27 UNL     1      25.965  -4.464  -1.639  1.00  0.00     0.035 C
BRANCH  38  39
HETATM   39  C28 UNL     1      25.550  -5.414  -2.746  1.00  0.00     0.004 C
BRANCH  39  40
HETATM   40  C29 UNL     1      25.778  -6.846  -2.394  1.00  0.00     0.027 C
BRANCH  40  41
HETATM   41  C30 UNL     1      26.576  -6.887  -1.106  1.00  0.00     0.229 C
BRANCH  41  42
HETATM   42  N8  UNL     1      27.800  -7.655  -1.264  1.00  0.00    -0.079 N
ATOM     43  H83 UNL     1      28.364  -7.639  -0.414  1.00  0.00     0.274 HD
ATOM     44  H82 UNL     1      27.610  -8.655  -1.309  1.00  0.00     0.274 HD
ATOM     45  H81 UNL     1      28.336  -7.340  -2.073  1.00  0.00     0.274 HD
ENDBRANCH  41  42
ENDBRANCH  40  41
ENDBRANCH  39  40
ENDBRANCH  38  39
ENDBRANCH  24  38
BRANCH  12  46
HETATM   46  C10 UNL     1      21.947  -0.070  -3.117  1.00  0.00     0.250 C
BRANCH  46  47
HETATM   47  N4  UNL     1      21.103  -1.202  -3.292  1.00  0.00    -0.078 N
HETATM   48  C11 UNL     1      20.307  -1.548  -2.141  1.00  0.00     0.271 C
HETATM   49  C12 UNL     1      21.798  -2.379  -3.796  1.00  0.00     0.271 C
HETATM   50  C13 UNL     1      20.137  -0.847  -4.350  1.00  0.00     0.271 C
ENDBRANCH  46  47
ENDBRANCH  12  46
BRANCH   1  51
HETATM   51  C2  UNL     1      25.738   0.853   0.569  1.00  0.00    -0.010 C
HETATM   52  C1  UNL     1      26.790   1.562   0.181  1.00  0.00     0.009 C
ENDBRANCH   1  51
TORSDOF 12
ENDMDL