MODEL 4
REMARK VINA RESULT: -6.699640292      2.452      3.224
REMARK  11 active torsions:
REMARK  status: ('A' for Active; 'I' for Inactive)
REMARK    1  A    between atoms: C11_14  and  C12_15
REMARK       I    between atoms: C12_15  and  N4_17
REMARK    2  A    between atoms: N4_17  and  C13_19
REMARK    3  A    between atoms: C13_19  and  C14_20
REMARK    4  A    between atoms: C13_19  and  N8_30
REMARK    5  A    between atoms: C14_20  and  C15_21
REMARK    6  A    between atoms: C15_21  and  C16_22
REMARK    7  A    between atoms: C16_22  and  C18_24
REMARK    8  A    between atoms: C18_24  and  N5_25
REMARK    9  A    between atoms: N8_30  and  C20_32
REMARK   10  A    between atoms: C20_32  and  C21_33
REMARK   11  A    between atoms: C21_33  and  C22_34
ROOT
HETATM    1  C1  UNL     1      30.272   2.171  -2.789  1.00  0.00     0.228 C
HETATM    2  N1  UNL     1      29.352   1.517  -3.077  1.00  0.00    -0.432 NA
HETATM    3  C2  UNL     1      28.195   0.729  -3.433  1.00  0.00     0.103 C
HETATM    4  C3  UNL     1      27.003   1.124  -2.667  1.00  0.00     0.144 C
HETATM    5  C4  UNL     1      26.370   0.031  -1.829  1.00  0.00     0.042 C
HETATM    6  C5  UNL     1      27.041  -1.227  -1.623  1.00  0.00     0.133 C
HETATM    7  N2  UNL     1      26.801  -2.341  -2.630  1.00  0.00    -0.320 N
HETATM    8  C6  UNL     1      27.868  -3.322  -2.535  1.00  0.00     0.188 C
HETATM    9  N3  UNL     1      28.933  -3.459  -3.352  1.00  0.00    -0.341 N
HETATM   10  C7  UNL     1      29.894  -2.406  -3.587  1.00  0.00     0.135 C
HETATM   11  C8  UNL     1      29.449  -1.756  -4.830  1.00  0.00     0.009 C
HETATM   12  C9  UNL     1      29.865  -2.681  -5.993  1.00  0.00     0.013 C
HETATM   13  C10 UNL     1      29.020  -3.957  -5.762  1.00  0.00     0.063 C
HETATM   14  C11 UNL     1      29.168  -4.424  -4.326  1.00  0.00     0.080 C
HETATM   15  C24 UNL     1      29.558  -0.327  -5.101  1.00  0.00     0.048 C
HETATM   16  C25 UNL     1      28.256   0.498  -4.866  1.00  0.00    -0.011 C
HETATM   17  C26 UNL     1      27.130   0.204  -5.698  1.00  0.00    -0.016 C
HETATM   18  C27 UNL     1      26.333   1.519  -5.902  1.00  0.00     0.163 C
HETATM   19  N9  UNL     1      25.546   1.843  -4.760  1.00  0.00    -0.356 N
ATOM     20  H9  UNL     1      24.563   2.059  -4.930  1.00  0.00     0.162 HD
HETATM   21  C28 UNL     1      25.980   1.896  -3.416  1.00  0.00     0.229 C
HETATM   22  O2  UNL     1      25.385   2.759  -2.720  1.00  0.00    -0.273 OA
HETATM   23  C29 UNL     1      26.179  -0.897  -5.672  1.00  0.00     0.099 C
HETATM   24  N10 UNL     1      25.460  -1.266  -4.515  1.00  0.00    -0.342 N
ATOM     25  H10 UNL     1      24.606  -0.721  -4.396  1.00  0.00     0.167 HD
HETATM   26  C30 UNL     1      25.649  -2.233  -3.458  1.00  0.00     0.178 C
HETATM   27  S1  UNL     1      24.210  -3.169  -3.375  1.00  0.00    -0.040 SA
ENDROOT
BRANCH  14  28
HETATM   28  C12 UNL     1      28.698  -5.789  -4.190  1.00  0.00     0.265 C
HETATM   29  O1  UNL     1      27.532  -6.070  -4.645  1.00  0.00    -0.266 OA
HETATM   30  N4  UNL     1      29.379  -6.877  -3.612  1.00  0.00    -0.335 N
ATOM     31  H4  UNL     1      30.317  -6.733  -3.239  1.00  0.00     0.164 HD
BRANCH  30  32
HETATM   32  C13 UNL     1      28.764  -8.244  -3.528  1.00  0.00     0.179 C
BRANCH  32  33
HETATM   33  C14 UNL     1      28.300  -8.398  -2.142  1.00  0.00     0.047 C
BRANCH  33  34
HETATM   34  C15 UNL     1      28.816  -9.543  -1.369  1.00  0.00     0.009 C
BRANCH  34  35
HETATM   35  C16 UNL     1      27.706 -10.501  -0.948  1.00  0.00    -0.001 C
HETATM   36  C17 UNL     1      26.428 -10.299  -1.683  1.00  0.00     0.011 C
BRANCH  35  37
HETATM   37  C18 UNL     1      28.134 -11.947  -0.982  1.00  0.00     0.126 C
BRANCH  37  38
HETATM   38  N5  UNL     1      27.167 -12.695  -0.157  1.00  0.00    -0.367 N
HETATM   39  C19 UNL     1      27.507 -13.172   0.984  1.00  0.00     0.196 C
HETATM   40  N6  UNL     1      28.817 -12.992   1.480  1.00  0.00    -0.067 NA
HETATM   41  N7  UNL     1      26.568 -13.889   1.767  1.00  0.00    -0.067 NA
ATOM     42  H5  UNL     1      26.216 -12.835  -0.498  1.00  0.00     0.161 HD
ENDBRANCH  37  38
ENDBRANCH  35  37
ENDBRANCH  34  35
ENDBRANCH  33  34
ENDBRANCH  32  33
BRANCH  32  43
HETATM   43  N8  UNL     1      29.742  -9.121  -3.993  1.00  0.00    -0.401 N
ATOM     44  H8  UNL     1      29.470 -10.097  -4.109  1.00  0.00     0.155 HD
BRANCH  43  45
HETATM   45  C20 UNL     1      31.048  -8.790  -4.313  1.00  0.00     0.115 C
BRANCH  45  46
HETATM   46  C21 UNL     1      31.956  -9.789  -3.516  1.00  0.00     0.019 C
BRANCH  46  47
HETATM   47  C22 UNL     1      33.138  -9.004  -2.995  1.00  0.00    -0.003 C
HETATM   48  C23 UNL     1      32.758  -7.865  -2.110  1.00  0.00     0.005 C
ENDBRANCH  46  47
ENDBRANCH  45  46
ENDBRANCH  43  45
ENDBRANCH  32  43
ENDBRANCH  30  32
ENDBRANCH  14  28
TORSDOF 11
ENDMDL