MODEL 4
REMARK VINA RESULT: -7.066746829      2.941      6.655
REMARK  20 active torsions:
REMARK  status: ('A' for Active; 'I' for Inactive)
REMARK    1  A    between atoms: S1_2  and  C2_3
REMARK    2  A    between atoms: C3_5  and  C4_6
REMARK    3  A    between atoms: C4_6  and  O2_7
REMARK    4  A    between atoms: C4_6  and  C5_9
REMARK    5  A    between atoms: C5_9  and  O3_10
REMARK    6  A    between atoms: C5_9  and  C6_12
REMARK    7  A    between atoms: C6_12  and  O4_13
REMARK    8  A    between atoms: C7_15  and  O5_16
REMARK    9  A    between atoms: C8_18  and  O6_19
REMARK   10  A    between atoms: O6_19  and  C9_20
REMARK   11  A    between atoms: C12_24  and  O8_25
REMARK   12  A    between atoms: C13_27  and  O9_28
REMARK   13  A    between atoms: C14_30  and  O10_31
REMARK   14  A    between atoms: C15_33  and  O11_34
REMARK   15  A    between atoms: O11_34  and  C16_35
REMARK   16  A    between atoms: C17_37  and  C18_38
REMARK   17  A    between atoms: C18_38  and  O13_39
REMARK   18  A    between atoms: C19_41  and  O14_42
REMARK   19  A    between atoms: C20_44  and  O15_45
REMARK   20  A    between atoms: C21_47  and  S2_48
ROOT
HETATM    1  C2  UNL     1      -9.284  -0.255  13.059  1.00  0.00     0.214 C
HETATM    2  O1  UNL     1      -8.514   0.558  13.870  1.00  0.00    -0.362 OA
HETATM    3  C3  UNL     1      -8.580  -0.046  15.136  1.00  0.00     0.185 C
HETATM    4  C7  UNL     1      -7.791  -1.298  15.092  1.00  0.00     0.181 C
HETATM    5  C8  UNL     1      -8.588  -2.327  14.191  1.00  0.00     0.188 C
HETATM    6  C15 UNL     1      -8.652  -1.603  12.835  1.00  0.00     0.195 C
ENDROOT
BRANCH   6   7
HETATM    7  O11 UNL     1      -9.427  -2.308  11.900  1.00  0.00    -0.349 OA
BRANCH   7   8
HETATM    8  C16 UNL     1      -8.725  -2.981  10.929  1.00  0.00     0.278 C
HETATM    9  O12 UNL     1      -7.653  -2.078  10.603  1.00  0.00    -0.350 OA
HETATM   10  C17 UNL     1      -6.715  -2.619   9.780  1.00  0.00     0.179 C
HETATM   11  C19 UNL     1      -7.355  -3.443   8.664  1.00  0.00     0.179 C
HETATM   12  C20 UNL     1      -8.758  -2.946   8.466  1.00  0.00     0.168 C
HETATM   13  C21 UNL     1      -9.532  -3.295   9.752  1.00  0.00     0.146 C
BRANCH  10  14
HETATM   14  C18 UNL     1      -5.545  -3.302  10.408  1.00  0.00     0.198 C
BRANCH  14  15
HETATM   15  O13 UNL     1      -4.305  -2.900  10.000  1.00  0.00    -0.398 OA
ATOM     16  H13 UNL     1      -4.158  -1.964   9.933  1.00  0.00     0.209 HD
ENDBRANCH  14  15
ENDBRANCH  10  14
BRANCH  11  17
HETATM   17  O14 UNL     1      -6.694  -3.310   7.454  1.00  0.00    -0.390 OA
ATOM     18  H14 UNL     1      -6.736  -4.097   6.924  1.00  0.00     0.210 HD
ENDBRANCH  11  17
BRANCH  12  19
HETATM   19  O15 UNL     1      -8.752  -1.550   8.399  1.00  0.00    -0.392 OA
ATOM     20  H15 UNL     1      -9.091  -1.272   7.557  1.00  0.00     0.210 HD
ENDBRANCH  12  19
BRANCH  13  21
HETATM   21  S2  UNL     1     -11.058  -2.329   9.633  1.00  0.00    -0.073 SA
HETATM   22  S3  UNL     1     -12.762  -3.424   9.130  1.00  0.00    -0.013 SA
ENDBRANCH  13  21
ENDBRANCH   7   8
ENDBRANCH   6   7
BRANCH   1  23
HETATM   23  S1  UNL     1      -9.806   0.591  11.555  1.00  0.00    -0.139 SA
HETATM   24  C1  UNL     1      -8.818   2.053  11.238  1.00  0.00     0.092 C
ENDBRANCH   1  23
BRANCH   5  25
HETATM   25  O6  UNL     1      -7.956  -3.395  14.242  1.00  0.00    -0.348 OA
BRANCH  25  26
HETATM   26  C9  UNL     1      -7.283  -4.440  14.363  1.00  0.00     0.292 C
HETATM   27  O7  UNL     1      -5.865  -4.258  14.151  1.00  0.00    -0.351 OA
HETATM   28  C10 UNL     1      -5.192  -4.992  15.092  1.00  0.00     0.152 C
HETATM   29  C11 UNL     1      -3.708  -5.081  14.801  1.00  0.00     0.042 C
HETATM   30  C12 UNL     1      -5.785  -6.365  15.296  1.00  0.00     0.178 C
HETATM   31  C13 UNL     1      -6.671  -6.793  14.177  1.00  0.00     0.183 C
HETATM   32  C14 UNL     1      -7.556  -5.715  13.602  1.00  0.00     0.204 C
BRANCH  30  33
HETATM   33  O8  UNL     1      -4.726  -7.276  15.362  1.00  0.00    -0.390 OA
ATOM     34  H8  UNL     1      -5.058  -8.122  15.082  1.00  0.00     0.210 HD
ENDBRANCH  30  33
BRANCH  31  35
HETATM   35  O9  UNL     1      -5.940  -7.461  13.174  1.00  0.00    -0.390 OA
ATOM     36  H9  UNL     1      -6.246  -7.220  12.307  1.00  0.00     0.210 HD
ENDBRANCH  31  35
BRANCH  32  37
HETATM   37  O10 UNL     1      -7.194  -5.604  12.249  1.00  0.00    -0.388 OA
ATOM     38  H10 UNL     1      -7.928  -5.780  11.671  1.00  0.00     0.210 HD
ENDBRANCH  32  37
ENDBRANCH  25  26
ENDBRANCH   5  25
BRANCH   4  39
HETATM   39  O5  UNL     1      -6.593  -1.173  14.376  1.00  0.00    -0.390 OA
ATOM     40  H5  UNL     1      -6.270  -2.000  14.037  1.00  0.00     0.210 HD
ENDBRANCH   4  39
BRANCH   3  41
HETATM   41  C4  UNL     1      -8.343   0.817  16.296  1.00  0.00     0.180 C
BRANCH  41  42
HETATM   42  O2  UNL     1      -9.197   0.466  17.390  1.00  0.00    -0.390 OA
ATOM     43  H2  UNL     1      -8.693   0.200  18.150  1.00  0.00     0.210 HD
ENDBRANCH  41  42
BRANCH  41  44
HETATM   44  C5  UNL     1      -8.338   2.289  16.128  1.00  0.00     0.173 C
BRANCH  44  45
HETATM   45  O3  UNL     1      -7.340   2.800  15.313  1.00  0.00    -0.391 OA
ATOM     46  H3  UNL     1      -7.635   3.320  14.575  1.00  0.00     0.210 HD
ENDBRANCH  44  45
BRANCH  44  47
HETATM   47  C6  UNL     1      -8.059   2.931  17.508  1.00  0.00     0.198 C
BRANCH  47  48
HETATM   48  O4  UNL     1      -6.931   2.303  18.051  1.00  0.00    -0.398 OA
ATOM     49  H4  UNL     1      -6.517   2.916  18.648  1.00  0.00     0.209 HD
ENDBRANCH  47  48
ENDBRANCH  44  47
ENDBRANCH  41  44
ENDBRANCH   3  41
TORSDOF 20
ENDMDL