MODEL 5
REMARK VINA RESULT: -7.514419439      2.963      6.183
REMARK  19 active torsions:
REMARK  status: ('A' for Active; 'I' for Inactive)
REMARK    1  A    between atoms: O1_2  and  C2_3
REMARK    2  A    between atoms: C2_3  and  C3_5
REMARK    3  A    between atoms: C5_8  and  O4_9
REMARK    4  A    between atoms: C5_8  and  O5_11
REMARK    5  A    between atoms: O5_11  and  C6_12
REMARK    6  A    between atoms: N3_20  and  N4_21
REMARK    7  A    between atoms: C9_24  and  N5_25
REMARK    8  A    between atoms: N5_25  and  C10_27
REMARK    9  A    between atoms: C10_27  and  O9_28
REMARK   10  A    between atoms: C10_27  and  N6_30
REMARK   11  A    between atoms: N6_30  and  C11_32
REMARK   12  A    between atoms: C13_34  and  O10_36
REMARK   13  A    between atoms: C15_38  and  O11_39
REMARK   14  A    between atoms: C18_43  and  O12_44
REMARK   15  A    between atoms: O12_44  and  C19_45
REMARK   16  A    between atoms: C19_45  and  C20_47
REMARK   17  A    between atoms: C20_47  and  O14_48
REMARK   18  A    between atoms: C20_47  and  C21_50
REMARK   19  A    between atoms: C21_50  and  O15_51
ROOT
HETATM    1  N5  UNL     1     -10.196  -4.714  13.373  1.00  0.00    -0.357 N
ATOM      2  H5  UNL     1     -10.897  -5.197  12.810  1.00  0.00     0.159 HD
ENDROOT
BRANCH   1   3
HETATM    3  C9  UNL     1      -8.864  -4.566  12.900  1.00  0.00     0.247 C
HETATM    4  C7  UNL     1      -8.094  -5.829  12.782  1.00  0.00     0.325 C
HETATM    5  C5  UNL     1      -6.843  -5.679  13.672  1.00  0.00     0.326 C
HETATM    6  N2  UNL     1      -7.664  -5.991  11.430  1.00  0.00    -0.032 N
HETATM    7  O3  UNL     1      -6.275  -4.416  13.417  1.00  0.00    -0.300 OA
HETATM    8  C4  UNL     1      -5.848  -3.957  12.161  1.00  0.00     0.158 C
HETATM    9  C3  UNL     1      -6.452  -4.039  10.989  1.00  0.00     0.090 C
HETATM   10  C8  UNL     1      -7.797  -4.683  10.820  1.00  0.00     0.351 C
HETATM   11  N3  UNL     1      -8.799  -3.979  11.576  1.00  0.00    -0.207 N
ATOM     12  H22 UNL     1      -6.730  -6.391  11.342  1.00  0.00     0.281 HD
ATOM     13  H21 UNL     1      -8.159  -6.729  10.929  1.00  0.00     0.281 HD
BRANCH   5  14
HETATM   14  O4  UNL     1      -7.311  -5.750  14.987  1.00  0.00    -0.341 OA
ATOM     15  H4  UNL     1      -7.151  -6.612  15.352  1.00  0.00     0.215 HD
ENDBRANCH   5  14
BRANCH   5  16
HETATM   16  O5  UNL     1      -5.961  -6.760  13.450  1.00  0.00    -0.240 OA
BRANCH  16  17
HETATM   17  C6  UNL     1      -5.122  -7.150  14.466  1.00  0.00     0.377 C
HETATM   18  N1  UNL     1      -4.988  -8.485  14.924  1.00  0.00    -0.032 NA
HETATM   19  O6  UNL     1      -4.425  -6.271  15.033  1.00  0.00    -0.242 OA
ENDBRANCH  16  17
ENDBRANCH   5  16
BRANCH   9  20
HETATM   20  C2  UNL     1      -5.801  -3.484   9.814  1.00  0.00     0.294 C
HETATM   21  O2  UNL     1      -4.698  -2.898   9.947  1.00  0.00    -0.259 OA
BRANCH  20  22
HETATM   22  O1  UNL     1      -6.353  -3.578   8.552  1.00  0.00    -0.323 OA
HETATM   23  C1  UNL     1      -7.005  -2.530   7.885  1.00  0.00     0.213 C
ENDBRANCH  20  22
ENDBRANCH   9  20
BRANCH  11  24
HETATM   24  N4  UNL     1      -9.576  -2.921  11.134  1.00  0.00    -0.037 N
HETATM   25  O7  UNL     1     -10.061  -2.109  11.942  1.00  0.00    -0.516 OA
HETATM   26  O8  UNL     1      -9.830  -2.740   9.798  1.00  0.00    -0.516 OA
ENDBRANCH  11  24
ENDBRANCH   1   3
BRANCH   1  27
HETATM   27  C10 UNL     1     -10.532  -4.180  14.639  1.00  0.00     0.319 C
BRANCH  27  28
HETATM   28  O9  UNL     1     -10.821  -5.064  15.647  1.00  0.00    -0.360 OA
ATOM     29  H9  UNL     1     -10.611  -4.804  16.536  1.00  0.00     0.214 HD
ENDBRANCH  27  28
BRANCH  27  30
HETATM   30  N6  UNL     1      -9.500  -3.236  15.025  1.00  0.00    -0.374 N
ATOM     31  H6  UNL     1      -8.558  -3.281  14.638  1.00  0.00     0.158 HD
BRANCH  30  32
HETATM   32  C11 UNL     1      -9.869  -2.248  15.968  1.00  0.00     0.113 C
HETATM   33  C12 UNL     1      -9.101  -2.148  17.224  1.00  0.00     0.067 C
HETATM   34  C13 UNL     1      -9.197  -0.860  17.964  1.00  0.00     0.082 C
HETATM   35  C14 UNL     1      -7.814  -0.512  18.496  1.00  0.00     0.049 C
HETATM   36  C15 UNL     1      -9.741   0.312  17.268  1.00  0.00     0.158 C
HETATM   37  C16 UNL     1     -10.663   0.011  16.113  1.00  0.00     0.045 C
HETATM   38  C17 UNL     1     -11.004   1.315  15.445  1.00  0.00     0.015 C
HETATM   39  C18 UNL     1      -9.869  -0.910  15.203  1.00  0.00     0.160 C
BRANCH  34  40
HETATM   40  O10 UNL     1      -9.987  -1.060  19.122  1.00  0.00    -0.388 OA
ATOM     41  H10 UNL     1      -9.436  -1.418  19.808  1.00  0.00     0.210 HD
ENDBRANCH  34  40
BRANCH  36  42
HETATM   42  O11 UNL     1     -10.459   1.158  18.132  1.00  0.00    -0.392 OA
ATOM     43  H11 UNL     1     -11.399   1.085  18.008  1.00  0.00     0.210 HD
ENDBRANCH  36  42
BRANCH  39  44
HETATM   44  O12 UNL     1      -8.551  -0.417  15.193  1.00  0.00    -0.311 OA
BRANCH  44  45
HETATM   45  C19 UNL     1      -7.813  -0.169  14.046  1.00  0.00     0.290 C
HETATM   46  O13 UNL     1      -7.382  -1.172  13.422  1.00  0.00    -0.262 OA
BRANCH  45  47
HETATM   47  C20 UNL     1      -7.530   1.200  13.551  1.00  0.00     0.241 C
BRANCH  47  48
HETATM   48  O14 UNL     1      -7.438   2.100  14.607  1.00  0.00    -0.383 OA
ATOM     49  H14 UNL     1      -8.170   1.998  15.205  1.00  0.00     0.210 HD
ENDBRANCH  47  48
BRANCH  47  50
HETATM   50  C21 UNL     1      -8.609   1.691  12.612  1.00  0.00     0.206 C
BRANCH  50  51
HETATM   51  O15 UNL     1      -9.447   0.653  12.211  1.00  0.00    -0.398 OA
ATOM     52  H15 UNL     1      -9.851   0.836  11.370  1.00  0.00     0.209 HD
ENDBRANCH  50  51
ENDBRANCH  47  50
ENDBRANCH  45  47
ENDBRANCH  44  45
ENDBRANCH  39  44
ENDBRANCH  30  32
ENDBRANCH  27  30
ENDBRANCH   1  27
TORSDOF 19
ENDMDL