MODEL 1
REMARK VINA RESULT: -9.543812830      0.000      0.000
REMARK  18 active torsions:
REMARK  status: ('A' for Active; 'I' for Inactive)
REMARK    1  A    between atoms: N1_2  and  C2_3
REMARK    2  A    between atoms: N1_2  and  N10_45
REMARK    3  A    between atoms: C4_7  and  C5_8
REMARK    4  A    between atoms: C5_8  and  N3_9
REMARK    5  A    between atoms: C5_8  and  C11_28
REMARK       I    between atoms: N3_9  and  C6_11
REMARK    6  A    between atoms: C6_11  and  C7_13
REMARK    7  A    between atoms: C7_13  and  O2_14
REMARK    8  A    between atoms: C7_13  and  C8_16
REMARK    9  A    between atoms: C7_13  and  O4_19
REMARK   10  A    between atoms: C8_16  and  O3_17
REMARK   11  A    between atoms: O4_19  and  C9_20
REMARK   12  A    between atoms: C9_20  and  N4_21
REMARK   13  A    between atoms: C9_20  and  O5_24
REMARK   14  A    between atoms: O5_24  and  C10_25
REMARK   15  A    between atoms: C14_34  and  N7_35
REMARK   16  A    between atoms: N9_42  and  O9_43
REMARK   17  A    between atoms: C16_49  and  C17_50
REMARK   18  A    between atoms: C19_54  and  N14_55
ROOT
HETATM    1  C5  UNL     1      -6.439  -3.536  12.890  1.00  0.00     0.175 C
ENDROOT
BRANCH   1   2
HETATM    2  C4  UNL     1      -6.995  -2.800  14.040  1.00  0.00     0.057 A
HETATM    3  C3  UNL     1      -6.961  -3.424  15.271  1.00  0.00     0.121 A
HETATM    4  N2  UNL     1      -7.449  -2.824  16.362  1.00  0.00    -0.197 N
HETATM    5  C2  UNL     1      -8.008  -1.569  16.331  1.00  0.00     0.730 A
ATOM      6  H2  UNL     1      -7.405  -3.318  17.253  1.00  0.00     0.183 HD
HETATM    7  N9  UNL     1      -8.038  -0.970  15.137  1.00  0.00    -0.011 N
HETATM    8  C15 UNL     1      -7.545  -1.560  14.002  1.00  0.00     0.298 A
HETATM    9  O8  UNL     1      -7.603  -0.951  12.927  1.00  0.00    -0.264 OA
BRANCH   5  10
HETATM   10  N1  UNL     1      -8.508  -0.981  17.497  1.00  0.00    -0.091 N
HETATM   11  C1  UNL     1      -9.687  -1.454  18.165  1.00  0.00     0.201 C
BRANCH  10  12
HETATM   12  N10 UNL     1      -7.816   0.137  18.047  1.00  0.00    -0.097 N
HETATM   13  N11 UNL     1      -8.130   1.416  17.927  1.00  0.00     0.020 NA
HETATM   14  N12 UNL     1      -7.241   2.155  18.582  1.00  0.00    -0.264 N
HETATM   15  C16 UNL     1      -6.325   1.333  19.142  1.00  0.00     0.148 A
ATOM     16  H12 UNL     1      -7.248   3.173  18.651  1.00  0.00     0.186 HD
HETATM   17  N16 UNL     1      -6.722   0.101  18.785  1.00  0.00    -0.248 N
ATOM     18  H16 UNL     1      -6.238  -0.757  19.051  1.00  0.00     0.192 HD
BRANCH  15  19
HETATM   19  C17 UNL     1      -5.178   1.721  19.947  1.00  0.00     0.042 A
HETATM   20  C18 UNL     1      -4.135   2.462  19.438  1.00  0.00     0.122 A
HETATM   21  N13 UNL     1      -3.073   2.807  20.228  1.00  0.00    -0.201 N
HETATM   22  C19 UNL     1      -3.027   2.432  21.512  1.00  0.00     0.675 A
ATOM     23  H13 UNL     1      -2.309   3.356  19.835  1.00  0.00     0.183 HD
HETATM   24  N15 UNL     1      -4.028   1.712  22.030  1.00  0.00    -0.201 N
HETATM   25  C20 UNL     1      -5.096   1.354  21.271  1.00  0.00     0.122 A
ATOM     26  H15 UNL     1      -3.988   1.428  23.009  1.00  0.00     0.183 HD
BRANCH  22  27
HETATM   27  N14 UNL     1      -1.981   2.802  22.193  1.00  0.00    -0.234 N
ATOM     28 2H14 UNL     1      -1.061   2.949  21.776  1.00  0.00     0.174 HD
ATOM     29 1H14 UNL     1      -2.112   2.946  23.194  1.00  0.00     0.174 HD
ENDBRANCH  22  27
ENDBRANCH  15  19
ENDBRANCH  10  12
ENDBRANCH   5  10
BRANCH   7  30
HETATM   30  O9  UNL     1      -8.571   0.286  14.984  1.00  0.00    -0.266 OA
ATOM     31  H9  UNL     1      -8.426   0.966  15.632  1.00  0.00     0.246 HD
ENDBRANCH   7  30
ENDBRANCH   1   2
BRANCH   1  32
HETATM   32  N3  UNL     1      -7.227  -3.458  11.693  1.00  0.00    -0.342 N
HETATM   33  C6  UNL     1      -6.712  -3.086  10.424  1.00  0.00     0.284 C
HETATM   34  O1  UNL     1      -5.504  -2.814  10.361  1.00  0.00    -0.267 OA
ATOM     35  H3  UNL     1      -8.219  -3.684  11.759  1.00  0.00     0.163 HD
BRANCH  33  36
HETATM   36  C7  UNL     1      -7.576  -3.032   9.259  1.00  0.00     0.275 C
BRANCH  36  37
HETATM   37  O2  UNL     1      -7.687  -1.638   8.832  1.00  0.00    -0.356 OA
ATOM     38  H2  UNL     1      -8.423  -1.244   9.286  1.00  0.00     0.213 HD
ENDBRANCH  36  37
BRANCH  36  39
HETATM   39  C8  UNL     1      -6.893  -3.651   8.022  1.00  0.00     0.243 C
BRANCH  39  40
HETATM   40  O3  UNL     1      -6.210  -4.800   8.333  1.00  0.00    -0.395 OA
ATOM     41  H3  UNL     1      -5.345  -4.816   7.941  1.00  0.00     0.209 HD
ENDBRANCH  39  40
ENDBRANCH  36  39
BRANCH  36  42
HETATM   42  O4  UNL     1      -8.861  -3.456   9.293  1.00  0.00    -0.267 OA
BRANCH  42  43
HETATM   43  C9  UNL     1      -9.977  -2.826   8.779  1.00  0.00     0.269 C
BRANCH  43  44
HETATM   44  N4  UNL     1     -10.653  -2.171   9.582  1.00  0.00    -0.359 N
ATOM     45  H42 UNL     1     -10.558  -1.164   9.711  1.00  0.00     0.160 HD
ATOM     46  H41 UNL     1     -11.332  -2.696  10.133  1.00  0.00     0.160 HD
ENDBRANCH  43  44
BRANCH  43  47
HETATM   47  O5  UNL     1     -10.289  -2.947   7.412  1.00  0.00    -0.225 OA
BRANCH  47  48
HETATM   48  C10 UNL     1     -10.382  -1.875   6.569  1.00  0.00     0.380 C
HETATM   49  N5  UNL     1      -9.284  -0.968   6.376  1.00  0.00    -0.032 NA
HETATM   50  O6  UNL     1     -11.432  -1.638   5.929  1.00  0.00    -0.242 OA
ENDBRANCH  47  48
ENDBRANCH  43  47
ENDBRANCH  42  43
ENDBRANCH  36  42
ENDBRANCH  33  36
ENDBRANCH   1  32
BRANCH   1  51
HETATM   51  C11 UNL     1      -6.408  -4.984  13.285  1.00  0.00     0.059 A
HETATM   52  C12 UNL     1      -5.425  -5.470  14.107  1.00  0.00     0.103 A
HETATM   53  C13 UNL     1      -5.413  -6.797  14.460  1.00  0.00     0.261 A
HETATM   54  O7  UNL     1      -4.516  -7.288  15.223  1.00  0.00    -0.268 OA
HETATM   55  N6  UNL     1      -6.376  -7.611  13.989  1.00  0.00    -0.156 N
HETATM   56  C14 UNL     1      -7.361  -7.151  13.171  1.00  0.00     0.679 A
ATOM     57  H6  UNL     1      -6.367  -8.597  14.253  1.00  0.00     0.187 HD
HETATM   58  N8  UNL     1      -7.342  -5.846  12.846  1.00  0.00    -0.193 N
ATOM     59  H8  UNL     1      -8.075  -5.491  12.234  1.00  0.00     0.184 HD
BRANCH  56  60
HETATM   60  N7  UNL     1      -8.242  -7.972  12.761  1.00  0.00    -0.234 N
ATOM     61  H72 UNL     1      -8.122  -8.984  12.763  1.00  0.00     0.174 HD
ATOM     62  H71 UNL     1      -9.124  -7.602  12.405  1.00  0.00     0.174 HD
ENDBRANCH  56  60
ENDBRANCH   1  51
TORSDOF 18
ENDMDL