MODEL 2
REMARK VINA RESULT: -7.249269602      1.402      2.000
REMARK  19 active torsions:
REMARK  status: ('A' for Active; 'I' for Inactive)
REMARK    1  A    between atoms: S1_2  and  C2_3
REMARK    2  A    between atoms: C3_5  and  O2_6
REMARK    3  A    between atoms: O2_6  and  C4_7
REMARK    4  A    between atoms: C5_8  and  C6_9
REMARK    5  A    between atoms: C6_9  and  O3_10
REMARK    6  A    between atoms: C7_13  and  N1_14
REMARK    7  A    between atoms: N1_14  and  C8_16
REMARK    8  A    between atoms: C11_19  and  O5_20
REMARK    9  A    between atoms: C14_24  and  O6_25
REMARK   10  A    between atoms: O6_25  and  C15_26
REMARK   11  A    between atoms: C16_28  and  O8_29
REMARK   12  A    between atoms: C17_31  and  O9_32
REMARK   13  A    between atoms: C18_34  and  C19_35
REMARK   14  A    between atoms: C19_35  and  O10_36
REMARK   15  A    between atoms: C20_39  and  O12_40
REMARK   16  A    between atoms: C21_42  and  O13_43
REMARK   17  A    between atoms: C22_45  and  O14_46
REMARK   18  A    between atoms: C23_48  and  O15_49
REMARK   19  A    between atoms: C24_51  and  O16_52
ROOT
HETATM    1  C4  UNL     1     -10.789  -1.073  11.157  1.00  0.00     0.187 C
HETATM    2  C5  UNL     1     -10.959  -2.141  12.201  1.00  0.00     0.179 C
HETATM    3  O4  UNL     1     -10.134  -2.089  13.275  1.00  0.00    -0.354 OA
HETATM    4  C7  UNL     1      -8.904  -1.471  13.105  1.00  0.00     0.253 C
HETATM    5  C14 UNL     1      -9.095  -0.014  13.422  1.00  0.00     0.207 C
HETATM    6  C20 UNL     1      -9.458   0.731  12.130  1.00  0.00     0.183 C
HETATM    7  C21 UNL     1     -10.894   0.275  11.835  1.00  0.00     0.181 C
ENDROOT
BRANCH   1   8
HETATM    8  O2  UNL     1     -11.824  -1.098  10.218  1.00  0.00    -0.348 OA
BRANCH   8   9
HETATM    9  C3  UNL     1     -11.442  -1.581   8.981  1.00  0.00     0.293 C
HETATM   10  O1  UNL     1     -10.056  -1.586   8.936  1.00  0.00    -0.340 OA
HETATM   11  C2  UNL     1      -9.596  -2.349   7.836  1.00  0.00     0.217 C
HETATM   12  C24 UNL     1     -10.459  -2.081   6.646  1.00  0.00     0.188 C
HETATM   13  C23 UNL     1     -11.157  -0.754   6.693  1.00  0.00     0.183 C
HETATM   14  C22 UNL     1     -11.960  -0.633   7.938  1.00  0.00     0.204 C
BRANCH  11  15
HETATM   15  S1  UNL     1      -7.870  -2.097   7.653  1.00  0.00    -0.139 SA
HETATM   16  C1  UNL     1      -6.761  -3.106   8.569  1.00  0.00     0.092 C
ENDBRANCH  11  15
BRANCH  12  17
HETATM   17  O16 UNL     1      -9.724  -2.267   5.484  1.00  0.00    -0.389 OA
ATOM     18  H16 UNL     1     -10.222  -1.957   4.737  1.00  0.00     0.210 HD
ENDBRANCH  12  17
BRANCH  13  19
HETATM   19  O15 UNL     1     -10.306   0.326   6.477  1.00  0.00    -0.390 OA
ATOM     20  H15 UNL     1      -9.871   0.299   5.633  1.00  0.00     0.210 HD
ENDBRANCH  13  19
BRANCH  14  21
HETATM   21  O14 UNL     1     -12.025   0.668   8.428  1.00  0.00    -0.388 OA
ATOM     22  H14 UNL     1     -11.647   1.286   7.813  1.00  0.00     0.210 HD
ENDBRANCH  14  21
ENDBRANCH   8   9
ENDBRANCH   1   8
BRANCH   2  23
HETATM   23  C6  UNL     1     -12.400  -2.171  12.725  1.00  0.00     0.198 C
BRANCH  23  24
HETATM   24  O3  UNL     1     -13.168  -3.030  11.923  1.00  0.00    -0.398 OA
ATOM     25  H3  UNL     1     -13.289  -3.857  12.373  1.00  0.00     0.209 HD
ENDBRANCH  23  24
ENDBRANCH   2  23
BRANCH   7  26
HETATM   26  O13 UNL     1     -11.555   1.202  11.031  1.00  0.00    -0.390 OA
ATOM     27  H13 UNL     1     -12.304   1.579  11.478  1.00  0.00     0.210 HD
ENDBRANCH   7  26
BRANCH   6  28
HETATM   28  O12 UNL     1      -8.592   0.452  11.101  1.00  0.00    -0.390 OA
ATOM     29  H12 UNL     1      -9.022   0.025  10.369  1.00  0.00     0.210 HD
ENDBRANCH   6  28
BRANCH   4  30
HETATM   30  N1  UNL     1      -7.998  -2.068  14.060  1.00  0.00    -0.362 N
ATOM     31  H1  UNL     1      -7.724  -1.509  14.868  1.00  0.00     0.162 HD
BRANCH  30  32
HETATM   32  C8  UNL     1      -7.460  -3.381  13.952  1.00  0.00     0.030 A
HETATM   33  C9  UNL     1      -6.902  -3.799  12.738  1.00  0.00     0.032 A
HETATM   34  C10 UNL     1      -6.373  -5.057  12.562  1.00  0.00     0.039 A
HETATM   35  C11 UNL     1      -6.367  -5.974  13.580  1.00  0.00     0.065 A
HETATM   36  C12 UNL     1      -6.910  -5.584  14.782  1.00  0.00     0.039 A
HETATM   37  C13 UNL     1      -7.451  -4.306  14.971  1.00  0.00     0.032 A
BRANCH  35  38
HETATM   38  O5  UNL     1      -5.846  -7.254  13.456  1.00  0.00    -0.361 OA
ATOM     39  H5  UNL     1      -6.366  -8.043  13.547  1.00  0.00     0.217 HD
ENDBRANCH  35  38
ENDBRANCH  30  32
ENDBRANCH   4  30
BRANCH   5  40
HETATM   40  O6  UNL     1      -8.077   0.611  14.088  1.00  0.00    -0.326 OA
BRANCH  40  41
HETATM   41  C15 UNL     1      -8.478   1.793  14.730  1.00  0.00     0.416 C
HETATM   42  O7  UNL     1      -7.380   2.523  15.159  1.00  0.00    -0.306 OA
HETATM   43  C16 UNL     1      -7.791   3.484  16.067  1.00  0.00     0.293 C
HETATM   44  C17 UNL     1      -8.031   2.735  17.372  1.00  0.00     0.204 C
HETATM   45  C18 UNL     1      -8.871   1.523  16.974  1.00  0.00     0.184 C
HETATM   46  O11 UNL     1      -9.386   1.646  15.718  1.00  0.00    -0.329 OA
BRANCH  43  47
HETATM   47  O8  UNL     1      -6.763   4.408  16.204  1.00  0.00    -0.368 OA
ATOM     48  H8  UNL     1      -6.467   4.381  17.106  1.00  0.00     0.212 HD
ENDBRANCH  43  47
BRANCH  44  49
HETATM   49  O9  UNL     1      -6.790   2.367  17.885  1.00  0.00    -0.388 OA
ATOM     50  H9  UNL     1      -6.319   1.907  17.200  1.00  0.00     0.210 HD
ENDBRANCH  44  49
BRANCH  45  51
HETATM   51  C19 UNL     1      -7.982   0.311  17.076  1.00  0.00     0.199 C
BRANCH  51  52
HETATM   52  O10 UNL     1      -8.634  -0.878  16.779  1.00  0.00    -0.398 OA
ATOM     53  H10 UNL     1      -8.276  -1.327  16.023  1.00  0.00     0.209 HD
ENDBRANCH  51  52
ENDBRANCH  45  51
ENDBRANCH  40  41
ENDBRANCH   5  40
TORSDOF 19
ENDMDL