MODEL 3
REMARK VINA RESULT: -7.204327616      2.651      8.718
REMARK  19 active torsions:
REMARK  status: ('A' for Active; 'I' for Inactive)
REMARK    1  A    between atoms: O1_2  and  C2_3
REMARK    2  A    between atoms: C3_5  and  C4_6
REMARK    3  A    between atoms: C4_6  and  O3_7
REMARK    4  A    between atoms: C5_9  and  O4_10
REMARK    5  A    between atoms: C6_12  and  O5_13
REMARK    6  A    between atoms: O5_13  and  C7_14
REMARK    7  A    between atoms: C8_16  and  C9_17
REMARK    8  A    between atoms: C9_17  and  O7_18
REMARK    9  A    between atoms: C10_20  and  O8_21
REMARK   10  A    between atoms: O8_21  and  C11_22
REMARK   11  A    between atoms: C12_23  and  N1_24
REMARK   12  A    between atoms: C13_31  and  O9_32
REMARK   13  A    between atoms: O9_32  and  C14_33
REMARK   14  A    between atoms: C19_38  and  O10_40
REMARK   15  A    between atoms: C21_45  and  C22_46
REMARK   16  A    between atoms: C22_46  and  O11_47
REMARK   17  A    between atoms: C23_49  and  O12_50
REMARK   18  A    between atoms: C24_52  and  N4_53
REMARK   19  A    between atoms: C25_58  and  O14_59
ROOT
HETATM    1  C11 UNL     1      -8.621  -1.952  14.198  1.00  0.00     0.215 C
HETATM    2  C12 UNL     1      -8.835  -2.659  15.485  1.00  0.00     0.414 C
HETATM    3  N2  UNL     1      -8.639  -1.747  16.578  1.00  0.00    -0.015 N
ATOM      4  H21 UNL     1      -9.025  -2.114  17.448  1.00  0.00     0.282 HD
ATOM      5  H22 UNL     1      -9.225  -0.917  16.486  1.00  0.00     0.282 HD
HETATM    6  C13 UNL     1      -7.224  -1.396  16.721  1.00  0.00     0.355 C
HETATM    7  C23 UNL     1      -6.531  -1.367  15.414  1.00  0.00     0.207 C
HETATM    8  C24 UNL     1      -7.394  -1.126  14.215  1.00  0.00     0.249 C
ENDROOT
BRANCH   1   9
HETATM    9  O8  UNL     1      -8.716  -2.789  13.088  1.00  0.00    -0.347 OA
BRANCH   9  10
HETATM   10  C10 UNL     1      -7.620  -3.593  12.885  1.00  0.00     0.297 C
HETATM   11  C8  UNL     1      -8.058  -4.839  12.186  1.00  0.00     0.205 C
HETATM   12  O6  UNL     1      -7.913  -4.585  10.845  1.00  0.00    -0.326 OA
HETATM   13  C7  UNL     1      -7.191  -3.431  10.692  1.00  0.00     0.416 C
HETATM   14  O13 UNL     1      -6.813  -2.970  11.940  1.00  0.00    -0.305 OA
BRANCH  11  15
HETATM   15  C9  UNL     1      -7.152  -6.026  12.533  1.00  0.00     0.201 C
BRANCH  15  16
HETATM   16  O7  UNL     1      -7.051  -6.889  11.445  1.00  0.00    -0.398 OA
ATOM     17  H7  UNL     1      -6.276  -7.432  11.527  1.00  0.00     0.209 HD
ENDBRANCH  15  16
ENDBRANCH  11  15
BRANCH  13  18
HETATM   18  O5  UNL     1      -7.828  -2.405  10.034  1.00  0.00    -0.328 OA
BRANCH  18  19
HETATM   19  C6  UNL     1      -8.949  -2.849   9.339  1.00  0.00     0.191 C
HETATM   20  C5  UNL     1      -8.943  -2.373   7.903  1.00  0.00     0.181 C
HETATM   21  C3  UNL     1     -10.299  -1.943   7.427  1.00  0.00     0.179 C
HETATM   22  O2  UNL     1     -11.315  -2.781   7.817  1.00  0.00    -0.349 OA
HETATM   23  C2  UNL     1     -11.366  -3.054   9.175  1.00  0.00     0.290 C
HETATM   24  C25 UNL     1     -10.241  -2.422   9.955  1.00  0.00     0.205 C
BRANCH  20  25
HETATM   25  O4  UNL     1      -8.115  -1.236   7.865  1.00  0.00    -0.390 OA
ATOM     26  H4  UNL     1      -7.548  -1.280   8.626  1.00  0.00     0.210 HD
ENDBRANCH  20  25
BRANCH  21  27
HETATM   27  C4  UNL     1     -10.258  -1.995   5.893  1.00  0.00     0.198 C
BRANCH  27  28
HETATM   28  O3  UNL     1      -9.726  -0.777   5.470  1.00  0.00    -0.398 OA
ATOM     29  H3  UNL     1      -9.674  -0.820   4.522  1.00  0.00     0.209 HD
ENDBRANCH  27  28
ENDBRANCH  21  27
BRANCH  23  30
HETATM   30  O1  UNL     1     -12.603  -2.709   9.712  1.00  0.00    -0.363 OA
HETATM   31  C1  UNL     1     -13.614  -2.814   8.759  1.00  0.00     0.204 C
ENDBRANCH  23  30
BRANCH  24  32
HETATM   32  O14 UNL     1     -10.364  -1.062  10.110  1.00  0.00    -0.388 OA
ATOM     33  H14 UNL     1      -9.784  -0.694  10.767  1.00  0.00     0.210 HD
ENDBRANCH  24  32
ENDBRANCH  18  19
ENDBRANCH  13  18
ENDBRANCH   9  10
ENDBRANCH   1   9
BRANCH   2  34
HETATM   34  N1  UNL     1     -10.210  -3.168  15.612  1.00  0.00    -0.048 N
ATOM     35  H13 UNL     1     -10.473  -3.283  16.590  1.00  0.00     0.276 HD
ATOM     36  H12 UNL     1     -10.893  -2.460  15.344  1.00  0.00     0.276 HD
ATOM     37  H11 UNL     1     -10.347  -4.032  15.088  1.00  0.00     0.276 HD
ENDBRANCH   2  34
BRANCH   8  38
HETATM   38  N4  UNL     1      -7.668   0.321  14.175  1.00  0.00    -0.070 N
ATOM     39  H43 UNL     1      -8.655   0.498  13.987  1.00  0.00     0.274 HD
ATOM     40  H42 UNL     1      -7.599   0.729  15.106  1.00  0.00     0.274 HD
ATOM     41  H41 UNL     1      -7.076   0.823  13.513  1.00  0.00     0.274 HD
ENDBRANCH   8  38
BRANCH   7  42
HETATM   42  O12 UNL     1      -5.441  -0.516  15.327  1.00  0.00    -0.389 OA
ATOM     43  H12 UNL     1      -4.603  -0.933  15.164  1.00  0.00     0.210 HD
ENDBRANCH   7  42
BRANCH   6  44
HETATM   44  O9  UNL     1      -7.150  -0.166  17.353  1.00  0.00    -0.349 OA
BRANCH  44  45
HETATM   45  C14 UNL     1      -8.293   0.184  18.060  1.00  0.00     0.164 C
HETATM   46  C15 UNL     1      -8.149  -0.196  19.510  1.00  0.00     0.035 C
HETATM   47  C16 UNL     1      -9.504  -0.058  20.185  1.00  0.00     0.017 C
HETATM   48  C17 UNL     1      -7.159   0.622  20.232  1.00  0.00    -0.019 C
HETATM   49  C18 UNL     1      -6.729   1.861  20.138  1.00  0.00     0.037 C
HETATM   50  C19 UNL     1      -7.157   2.894  19.191  1.00  0.00     0.239 C
HETATM   51  C20 UNL     1      -8.215   3.755  19.850  1.00  0.00     0.083 C
HETATM   52  N3  UNL     1      -7.502   2.464  17.879  1.00  0.00    -0.031 N
HETATM   53  C21 UNL     1      -8.666   1.643  17.923  1.00  0.00     0.242 C
ATOM     54  H32 UNL     1      -7.612   3.248  17.236  1.00  0.00     0.281 HD
ATOM     55  H31 UNL     1      -6.723   1.997  17.413  1.00  0.00     0.281 HD
BRANCH  50  56
HETATM   56  O10 UNL     1      -6.040   3.762  19.036  1.00  0.00    -0.362 OA
ATOM     57  H10 UNL     1      -6.383   4.556  18.642  1.00  0.00     0.213 HD
ENDBRANCH  50  56
BRANCH  53  58
HETATM   58  C22 UNL     1      -9.532   1.924  16.731  1.00  0.00     0.199 C
BRANCH  58  59
HETATM   59  O11 UNL     1      -9.969   0.687  16.192  1.00  0.00    -0.399 OA
ATOM     60  H11 UNL     1      -9.774   0.679  15.262  1.00  0.00     0.209 HD
ENDBRANCH  58  59
ENDBRANCH  53  58
ENDBRANCH  44  45
ENDBRANCH   6  44
TORSDOF 19
ENDMDL