MODEL 5
REMARK VINA RESULT: -7.974356283      2.336      8.746
REMARK  16 active torsions:
REMARK  status: ('A' for Active; 'I' for Inactive)
REMARK    1  A    between atoms: N2_7  and  C4_8
REMARK    2  A    between atoms: C5_10  and  O2_11
REMARK    3  A    between atoms: O2_11  and  C6_12
REMARK    4  A    between atoms: C6_12  and  N3_13
REMARK    5  A    between atoms: C6_12  and  C7_17
REMARK    6  A    between atoms: C7_17  and  O3_18
REMARK    7  A    between atoms: C7_17  and  C8_20
REMARK    8  A    between atoms: C9_24  and  S1_25
REMARK    9  A    between atoms: S1_25  and  C10_26
REMARK   10  A    between atoms: C11_27  and  C12_28
REMARK   11  A    between atoms: C13_29  and  O7_30
REMARK   12  A    between atoms: C14_32  and  O8_33
REMARK   13  A    between atoms: C15_35  and  N4_36
REMARK   14  A    between atoms: C18_44  and  N7_45
REMARK   15  A    between atoms: C19_48  and  O11_49
REMARK   16  A    between atoms: C20_51  and  O12_52
ROOT
HETATM    1  S1  UNL     1      -9.342  -4.583  15.355  1.00  0.00    -0.082 SA
ENDROOT
BRANCH   1   2
HETATM    2  C9  UNL     1      -7.736  -4.583  14.554  1.00  0.00     0.339 C
HETATM    3  O6  UNL     1      -7.850  -4.025  13.282  1.00  0.00    -0.298 OA
HETATM    4  C5  UNL     1      -6.612  -3.925  12.651  1.00  0.00     0.422 C
HETATM    5  O1  UNL     1      -5.675  -4.564  13.443  1.00  0.00    -0.288 OA
HETATM    6  C4  UNL     1      -5.587  -3.838  14.632  1.00  0.00     0.399 C
HETATM    7  O13 UNL     1      -6.792  -3.909  15.330  1.00  0.00    -0.302 OA
BRANCH   4   8
HETATM    8  O2  UNL     1      -6.637  -4.347  11.342  1.00  0.00    -0.302 OA
BRANCH   8   9
HETATM    9  C6  UNL     1      -7.254  -3.493  10.465  1.00  0.00     0.362 C
BRANCH   9  10
HETATM   10  N3  UNL     1      -8.665  -3.747  10.298  1.00  0.00    -0.050 N
ATOM     11  H33 UNL     1      -9.036  -4.256  11.101  1.00  0.00     0.277 HD
ATOM     12  H32 UNL     1      -9.197  -2.881  10.383  1.00  0.00     0.277 HD
ATOM     13  H31 UNL     1      -8.898  -4.228   9.429  1.00  0.00     0.277 HD
ENDBRANCH   9  10
BRANCH   9  14
HETATM   14  C7  UNL     1      -6.599  -3.457   9.103  1.00  0.00     0.274 C
BRANCH  14  15
HETATM   15  O3  UNL     1      -5.309  -2.949   9.164  1.00  0.00    -0.381 OA
ATOM     16  H3  UNL     1      -4.742  -3.348   8.515  1.00  0.00     0.210 HD
ENDBRANCH  14  15
BRANCH  14  17
HETATM   17  C8  UNL     1      -7.389  -2.556   8.214  1.00  0.00     0.207 C
HETATM   18  O4  UNL     1      -7.926  -3.084   7.205  1.00  0.00    -0.646 OA
HETATM   19  O5  UNL     1      -7.553  -1.214   8.439  1.00  0.00    -0.646 OA
ENDBRANCH  14  17
ENDBRANCH   9  14
ENDBRANCH   8   9
ENDBRANCH   4   8
BRANCH   6  20
HETATM   20  N2  UNL     1      -4.454  -4.252  15.429  1.00  0.00    -0.248 N
HETATM   21  C3  UNL     1      -3.970  -5.476  15.660  1.00  0.00     0.119 A
HETATM   22  C2  UNL     1      -2.869  -5.388  16.486  1.00  0.00     0.068 A
HETATM   23  C1  UNL     1      -2.709  -4.038  16.746  1.00  0.00     0.115 A
HETATM   24  N1  UNL     1      -1.816  -3.461  17.468  1.00  0.00    -0.384 N
HETATM   25  N8  UNL     1      -3.684  -3.411  16.088  1.00  0.00    -0.280 N
ATOM     26  H12 UNL     1      -1.070  -3.941  17.972  1.00  0.00     0.157 HD
ATOM     27  H11 UNL     1      -1.698  -2.466  17.660  1.00  0.00     0.157 HD
ATOM     28  H8  UNL     1      -3.818  -2.399  16.094  1.00  0.00     0.189 HD
ENDBRANCH   6  20
ENDBRANCH   1   2
BRANCH   1  29
HETATM   29  C10 UNL     1     -10.285  -3.142  14.896  1.00  0.00     0.046 C
HETATM   30  C11 UNL     1     -10.621  -2.882  13.633  1.00  0.00    -0.010 C
BRANCH  30  31
HETATM   31  C12 UNL     1     -11.398  -1.691  13.273  1.00  0.00     0.071 C
HETATM   32  C13 UNL     1     -10.502  -0.680  12.631  1.00  0.00     0.159 C
HETATM   33  C14 UNL     1     -10.242  -1.136  11.191  1.00  0.00     0.175 C
HETATM   34  C15 UNL     1     -11.561  -1.026  10.490  1.00  0.00     0.172 C
HETATM   35  C19 UNL     1     -12.390  -2.204  11.029  1.00  0.00     0.175 C
HETATM   36  C20 UNL     1     -12.661  -1.989  12.505  1.00  0.00     0.159 C
BRANCH  32  37
HETATM   37  O7  UNL     1      -9.343  -0.571  13.353  1.00  0.00    -0.392 OA
ATOM     38  H7  UNL     1      -9.304   0.284  13.765  1.00  0.00     0.210 HD
ENDBRANCH  32  37
BRANCH  33  39
HETATM   39  O8  UNL     1      -9.198  -0.473  10.602  1.00  0.00    -0.391 OA
ATOM     40  H8  UNL     1      -8.468  -0.331  11.194  1.00  0.00     0.210 HD
ENDBRANCH  33  39
BRANCH  34  41
HETATM   41  N4  UNL     1     -11.525  -0.999   9.074  1.00  0.00    -0.260 N
HETATM   42  N5  UNL     1     -10.806  -1.770   8.276  1.00  0.00    -0.281 N
HETATM   43  C16 UNL     1     -11.007  -1.483   6.979  1.00  0.00     0.117 A
ATOM     44  H5  UNL     1     -10.172  -2.498   8.606  1.00  0.00     0.189 HD
HETATM   45  N6  UNL     1     -10.440  -2.072   5.964  1.00  0.00    -0.384 N
HETATM   46  C17 UNL     1     -11.915  -0.457   6.952  1.00  0.00     0.105 A
ATOM     47  H62 UNL     1      -9.764  -2.835   5.985  1.00  0.00     0.157 HD
ATOM     48  H61 UNL     1     -10.592  -1.854   4.980  1.00  0.00     0.157 HD
HETATM   49  C18 UNL     1     -12.231  -0.166   8.284  1.00  0.00     0.194 A
BRANCH  49  50
HETATM   50  N7  UNL     1     -13.160   0.864   8.614  1.00  0.00    -0.096 N
HETATM   51  O9  UNL     1     -12.835   2.085   8.495  1.00  0.00    -0.530 OA
HETATM   52  O10 UNL     1     -14.429   0.659   9.069  1.00  0.00    -0.530 OA
ENDBRANCH  49  50
ENDBRANCH  34  41
BRANCH  35  53
HETATM   53  O11 UNL     1     -11.647  -3.347  10.879  1.00  0.00    -0.391 OA
ATOM     54  H11 UNL     1     -10.730  -3.114  10.974  1.00  0.00     0.210 HD
ENDBRANCH  35  53
BRANCH  36  55
HETATM   55  O12 UNL     1     -13.183  -3.183  13.002  1.00  0.00    -0.392 OA
ATOM     56  H12 UNL     1     -12.870  -3.886  12.445  1.00  0.00     0.210 HD
ENDBRANCH  36  55
ENDBRANCH  30  31
ENDBRANCH   1  29
TORSDOF 16
ENDMDL