MODEL 5
REMARK VINA RESULT: -7.765537382      2.756      5.900
REMARK  20 active torsions:
REMARK  status: ('A' for Active; 'I' for Inactive)
REMARK    1  A    between atoms: C3_4  and  O2_5
REMARK    2  A    between atoms: O2_5  and  C4_6
REMARK    3  A    between atoms: C6_9  and  O4_10
REMARK    4  A    between atoms: C8_13  and  O5_14
REMARK    5  A    between atoms: C9_16  and  O6_17
REMARK    6  A    between atoms: C10_19  and  O7_20
REMARK    7  A    between atoms: O7_20  and  C11_21
REMARK    8  A    between atoms: C12_23  and  O9_24
REMARK    9  A    between atoms: C14_28  and  O10_29
REMARK   10  A    between atoms: O10_29  and  C15_30
REMARK   11  A    between atoms: C15_30  and  C16_31
REMARK   12  A    between atoms: C16_31  and  O11_32
REMARK   13  A    between atoms: C16_31  and  C17_34
REMARK   14  A    between atoms: C18_36  and  C19_37
REMARK   15  A    between atoms: C19_37  and  O13_38
REMARK   16  A    between atoms: C20_40  and  O14_41
REMARK   17  A    between atoms: C21_43  and  O15_44
REMARK   18  A    between atoms: C22_46  and  O16_47
REMARK   19  A    between atoms: C23_50  and  C24_51
REMARK   20  A    between atoms: C24_51  and  O18_52
ROOT
HETATM    1  C11 UNL     1     -11.435  -1.132  13.071  1.00  0.00     0.296 C
HETATM    2  O8  UNL     1     -12.281  -0.211  12.504  1.00  0.00    -0.306 OA
HETATM    3  C12 UNL     1     -12.138  -0.042  11.147  1.00  0.00     0.309 C
HETATM    4  C13 UNL     1     -13.315   0.696  10.689  1.00  0.00     0.134 C
HETATM    5  N1  UNL     1     -14.255   1.274  10.313  1.00  0.00    -0.191 NA
HETATM    6  C14 UNL     1     -11.925  -1.273  10.361  1.00  0.00     0.339 C
HETATM    7  O17 UNL     1     -11.973  -2.445  11.118  1.00  0.00    -0.342 OA
HETATM    8  C23 UNL     1     -11.316  -2.413  12.301  1.00  0.00     0.203 C
ENDROOT
BRANCH   3   9
HETATM    9  O9  UNL     1     -11.034   0.797  10.979  1.00  0.00    -0.350 OA
ATOM     10  H9  UNL     1     -10.407   0.304  10.463  1.00  0.00     0.214 HD
ENDBRANCH   3   9
BRANCH   6  11
HETATM   11  O10 UNL     1     -10.722  -1.311   9.688  1.00  0.00    -0.352 OA
BRANCH  11  12
HETATM   12  C15 UNL     1     -10.657  -2.210   8.660  1.00  0.00     0.205 C
BRANCH  12  13
HETATM   13  C16 UNL     1      -9.310  -2.409   8.018  1.00  0.00     0.173 C
BRANCH  13  14
HETATM   14  O11 UNL     1      -8.929  -1.325   7.243  1.00  0.00    -0.391 OA
ATOM     15  H11 UNL     1      -9.222  -1.403   6.342  1.00  0.00     0.210 HD
ENDBRANCH  13  14
BRANCH  13  16
HETATM   16  C17 UNL     1      -8.253  -2.739   9.063  1.00  0.00     0.184 C
HETATM   17  O12 UNL     1      -8.657  -3.874   9.762  1.00  0.00    -0.370 OA
HETATM   18  C18 UNL     1      -7.968  -3.840  10.989  1.00  0.00     0.177 C
HETATM   19  C20 UNL     1      -6.545  -3.407  10.825  1.00  0.00     0.180 C
HETATM   20  C21 UNL     1      -6.093  -3.796   9.418  1.00  0.00     0.180 C
HETATM   21  C22 UNL     1      -6.898  -2.937   8.453  1.00  0.00     0.181 C
BRANCH  18  22
HETATM   22  C19 UNL     1      -8.104  -5.177  11.695  1.00  0.00     0.198 C
BRANCH  22  23
HETATM   23  O13 UNL     1      -7.380  -6.122  10.983  1.00  0.00    -0.398 OA
ATOM     24  H13 UNL     1      -6.802  -6.572  11.588  1.00  0.00     0.209 HD
ENDBRANCH  22  23
ENDBRANCH  18  22
BRANCH  19  25
HETATM   25  O14 UNL     1      -5.673  -3.976  11.736  1.00  0.00    -0.390 OA
ATOM     26  H14 UNL     1      -5.312  -4.809  11.458  1.00  0.00     0.210 HD
ENDBRANCH  19  25
BRANCH  20  27
HETATM   27  O15 UNL     1      -4.719  -3.522   9.258  1.00  0.00    -0.390 OA
ATOM     28  H15 UNL     1      -4.414  -2.959   9.960  1.00  0.00     0.210 HD
ENDBRANCH  20  27
BRANCH  21  29
HETATM   29  O16 UNL     1      -6.951  -3.536   7.199  1.00  0.00    -0.390 OA
ATOM     30  H16 UNL     1      -6.096  -3.626   6.795  1.00  0.00     0.210 HD
ENDBRANCH  21  29
ENDBRANCH  13  16
ENDBRANCH  12  13
ENDBRANCH  11  12
ENDBRANCH   6  11
BRANCH   1  31
HETATM   31  O7  UNL     1     -10.211  -0.507  13.268  1.00  0.00    -0.348 OA
BRANCH  31  32
HETATM   32  C10 UNL     1      -9.305  -1.405  13.746  1.00  0.00     0.184 C
HETATM   33  C2  UNL     1      -7.873  -1.061  13.375  1.00  0.00     0.152 C
HETATM   34  C1  UNL     1      -7.512   0.314  13.916  1.00  0.00     0.042 C
HETATM   35  O1  UNL     1      -6.974  -1.972  13.779  1.00  0.00    -0.351 OA
HETATM   36  C3  UNL     1      -7.352  -2.942  14.651  1.00  0.00     0.298 C
HETATM   37  C8  UNL     1      -8.415  -2.609  15.633  1.00  0.00     0.205 C
HETATM   38  C9  UNL     1      -9.266  -1.435  15.280  1.00  0.00     0.183 C
BRANCH  36  39
HETATM   39  O2  UNL     1      -6.211  -3.365  15.367  1.00  0.00    -0.316 OA
BRANCH  39  40
HETATM   40  C4  UNL     1      -5.555  -4.564  15.148  1.00  0.00     0.099 A
HETATM   41  C5  UNL     1      -4.216  -4.820  15.336  1.00  0.00     0.181 A
HETATM   42  O3  UNL     1      -3.964  -6.090  15.016  1.00  0.00    -0.298 OA
HETATM   43  C6  UNL     1      -5.062  -6.689  14.627  1.00  0.00     0.185 A
HETATM   44  C7  UNL     1      -6.081  -5.763  14.696  1.00  0.00     0.102 A
BRANCH  43  45
HETATM   45  O4  UNL     1      -5.154  -8.032  14.220  1.00  0.00    -0.341 OA
ATOM     46  H4  UNL     1      -4.691  -8.414  13.484  1.00  0.00     0.220 HD
ENDBRANCH  43  45
ENDBRANCH  39  40
ENDBRANCH  36  39
BRANCH  37  47
HETATM   47  O5  UNL     1      -7.842  -2.334  16.897  1.00  0.00    -0.388 OA
ATOM     48  H5  UNL     1      -7.404  -1.490  16.881  1.00  0.00     0.210 HD
ENDBRANCH  37  47
BRANCH  38  49
HETATM   49  O6  UNL     1     -10.542  -1.550  15.812  1.00  0.00    -0.390 OA
ATOM     50  H6  UNL     1     -11.168  -1.844  15.160  1.00  0.00     0.210 HD
ENDBRANCH  38  49
ENDBRANCH  31  32
ENDBRANCH   1  31
BRANCH   8  51
HETATM   51  C24 UNL     1     -11.791  -3.612  13.126  1.00  0.00     0.201 C
BRANCH  51  52
HETATM   52  O18 UNL     1     -12.271  -4.634  12.278  1.00  0.00    -0.398 OA
ATOM     53  H18 UNL     1     -12.156  -5.483  12.686  1.00  0.00     0.209 HD
ENDBRANCH  51  52
ENDBRANCH   8  51
TORSDOF 20
ENDMDL