MODEL 1
REMARK VINA RESULT: -8.231259838      0.000      0.000
REMARK  20 active torsions:
REMARK  status: ('A' for Active; 'I' for Inactive)
REMARK    1  A    between atoms: N1_1  and  C1_4
REMARK    2  A    between atoms: C1_4  and  N2_5
REMARK    3  A    between atoms: N2_5  and  C2_7
REMARK    4  A    between atoms: C3_10  and  N4_11
REMARK    5  A    between atoms: N4_11  and  O1_12
REMARK    6  A    between atoms: N4_11  and  C4_17
REMARK    7  A    between atoms: O1_12  and  S1_13
REMARK    8  A    between atoms: C4_17  and  O5_18
REMARK    9  A    between atoms: C4_17  and  N5_20
REMARK   10  A    between atoms: N5_20  and  S2_22
REMARK   11  A    between atoms: S2_22  and  C5_25
REMARK   12  A    between atoms: C5_25  and  C6_26
REMARK   13  A    between atoms: C6_26  and  N6_27
REMARK   14  A    between atoms: C6_26  and  C7_31
REMARK   15  A    between atoms: N6_27  and  O8_29
REMARK   16  A    between atoms: C8_35  and  N7_36
REMARK   17  A    between atoms: C11_41  and  N9_42
REMARK   18  A    between atoms: C12_47  and  N11_48
REMARK   19  A    between atoms: N13_54  and  C14_55
REMARK   20  A    between atoms: N14_56  and  O12_58
ROOT
HETATM    1  C2  UNL     1      -8.798  -1.624  14.020  1.00  0.00     0.696 C
HETATM    2  N3  UNL     1      -8.551  -0.982  12.929  1.00  0.00    -0.178 N
ATOM      3  H3  UNL     1      -8.842  -0.007  12.851  1.00  0.00     0.182 HD
HETATM    4  C3  UNL     1      -7.866  -1.609  11.801  1.00  0.00     0.382 C
HETATM    5  O11 UNL     1      -7.119  -2.697  12.092  1.00  0.00    -0.303 OA
HETATM    6  C8  UNL     1      -7.067  -3.204  13.344  1.00  0.00     0.367 C
HETATM    7  N13 UNL     1      -8.342  -2.972  14.033  1.00  0.00    -0.131 N
ENDROOT
BRANCH   4   8
HETATM    8  N4  UNL     1      -8.825  -1.999  10.795  1.00  0.00    -0.151 N
BRANCH   8   9
HETATM    9  O1  UNL     1      -8.492  -2.982   9.939  1.00  0.00    -0.122 OA
BRANCH   9  10
HETATM   10  S1  UNL     1      -7.488  -2.431   8.714  1.00  0.00     0.274 S
HETATM   11  O2  UNL     1      -7.684  -0.956   8.500  1.00  0.00    -0.571 OA
HETATM   12  O3  UNL     1      -7.842  -3.087   7.389  1.00  0.00    -0.571 OA
HETATM   13  O4  UNL     1      -5.895  -2.803   9.103  1.00  0.00    -0.571 OA
ENDBRANCH   9  10
ENDBRANCH   8   9
BRANCH   8  14
HETATM   14  C4  UNL     1     -10.071  -1.380  10.701  1.00  0.00     0.258 C
BRANCH  14  15
HETATM   15  O5  UNL     1     -10.083  -0.097  10.460  1.00  0.00    -0.330 OA
ATOM     16  H5  UNL     1     -10.572   0.197   9.700  1.00  0.00     0.221 HD
ENDBRANCH  14  15
BRANCH  14  17
HETATM   17  N5  UNL     1     -11.349  -1.935  10.826  1.00  0.00    -0.248 N
ATOM     18  H5  UNL     1     -11.896  -1.682  11.649  1.00  0.00     0.182 HD
BRANCH  17  19
HETATM   19  S2  UNL     1     -12.067  -3.013   9.693  1.00  0.00     0.235 S
HETATM   20  O6  UNL     1     -11.946  -4.455  10.121  1.00  0.00    -0.205 OA
HETATM   21  O7  UNL     1     -13.543  -2.652   9.611  1.00  0.00    -0.205 OA
BRANCH  19  22
HETATM   22  C5  UNL     1     -11.402  -2.877   8.071  1.00  0.00     0.201 C
BRANCH  22  23
HETATM   23  C6  UNL     1     -11.337  -1.444   7.577  1.00  0.00     0.222 C
BRANCH  23  24
HETATM   24  N6  UNL     1     -12.617  -0.864   7.326  1.00  0.00    -0.289 N
ATOM     25  H6  UNL     1     -13.398  -0.966   7.975  1.00  0.00     0.188 HD
BRANCH  24  26
HETATM   26  O8  UNL     1     -12.722  -0.181   6.190  1.00  0.00    -0.294 OA
ATOM     27  H8  UNL     1     -11.905   0.148   5.834  1.00  0.00     0.244 HD
ENDBRANCH  24  26
ENDBRANCH  23  24
BRANCH  23  28
HETATM   28  C7  UNL     1     -10.598  -1.495   6.286  1.00  0.00     0.199 C
HETATM   29  O9  UNL     1     -10.706  -2.437   5.463  1.00  0.00    -0.646 OA
HETATM   30  O10 UNL     1      -9.741  -0.452   5.964  1.00  0.00    -0.646 OA
ENDBRANCH  23  28
ENDBRANCH  22  23
ENDBRANCH  19  22
ENDBRANCH  17  19
ENDBRANCH  14  17
ENDBRANCH   8  14
ENDBRANCH   4   8
BRANCH   1  31
HETATM   31  N2  UNL     1      -9.453  -1.108  15.156  1.00  0.00    -0.140 N
ATOM     32  H2  UNL     1     -10.445  -0.882  15.084  1.00  0.00     0.195 HD
BRANCH  31  33
HETATM   33  C1  UNL     1      -8.866  -0.909  16.266  1.00  0.00     0.059 C
BRANCH  33  34
HETATM   34  N1  UNL     1      -8.179  -1.017  17.334  1.00  0.00    -0.351 N
ATOM     35  H12 UNL     1      -7.295  -1.038  16.826  1.00  0.00     0.167 HD
ATOM     36  H11 UNL     1      -7.865  -1.097  18.300  1.00  0.00     0.167 HD
ENDBRANCH  33  34
ENDBRANCH  31  33
ENDBRANCH   1  31
BRANCH   6  37
HETATM   37  N7  UNL     1      -6.787  -4.637  13.251  1.00  0.00    -0.281 N
HETATM   38  C9  UNL     1      -7.384  -5.528  12.448  1.00  0.00     0.189 A
HETATM   39  N8  UNL     1      -6.829  -6.739  12.676  1.00  0.00    -0.346 N
HETATM   40  C10 UNL     1      -5.877  -6.575  13.637  1.00  0.00     0.123 A
ATOM     41  H8  UNL     1      -7.077  -7.615  12.214  1.00  0.00     0.167 HD
HETATM   42  C11 UNL     1      -5.024  -7.493  14.231  1.00  0.00     0.145 A
HETATM   43  C13 UNL     1      -5.849  -5.239  14.004  1.00  0.00     0.158 A
HETATM   44  N10 UNL     1      -4.179  -7.025  15.169  1.00  0.00    -0.175 N
HETATM   45  C12 UNL     1      -4.174  -5.718  15.509  1.00  0.00     0.679 A
ATOM     46  H10 UNL     1      -3.535  -7.667  15.631  1.00  0.00     0.186 HD
HETATM   47  N12 UNL     1      -4.991  -4.812  14.946  1.00  0.00    -0.174 N
ATOM     48  H12 UNL     1      -4.961  -3.831  15.225  1.00  0.00     0.186 HD
BRANCH  42  49
HETATM   49  N9  UNL     1      -5.032  -8.745  13.898  1.00  0.00    -0.383 N
ATOM     50  H92 UNL     1      -5.906  -9.266  13.819  1.00  0.00     0.157 HD
ATOM     51  H91 UNL     1      -4.169  -9.255  13.707  1.00  0.00     0.157 HD
ENDBRANCH  42  49
BRANCH  45  52
HETATM   52  N11 UNL     1      -3.337  -5.348  16.419  1.00  0.00    -0.234 N
ATOM     53 2H11 UNL     1      -3.027  -6.017  17.124  1.00  0.00     0.174 HD
ATOM     54 1H11 UNL     1      -3.014  -4.381  16.391  1.00  0.00     0.174 HD
ENDBRANCH  45  52
ENDBRANCH   6  37
BRANCH   7  55
HETATM   55  C14 UNL     1      -9.063  -4.015  14.657  1.00  0.00     0.228 C
HETATM   56  N14 UNL     1     -10.107  -4.522  14.187  1.00  0.00    -0.264 N
ATOM     57  H14 UNL     1     -10.502  -5.267  14.762  1.00  0.00     0.194 HD
BRANCH  56  58
HETATM   58  O12 UNL     1     -10.803  -4.269  13.069  1.00  0.00    -0.289 OA
ATOM     59  H12 UNL     1     -10.836  -4.709  12.228  1.00  0.00     0.244 HD
ENDBRANCH  56  58
ENDBRANCH   7  55
TORSDOF 20
ENDMDL