MODEL 2
REMARK VINA RESULT: -6.881897503      3.109      5.743
REMARK  20 active torsions:
REMARK  status: ('A' for Active; 'I' for Inactive)
REMARK    1  A    between atoms: O1_1  and  C1_3
REMARK    2  A    between atoms: C1_3  and  C2_4
REMARK    3  A    between atoms: C3_6  and  O3_7
REMARK    4  A    between atoms: O3_7  and  C4_8
REMARK    5  A    between atoms: C5_9  and  O4_10
REMARK    6  A    between atoms: O4_10  and  C6_11
REMARK    7  A    between atoms: C7_12  and  O5_13
REMARK    8  A    between atoms: C8_15  and  C9_16
REMARK    9  A    between atoms: C9_16  and  O6_17
REMARK   10  A    between atoms: C10_20  and  S1_21
REMARK   11  A    between atoms: S1_21  and  S2_22
REMARK   12  A    between atoms: S2_22  and  C11_23
REMARK   13  A    between atoms: C15_28  and  O9_29
REMARK   14  A    between atoms: C16_32  and  C17_33
REMARK   15  A    between atoms: C17_33  and  O11_34
REMARK   16  A    between atoms: C18_36  and  O12_37
REMARK   17  A    between atoms: C19_39  and  O13_40
REMARK   18  A    between atoms: C20_42  and  O14_43
REMARK   19  A    between atoms: C21_45  and  O15_46
REMARK   20  A    between atoms: C22_48  and  O16_49
ROOT
HETATM    1  C4  UNL     1      -8.669  -1.928  10.606  1.00  0.00     0.211 C
HETATM    2  C5  UNL     1      -9.978  -2.516  10.070  1.00  0.00     0.292 C
HETATM    3  O10 UNL     1     -10.160  -1.936   8.807  1.00  0.00    -0.348 OA
HETATM    4  C16 UNL     1      -9.214  -2.386   7.918  1.00  0.00     0.179 C
HETATM    5  C18 UNL     1      -7.788  -2.049   8.343  1.00  0.00     0.180 C
HETATM    6  C19 UNL     1      -7.598  -2.584   9.721  1.00  0.00     0.183 C
ENDROOT
BRANCH   2   7
HETATM    7  O4  UNL     1     -11.047  -2.331  10.900  1.00  0.00    -0.348 OA
BRANCH   7   8
HETATM    8  C6  UNL     1     -11.468  -3.540  11.452  1.00  0.00     0.188 C
HETATM    9  C7  UNL     1     -12.959  -3.699  11.332  1.00  0.00     0.180 C
HETATM   10  C8  UNL     1     -13.609  -4.452  12.438  1.00  0.00     0.178 C
HETATM   11  O7  UNL     1     -12.683  -5.288  13.029  1.00  0.00    -0.362 OA
HETATM   12  C10 UNL     1     -11.788  -4.509  13.745  1.00  0.00     0.226 C
HETATM   13  C15 UNL     1     -10.967  -3.610  12.864  1.00  0.00     0.189 C
BRANCH   9  14
HETATM   14  O5  UNL     1     -13.233  -4.406  10.136  1.00  0.00    -0.390 OA
ATOM     15  H5  UNL     1     -13.997  -4.014   9.728  1.00  0.00     0.210 HD
ENDBRANCH   9  14
BRANCH  10  16
HETATM   16  C9  UNL     1     -14.812  -5.210  11.915  1.00  0.00     0.198 C
BRANCH  16  17
HETATM   17  O6  UNL     1     -14.475  -6.522  11.591  1.00  0.00    -0.398 OA
ATOM     18  H6  UNL     1     -15.201  -6.967  11.171  1.00  0.00     0.209 HD
ENDBRANCH  16  17
ENDBRANCH  10  16
BRANCH  12  19
HETATM   19  S1  UNL     1     -12.728  -3.531  14.946  1.00  0.00    -0.057 SA
BRANCH  19  20
HETATM   20  S2  UNL     1     -11.866  -3.694  16.866  1.00  0.00    -0.053 SA
BRANCH  20  21
HETATM   21  C11 UNL     1     -10.213  -3.029  16.813  1.00  0.00     0.035 A
HETATM   22  C12 UNL     1      -9.806  -1.909  17.512  1.00  0.00     0.045 A
HETATM   23  C13 UNL     1      -8.468  -1.694  17.225  1.00  0.00     0.142 A
HETATM   24  O8  UNL     1      -8.092  -2.637  16.396  1.00  0.00    -0.333 OA
HETATM   25  C14 UNL     1      -9.095  -3.448  16.125  1.00  0.00     0.160 A
ENDBRANCH  20  21
ENDBRANCH  19  20
ENDBRANCH  12  19
BRANCH  13  26
HETATM   26  O9  UNL     1     -10.927  -2.336  13.424  1.00  0.00    -0.389 OA
ATOM     27  H9  UNL     1     -10.164  -1.863  13.112  1.00  0.00     0.210 HD
ENDBRANCH  13  26
ENDBRANCH   7   8
ENDBRANCH   2   7
BRANCH   1  28
HETATM   28  O3  UNL     1      -8.727  -0.572  10.404  1.00  0.00    -0.346 OA
BRANCH  28  29
HETATM   29  C3  UNL     1      -8.694   0.201  11.558  1.00  0.00     0.292 C
HETATM   30  O2  UNL     1      -8.866  -0.545  12.705  1.00  0.00    -0.348 OA
HETATM   31  C2  UNL     1      -8.686   0.210  13.836  1.00  0.00     0.179 C
HETATM   32  C22 UNL     1      -9.286   1.598  13.759  1.00  0.00     0.180 C
HETATM   33  C21 UNL     1     -10.451   1.533  12.784  1.00  0.00     0.183 C
HETATM   34  C20 UNL     1      -9.839   1.184  11.440  1.00  0.00     0.204 C
BRANCH  31  35
HETATM   35  C1  UNL     1      -7.234   0.379  14.234  1.00  0.00     0.198 C
BRANCH  35  36
HETATM   36  O1  UNL     1      -6.831   1.698  14.165  1.00  0.00    -0.398 OA
ATOM     37  H1  UNL     1      -7.185   2.138  13.401  1.00  0.00     0.209 HD
ENDBRANCH  35  36
ENDBRANCH  31  35
BRANCH  32  38
HETATM   38  O16 UNL     1      -9.733   2.076  14.965  1.00  0.00    -0.390 OA
ATOM     39  H16 UNL     1     -10.236   2.878  14.897  1.00  0.00     0.210 HD
ENDBRANCH  32  38
BRANCH  33  40
HETATM   40  O15 UNL     1     -11.314   0.558  13.248  1.00  0.00    -0.390 OA
ATOM     41  H15 UNL     1     -12.126   0.916  13.587  1.00  0.00     0.210 HD
ENDBRANCH  33  40
BRANCH  34  42
HETATM   42  O14 UNL     1      -9.321   2.369  10.922  1.00  0.00    -0.388 OA
ATOM     43  H14 UNL     1      -9.524   3.063  11.538  1.00  0.00     0.210 HD
ENDBRANCH  34  42
ENDBRANCH  28  29
ENDBRANCH   1  28
BRANCH   6  44
HETATM   44  O13 UNL     1      -6.335  -2.487  10.228  1.00  0.00    -0.390 OA
ATOM     45  H13 UNL     1      -5.748  -3.166   9.919  1.00  0.00     0.210 HD
ENDBRANCH   6  44
BRANCH   4  46
HETATM   46  C17 UNL     1      -9.525  -1.757   6.571  1.00  0.00     0.198 C
BRANCH  46  47
HETATM   47  O11 UNL     1      -8.945  -0.509   6.427  1.00  0.00    -0.398 OA
ATOM     48  H11 UNL     1      -8.540  -0.394   5.575  1.00  0.00     0.209 HD
ENDBRANCH  46  47
ENDBRANCH   4  46
BRANCH   5  49
HETATM   49  O12 UNL     1      -6.922  -2.605   7.421  1.00  0.00    -0.390 OA
ATOM     50  H12 UNL     1      -6.119  -2.839   7.872  1.00  0.00     0.210 HD
ENDBRANCH   5  49
TORSDOF 20
ENDMDL