MODEL 1
REMARK VINA RESULT: -5.147280492      0.000      0.000
REMARK  2 active torsions:
REMARK  status: ('A' for Active; 'I' for Inactive)
REMARK    1  A    between atoms: S1_2  and  O4_5
REMARK    2  A    between atoms: O4_5  and  C1_6
ROOT
HETATM    1  C1  UNL     1      39.351  -1.246  13.732  1.00  0.00     0.169 C
HETATM    2  C2  UNL     1      39.949  -1.519  12.419  1.00  0.00     0.109 C
HETATM    3  S2  UNL     1      41.577  -2.666  13.140  1.00  0.00    -0.155 SA
HETATM    4  C3  UNL     1      40.816  -2.722  15.036  1.00  0.00     0.093 C
HETATM    5  C4  UNL     1      40.341  -1.300  14.833  1.00  0.00     0.098 C
HETATM    6  S3  UNL     1      41.579  -0.019  14.550  1.00  0.00    -0.100 SA
ENDROOT
BRANCH   1   7
HETATM    7  O4  UNL     1      38.663  -0.048  13.838  1.00  0.00    -0.249 OA
BRANCH   7   8
HETATM    8  S1  UNL     1      37.406  -0.065  14.904  1.00  0.00     0.252 S
HETATM    9  O1  UNL     1      37.701   0.963  15.989  1.00  0.00    -0.572 OA
HETATM   10  O2  UNL     1      36.079   0.223  14.296  1.00  0.00    -0.572 OA
HETATM   11  O3  UNL     1      37.272  -1.536  15.722  1.00  0.00    -0.572 OA
ENDBRANCH   7   8
ENDBRANCH   1   7
TORSDOF 2
ENDMDL