MODEL 3
REMARK VINA RESULT: -6.119797300      1.662      1.977
REMARK  2 active torsions:
REMARK  status: ('A' for Active; 'I' for Inactive)
REMARK    1  A    between atoms: O1_2  and  C2_3
REMARK    2  A    between atoms: C3_5  and  C5_8
ROOT
HETATM    1  C2  UNL     1      26.555  -4.446  13.057  1.00  0.00     0.295 C
HETATM    2  O2  UNL     1      26.121  -5.731  12.901  1.00  0.00    -0.322 OA
HETATM    3  C3  UNL     1      26.478  -6.654  13.830  1.00  0.00     0.266 C
HETATM    4  C4  UNL     1      26.346  -7.986  13.185  1.00  0.00     0.111 C
HETATM    5  N1  UNL     1      26.247  -9.016  12.666  1.00  0.00    -0.193 NA
HETATM    6  C6  UNL     1      27.907  -6.563  14.313  1.00  0.00     0.338 C
HETATM    7  N2  UNL     1      28.579  -5.565  13.545  1.00  0.00     0.102 N
HETATM    8  C7  UNL     1      29.934  -5.325  13.906  1.00  0.00     0.273 C
HETATM    9  C8  UNL     1      30.147  -3.850  13.589  1.00  0.00     0.033 C
HETATM   10  C9  UNL     1      28.796  -3.314  13.162  1.00  0.00     0.042 C
HETATM   11  C10 UNL     1      27.862  -4.301  13.789  1.00  0.00     0.278 C
ENDROOT
BRANCH   3  12
HETATM   12  C5  UNL     1      25.555  -6.704  15.003  1.00  0.00     0.226 C
HETATM   13  O3  UNL     1      25.815  -6.039  16.038  1.00  0.00    -0.645 OA
HETATM   14  O4  UNL     1      24.400  -7.467  15.012  1.00  0.00    -0.645 OA
ENDBRANCH   3  12
BRANCH   1  15
HETATM   15  O1  UNL     1      25.540  -3.687  13.595  1.00  0.00    -0.364 OA
HETATM   16  C1  UNL     1      25.934  -3.046  14.766  1.00  0.00     0.204 C
ENDBRANCH   1  15
TORSDOF 2
ENDMDL