MODEL 2
REMARK VINA RESULT: -5.986496355      2.735      3.754
REMARK  2 active torsions:
REMARK  status: ('A' for Active; 'I' for Inactive)
REMARK    1  A    between atoms: N1_3  and  C3_4
REMARK    2  A    between atoms: C3_4  and  C4_5
ROOT
HETATM    1  C4  UNL     1      26.598  -4.124  13.814  1.00  0.00     0.058 C
HETATM    2  C5  UNL     1      25.576  -4.055  14.948  1.00  0.00     0.204 C
HETATM    3  O1  UNL     1      25.889  -2.929  15.687  1.00  0.00    -0.285 OA
HETATM    4  N2  UNL     1      27.200  -2.671  15.477  1.00  0.00    -0.088 NA
HETATM    5  C6  UNL     1      27.318  -2.822  14.060  1.00  0.00     0.087 C
HETATM    6  C7  UNL     1      28.752  -2.820  13.581  1.00  0.00     0.058 C
HETATM    7  C8  UNL     1      28.992  -1.313  13.498  1.00  0.00     0.170 C
HETATM    8  O2  UNL     1      27.767  -0.694  13.539  1.00  0.00    -0.389 OA
HETATM    9  C9  UNL     1      26.769  -1.647  13.324  1.00  0.00     0.197 C
ENDROOT
BRANCH   1  10
HETATM   10  C3  UNL     1      27.564  -5.295  14.034  1.00  0.00     0.131 C
BRANCH  10  11
HETATM   11  N1  UNL     1      27.205  -6.331  13.158  1.00  0.00    -0.389 N
HETATM   12  C2  UNL     1      26.936  -7.605  13.663  1.00  0.00     0.084 C
HETATM   13  C1  UNL     1      26.353  -8.593  12.710  1.00  0.00     0.212 C
HETATM   14  O3  UNL     1      25.558  -8.014  11.711  1.00  0.00    -0.385 OA
HETATM   15  C11 UNL     1      26.433  -7.134  11.031  1.00  0.00     0.187 C
HETATM   16  C10 UNL     1      26.626  -5.953  11.922  1.00  0.00     0.148 C
ENDBRANCH  10  11
ENDBRANCH   1  10
TORSDOF 2
ENDMDL