MODEL 4
REMARK VINA RESULT: -6.454957723      3.363      5.050
REMARK  3 active torsions:
REMARK  status: ('A' for Active; 'I' for Inactive)
REMARK    1  A    between atoms: O1_2  and  C2_3
REMARK    2  A    between atoms: C2_3  and  C3_5
REMARK    3  A    between atoms: C3_5  and  N1_6
ROOT
HETATM    1  N1  UNL     1      26.359  -4.786  13.141  1.00  0.00    -0.285 N
ATOM      2  H1  UNL     1      25.923  -3.867  13.207  1.00  0.00     0.175 HD
HETATM    3  C4  UNL     1      25.938  -5.677  12.154  1.00  0.00     0.180 C
HETATM    4  N2  UNL     1      25.564  -6.420  11.324  1.00  0.00    -0.172 NA
ENDROOT
BRANCH   1   5
HETATM    5  C3  UNL     1      27.394  -5.145  14.059  1.00  0.00     0.257 C
HETATM    6  C5  UNL     1      28.680  -5.408  13.358  1.00  0.00     0.244 C
HETATM    7  O3  UNL     1      29.166  -4.090  13.196  1.00  0.00    -0.350 OA
HETATM    8  C6  UNL     1      28.898  -3.521  14.443  1.00  0.00     0.168 C
HETATM    9  C7  UNL     1      30.020  -3.883  15.385  1.00  0.00     0.068 C
HETATM   10  C10 UNL     1      28.801  -2.033  14.421  1.00  0.00     0.068 C
HETATM   11  O4  UNL     1      27.708  -4.054  14.879  1.00  0.00    -0.313 OA
HETATM   12  C8  UNL     1      30.552  -2.569  15.893  1.00  0.00     0.006 C
HETATM   13  C9  UNL     1      30.119  -1.498  14.948  1.00  0.00     0.006 C
BRANCH   5  14
HETATM   14  C2  UNL     1      26.990  -6.238  14.981  1.00  0.00     0.318 C
HETATM   15  O2  UNL     1      27.843  -7.140  15.183  1.00  0.00    -0.260 OA
BRANCH  14  16
HETATM   16  O1  UNL     1      25.764  -6.287  15.591  1.00  0.00    -0.323 OA
HETATM   17  C1  UNL     1      24.825  -7.279  15.209  1.00  0.00     0.213 C
ENDBRANCH  14  16
ENDBRANCH   5  14
ENDBRANCH   1   5
TORSDOF 3
ENDMDL