MODEL 5
REMARK VINA RESULT: -6.058526019      1.838      6.000
REMARK  4 active torsions:
REMARK  status: ('A' for Active; 'I' for Inactive)
REMARK    1  A    between atoms: C2_3  and  C3_4
REMARK    2  A    between atoms: N3_7  and  N4_9
REMARK    3  A    between atoms: N4_9  and  C5_11
REMARK    4  A    between atoms: C5_11  and  N5_13
ROOT
HETATM    1  N1  UNL     1      29.649   0.079  15.721  1.00  0.00    -0.197 NA
HETATM    2  C1  UNL     1      30.225   1.027  15.372  1.00  0.00     0.066 C
HETATM    3  C2  UNL     1      30.931   2.213  14.915  1.00  0.00     0.194 C
ENDROOT
BRANCH   3   4
HETATM    4  C3  UNL     1      32.399   1.982  14.956  1.00  0.00     0.118 C
HETATM    5  C4  UNL     1      33.209   2.814  15.814  1.00  0.00     0.115 C
HETATM    6  N2  UNL     1      33.850   3.471  16.510  1.00  0.00    -0.190 NA
HETATM    7  N3  UNL     1      32.983   1.084  14.267  1.00  0.00    -0.291 N
ATOM      8  H3  UNL     1      32.423   0.491  13.656  1.00  0.00     0.187 HD
BRANCH   7   9
HETATM    9  N4  UNL     1      34.363   0.885  14.321  1.00  0.00    -0.275 N
ATOM     10  H4  UNL     1      34.897   1.478  14.955  1.00  0.00     0.189 HD
BRANCH   9  11
HETATM   11  C5  UNL     1      35.080  -0.073  13.567  1.00  0.00     0.188 C
HETATM   12  S1  UNL     1      34.245  -0.827  12.355  1.00  0.00    -0.039 SA
BRANCH  11  13
HETATM   13  N5  UNL     1      36.433  -0.433  13.760  1.00  0.00    -0.357 N
HETATM   14  C6  UNL     1      37.505  -0.347  12.799  1.00  0.00     0.125 C
HETATM   15  C7  UNL     1      38.739  -0.510  13.648  1.00  0.00     0.021 C
HETATM   16  C8  UNL     1      38.301  -1.581  14.624  1.00  0.00     0.021 C
HETATM   17  C9  UNL     1      36.950  -0.986  15.024  1.00  0.00     0.125 C
ENDBRANCH  11  13
ENDBRANCH   9  11
ENDBRANCH   7   9
ENDBRANCH   3   4
TORSDOF 4
ENDMDL