MODEL 4
REMARK VINA RESULT: -5.514232625      3.621      6.126
REMARK  2 active torsions:
REMARK  status: ('A' for Active; 'I' for Inactive)
REMARK       I    between atoms: C1_2  and  N1_4
REMARK    1  A    between atoms: N1_4  and  C2_6
REMARK    2  A    between atoms: C2_6  and  C3_7
ROOT
HETATM    1  C3  UNL     1      28.440  -1.110  14.211  1.00  0.00     0.146 C
HETATM    2  C4  UNL     1      29.025   0.132  13.549  1.00  0.00     0.095 C
HETATM    3  C5  UNL     1      30.093  -0.181  14.562  1.00  0.00     0.161 C
HETATM    4  O3  UNL     1      29.160  -0.781  15.359  1.00  0.00    -0.353 OA
HETATM    5  S1  UNL     1      31.439  -1.232  13.968  1.00  0.00    -0.119 SA
HETATM    6  C6  UNL     1      32.666  -0.009  13.519  1.00  0.00     0.088 C
HETATM    7  C7  UNL     1      32.615   1.109  14.489  1.00  0.00     0.088 C
HETATM    8  S2  UNL     1      30.995   1.207  15.221  1.00  0.00    -0.119 SA
ENDROOT
BRANCH   1   9
HETATM    9  C2  UNL     1      26.956  -1.096  14.352  1.00  0.00     0.157 C
BRANCH   9  10
HETATM   10  N1  UNL     1      26.407  -2.422  14.388  1.00  0.00    -0.333 N
HETATM   11  C1  UNL     1      25.889  -3.008  15.577  1.00  0.00     0.283 C
HETATM   12  O1  UNL     1      25.928  -2.307  16.633  1.00  0.00    -0.630 OA
HETATM   13  O2  UNL     1      25.373  -4.287  15.555  1.00  0.00    -0.630 OA
ATOM     14  H1  UNL     1      26.388  -2.967  13.526  1.00  0.00     0.165 HD
ENDBRANCH   9  10
ENDBRANCH   1   9
TORSDOF 2
ENDMDL