MODEL 5
REMARK VINA RESULT: -6.028290154      1.350      3.058
REMARK  3 active torsions:
REMARK  status: ('A' for Active; 'I' for Inactive)
REMARK    1  A    between atoms: O1_2  and  C2_3
REMARK    2  A    between atoms: C4_6  and  O3_7
REMARK    3  A    between atoms: C10_15  and  O5_16
ROOT
HETATM    1  C2  UNL     1      27.066  -6.398  12.361  1.00  0.00     0.269 C
HETATM    2  O2  UNL     1      26.603  -7.677  12.672  1.00  0.00    -0.350 OA
HETATM    3  C3  UNL     1      26.291  -7.713  13.998  1.00  0.00     0.194 C
HETATM    4  C4  UNL     1      25.119  -6.883  14.453  1.00  0.00     0.182 C
HETATM    5  C5  UNL     1      26.077  -6.142  15.385  1.00  0.00     0.191 C
HETATM    6  O4  UNL     1      26.105  -4.786  15.177  1.00  0.00    -0.369 OA
HETATM    7  C6  UNL     1      26.891  -4.523  14.062  1.00  0.00     0.065 C
HETATM    8  C7  UNL     1      27.994  -3.573  14.566  1.00  0.00     0.046 C
HETATM    9  C8  UNL     1      26.093  -3.725  13.093  1.00  0.00     0.046 C
HETATM   10  C9  UNL     1      27.528  -5.749  13.594  1.00  0.00     0.114 C
HETATM   11  C10 UNL     1      27.210  -6.762  14.669  1.00  0.00     0.128 C
ENDROOT
BRANCH   1  12
HETATM   12  O1  UNL     1      28.115  -6.601  11.454  1.00  0.00    -0.365 OA
HETATM   13  C1  UNL     1      28.927  -5.477  11.350  1.00  0.00     0.204 C
ENDBRANCH   1  12
BRANCH  11  14
HETATM   14  O5  UNL     1      28.276  -7.251  15.365  1.00  0.00    -0.379 OA
HETATM   15  C11 UNL     1      29.503  -6.847  14.925  1.00  0.00     0.202 C
ENDBRANCH  11  14
BRANCH   4  16
HETATM   16  O3  UNL     1      24.163  -7.605  15.168  1.00  0.00    -0.390 OA
ATOM     17  H3  UNL     1      24.341  -7.658  16.100  1.00  0.00     0.210 HD
ENDBRANCH   4  16
TORSDOF 3
ENDMDL