MODEL 3
REMARK VINA RESULT: -5.986529067      5.292      7.164
REMARK  4 active torsions:
REMARK  status: ('A' for Active; 'I' for Inactive)
REMARK    1  A    between atoms: O1_2  and  C2_3
REMARK    2  A    between atoms: C5_6  and  O2_7
REMARK    3  A    between atoms: C7_10  and  O3_11
REMARK    4  A    between atoms: O3_11  and  C8_12
ROOT
HETATM    1  C2  UNL     1      27.114  -6.346  14.061  1.00  0.00     0.172 C
HETATM    2  C3  UNL     1      26.424  -7.298  13.107  1.00  0.00     0.071 C
HETATM    3  C4  UNL     1      25.646  -6.414  12.161  1.00  0.00     0.037 C
HETATM    4  C5  UNL     1      25.105  -5.360  13.117  1.00  0.00     0.130 C
HETATM    5  C6  UNL     1      26.166  -5.213  14.179  1.00  0.00     0.108 C
HETATM    6  C7  UNL     1      26.998  -4.005  13.831  1.00  0.00     0.167 C
HETATM    7  C10 UNL     1      28.137  -4.600  13.079  1.00  0.00     0.204 C
HETATM    8  O5  UNL     1      28.265  -5.912  13.414  1.00  0.00    -0.352 OA
ENDROOT
BRANCH   6   9
HETATM    9  O3  UNL     1      27.507  -3.356  14.985  1.00  0.00    -0.314 OA
BRANCH   9  10
HETATM   10  C8  UNL     1      27.105  -2.065  15.339  1.00  0.00     0.255 C
HETATM   11  C9  UNL     1      27.257  -0.903  14.424  1.00  0.00     0.126 C
HETATM   12  O4  UNL     1      26.605  -1.936  16.486  1.00  0.00    -0.266 OA
ENDBRANCH   9  10
ENDBRANCH   6   9
BRANCH   1  13
HETATM   13  O1  UNL     1      27.486  -6.924  15.241  1.00  0.00    -0.359 OA
HETATM   14  C1  UNL     1      28.781  -7.337  15.335  1.00  0.00     0.205 C
ENDBRANCH   1  13
BRANCH   4  15
HETATM   15  O2  UNL     1      23.866  -5.709  13.631  1.00  0.00    -0.395 OA
ATOM     16  H2  UNL     1      23.940  -6.247  14.410  1.00  0.00     0.210 HD
ENDBRANCH   4  15
TORSDOF 4
ENDMDL