MODEL 3
REMARK VINA RESULT: -5.315949180      4.019      5.172
REMARK  3 active torsions:
REMARK  status: ('A' for Active; 'I' for Inactive)
REMARK    1  A    between atoms: N1_1  and  N2_4
REMARK    2  A    between atoms: N3_7  and  C3_8
REMARK    3  A    between atoms: C3_8  and  C4_9
ROOT
HETATM    1  N2  UNL     1      25.872  -6.675  15.054  1.00  0.00    -0.232 NA
HETATM    2  C1  UNL     1      26.771  -7.557  14.339  1.00  0.00     0.133 C
HETATM    3  C2  UNL     1      28.098  -6.922  14.329  1.00  0.00     0.143 C
HETATM    4  N3  UNL     1      28.170  -5.503  14.645  1.00  0.00    -0.370 N
HETATM    5  C8  UNL     1      27.061  -4.741  14.255  1.00  0.00     0.079 C
HETATM    6  C9  UNL     1      25.759  -5.518  14.189  1.00  0.00     0.157 C
ENDROOT
BRANCH   4   7
HETATM    7  C3  UNL     1      29.468  -5.009  14.479  1.00  0.00     0.079 C
BRANCH   7   8
HETATM    8  C4  UNL     1      29.561  -3.533  14.301  1.00  0.00     0.095 C
HETATM    9  C5  UNL     1      30.375  -2.917  15.465  1.00  0.00     0.094 C
HETATM   10  S1  UNL     1      29.929  -1.137  15.383  1.00  0.00    -0.167 SA
HETATM   11  C6  UNL     1      30.143  -0.578  13.644  1.00  0.00     0.084 C
HETATM   12  C7  UNL     1      31.167  -1.489  12.993  1.00  0.00     0.084 C
HETATM   13  S2  UNL     1      30.434  -3.136  12.755  1.00  0.00    -0.157 SA
ENDBRANCH   7   8
ENDBRANCH   4   7
BRANCH   1  14
HETATM   14  N1  UNL     1      24.688  -7.323  15.305  1.00  0.00    -0.363 NA
ATOM     15  H12 UNL     1      24.769  -8.141  15.908  1.00  0.00     0.171 HD
ATOM     16  H11 UNL     1      24.057  -6.704  15.815  1.00  0.00     0.171 HD
ENDBRANCH   1  14
TORSDOF 3
ENDMDL