MODEL 5
REMARK VINA RESULT: -5.891324006      3.826      7.416
REMARK  3 active torsions:
REMARK  status: ('A' for Active; 'I' for Inactive)
REMARK    1  A    between atoms: C1_2  and  C2_4
REMARK       I    between atoms: N1_8  and  C6_9
REMARK    2  A    between atoms: C6_9  and  O4_11
REMARK    3  A    between atoms: O4_11  and  C7_12
ROOT
HETATM    1  C2  UNL     1      26.742  -5.617  13.634  1.00  0.00     0.190 C
HETATM    2  C3  UNL     1      27.339  -6.610  12.693  1.00  0.00     0.038 C
HETATM    3  C4  UNL     1      28.101  -5.744  11.726  1.00  0.00     0.022 C
HETATM    4  C5  UNL     1      28.624  -4.631  12.643  1.00  0.00     0.129 C
HETATM    5  N1  UNL     1      27.608  -4.499  13.663  1.00  0.00    -0.313 N
HETATM    6  C6  UNL     1      27.547  -3.347  14.542  1.00  0.00     0.364 C
HETATM    7  O3  UNL     1      26.670  -3.200  15.420  1.00  0.00    -0.238 OA
ENDROOT
BRANCH   1   8
HETATM    8  C1  UNL     1      26.574  -6.278  14.957  1.00  0.00     0.197 C
HETATM    9  O1  UNL     1      27.508  -7.067  15.301  1.00  0.00    -0.646 OA
HETATM   10  O2  UNL     1      25.530  -6.116  15.815  1.00  0.00    -0.646 OA
ENDBRANCH   1   8
BRANCH   6  11
HETATM   11  O4  UNL     1      28.492  -2.353  14.425  1.00  0.00    -0.294 OA
BRANCH  11  12
HETATM   12  C7  UNL     1      29.191  -1.881  15.554  1.00  0.00     0.181 C
HETATM   13  C8  UNL     1      30.387  -2.794  15.813  1.00  0.00     0.202 C
HETATM   14  O5  UNL     1      31.091  -2.015  14.886  1.00  0.00    -0.386 OA
HETATM   15  C9  UNL     1      30.322  -0.939  15.282  1.00  0.00     0.202 C
ENDBRANCH  11  12
ENDBRANCH   6  11
TORSDOF 3
ENDMDL