MODEL 3
REMARK VINA RESULT: -7.645562036      3.716      9.131
REMARK  8 active torsions:
REMARK  status: ('A' for Active; 'I' for Inactive)
REMARK    1  A    between atoms: C2_2  and  C4_4
REMARK    2  A    between atoms: C4_4  and  C5_5
REMARK    3  A    between atoms: C5_5  and  N1_6
REMARK    4  A    between atoms: N1_6  and  C6_8
REMARK    5  A    between atoms: C6_8  and  N2_10
REMARK    6  A    between atoms: N3_17  and  C12_18
REMARK    7  A    between atoms: C12_18  and  C13_19
REMARK    8  A    between atoms: C18_24  and  O2_25
ROOT
HETATM    1  N2  UNL     1      24.642   6.987  18.466  1.00  0.00    -0.353 N
HETATM    2  C7  UNL     1      24.166   8.343  18.349  1.00  0.00     0.151 C
HETATM    3  C8  UNL     1      23.180   8.439  17.222  1.00  0.00     0.188 C
HETATM    4  O1  UNL     1      23.764   7.973  16.064  1.00  0.00    -0.377 OA
HETATM    5  C9  UNL     1      24.013   6.611  16.097  1.00  0.00     0.080 C
HETATM    6  C10 UNL     1      22.695   5.839  16.115  1.00  0.00     0.070 C
HETATM    7  C11 UNL     1      21.930   6.419  14.972  1.00  0.00     0.275 C
HETATM    8  N3  UNL     1      22.480   6.070  13.681  1.00  0.00     0.089 N
HETATM    9  C19 UNL     1      23.892   6.006  13.630  1.00  0.00     0.275 C
HETATM   10  C20 UNL     1      24.695   6.210  14.834  1.00  0.00     0.070 C
HETATM   11  C21 UNL     1      24.814   6.189  17.290  1.00  0.00     0.163 C
ENDROOT
BRANCH   1  12
HETATM   12  C6  UNL     1      24.917   6.482  19.778  1.00  0.00     0.169 C
HETATM   13  S1  UNL     1      24.112   5.170  20.286  1.00  0.00    -0.041 SA
BRANCH  12  14
HETATM   14  N1  UNL     1      25.863   7.141  20.587  1.00  0.00    -0.367 N
ATOM     15  H1  UNL     1      25.523   7.900  21.177  1.00  0.00     0.161 HD
BRANCH  14  16
HETATM   16  C5  UNL     1      27.275   6.835  20.653  1.00  0.00     0.122 C
BRANCH  16  17
HETATM   17  C4  UNL     1      27.992   8.011  21.268  1.00  0.00     0.023 C
BRANCH  17  18
HETATM   18  C2  UNL     1      29.154   7.412  22.064  1.00  0.00    -0.021 C
HETATM   19  C1  UNL     1      30.133   8.516  22.341  1.00  0.00     0.009 C
HETATM   20  C3  UNL     1      28.677   6.701  23.296  1.00  0.00     0.009 C
ENDBRANCH  17  18
ENDBRANCH  16  17
ENDBRANCH  14  16
ENDBRANCH  12  14
ENDBRANCH   1  12
BRANCH   8  21
HETATM   21  C12 UNL     1      21.866   6.959  12.751  1.00  0.00     0.279 C
BRANCH  21  22
HETATM   22  C13 UNL     1      21.224   6.397  11.539  1.00  0.00     0.043 C
HETATM   23  C14 UNL     1      22.239   6.395  10.431  1.00  0.00     0.009 C
HETATM   24  C15 UNL     1      22.218   5.193   9.545  1.00  0.00     0.001 C
HETATM   25  C16 UNL     1      22.320   3.999  10.506  1.00  0.00     0.002 C
HETATM   26  C17 UNL     1      20.948   3.908  11.131  1.00  0.00     0.032 C
HETATM   27  C18 UNL     1      20.494   5.144  11.803  1.00  0.00     0.124 C
BRANCH  27  28
HETATM   28  O2  UNL     1      19.102   5.248  11.554  1.00  0.00    -0.395 OA
ATOM     29  H2  UNL     1      18.714   4.431  11.263  1.00  0.00     0.210 HD
ENDBRANCH  27  28
ENDBRANCH  21  22
ENDBRANCH   8  21
TORSDOF 8
ENDMDL