MODEL 2
REMARK VINA RESULT: -8.853088131      1.609      2.517
REMARK  6 active torsions:
REMARK  status: ('A' for Active; 'I' for Inactive)
REMARK    1  A    between atoms: C2_2  and  C3_3
REMARK    2  A    between atoms: C5_5  and  N1_6
REMARK    3  A    between atoms: N2_9  and  C6_10
REMARK    4  A    between atoms: C6_10  and  C7_11
REMARK    5  A    between atoms: C7_11  and  C8_12
REMARK    6  A    between atoms: C11_15  and  C12_16
REMARK       I    between atoms: C12_16  and  N3_18
ROOT
HETATM    1  C8  UNL     1      24.719   8.681  16.109  1.00  0.00    -0.013 C
HETATM    2  C9  UNL     1      23.436   9.347  15.768  1.00  0.00     0.005 C
HETATM    3  C10 UNL     1      22.538   8.634  14.819  1.00  0.00     0.014 C
HETATM    4  C11 UNL     1      23.192   7.907  13.701  1.00  0.00     0.078 C
HETATM    5  C21 UNL     1      24.675   7.698  13.898  1.00  0.00     0.014 C
HETATM    6  C22 UNL     1      24.902   7.391  15.358  1.00  0.00     0.005 C
ENDROOT
BRANCH   1   7
HETATM    7  C7  UNL     1      24.912   8.394  17.576  1.00  0.00     0.026 C
BRANCH   7   8
HETATM    8  C6  UNL     1      25.559   7.040  17.807  1.00  0.00     0.151 C
BRANCH   8   9
HETATM    9  N2  UNL     1      24.715   6.374  18.811  1.00  0.00    -0.277 N
HETATM   10  C5  UNL     1      25.120   5.467  19.712  1.00  0.00     0.117 A
HETATM   11  C4  UNL     1      24.044   5.091  20.463  1.00  0.00     0.075 A
HETATM   12  C3  UNL     1      22.954   5.795  20.000  1.00  0.00     0.029 A
HETATM   13  N4  UNL     1      23.418   6.557  18.999  1.00  0.00    -0.301 N
ATOM     14  H4  UNL     1      22.844   7.198  18.451  1.00  0.00     0.187 HD
BRANCH  10  15
HETATM   15  N1  UNL     1      26.319   5.024  19.850  1.00  0.00    -0.384 N
ATOM     16  H12 UNL     1      26.625   4.329  20.531  1.00  0.00     0.157 HD
ATOM     17  H11 UNL     1      27.125   5.310  19.293  1.00  0.00     0.157 HD
ENDBRANCH  10  15
BRANCH  12  18
HETATM   18  C2  UNL     1      21.541   5.737  20.498  1.00  0.00     0.054 C
HETATM   19  C1  UNL     1      20.671   6.486  19.539  1.00  0.00     0.011 C
ENDBRANCH  12  18
ENDBRANCH   8   9
ENDBRANCH   7   8
ENDBRANCH   1   7
BRANCH   4  20
HETATM   20  C12 UNL     1      22.537   6.572  13.525  1.00  0.00     0.226 C
HETATM   21  O1  UNL     1      22.304   5.862  14.578  1.00  0.00    -0.273 OA
HETATM   22  N3  UNL     1      22.144   6.016  12.297  1.00  0.00    -0.325 N
HETATM   23  C13 UNL     1      21.506   4.710  12.286  1.00  0.00     0.128 C
HETATM   24  C20 UNL     1      22.365   6.686  11.060  1.00  0.00     0.230 C
HETATM   25  C14 UNL     1      22.213   3.790  11.316  1.00  0.00     0.020 C
HETATM   26  C15 UNL     1      22.297   4.400   9.963  1.00  0.00     0.010 C
HETATM   27  C16 UNL     1      22.030   5.850   9.853  1.00  0.00     0.037 C
HETATM   28  C17 UNL     1      22.953   6.409   8.780  1.00  0.00     0.040 C
HETATM   29  C18 UNL     1      23.614   7.559   9.524  1.00  0.00     0.120 C
HETATM   30  C19 UNL     1      24.994   7.809   8.953  1.00  0.00     0.039 C
HETATM   31  O2  UNL     1      23.678   7.057  10.821  1.00  0.00    -0.361 OA
ENDBRANCH   4  20
TORSDOF 6
ENDMDL