MODEL 3
REMARK VINA RESULT: -7.229810077      2.081      4.088
REMARK  8 active torsions:
REMARK  status: ('A' for Active; 'I' for Inactive)
REMARK    1  A    between atoms: C2_2  and  O1_3
REMARK    2  A    between atoms: O1_3  and  C3_4
REMARK       I    between atoms: C3_4  and  N1_6
REMARK    3  A    between atoms: C6_9  and  N2_10
REMARK    4  A    between atoms: N2_10  and  C7_12
REMARK    5  A    between atoms: C7_12  and  N3_14
REMARK    6  A    between atoms: N3_14  and  C8_16
REMARK    7  A    between atoms: C8_16  and  C9_17
REMARK    8  A    between atoms: C8_16  and  C12_20
ROOT
HETATM    1  C7  UNL     1      22.828   8.653  12.611  1.00  0.00     0.172 C
HETATM    2  S1  UNL     1      21.322   9.231  12.414  1.00  0.00    -0.041 SA
ENDROOT
BRANCH   1   3
HETATM    3  N2  UNL     1      23.410   8.788  13.893  1.00  0.00    -0.362 N
ATOM      4  H2  UNL     1      23.419   9.714  14.321  1.00  0.00     0.162 HD
BRANCH   3   5
HETATM    5  C6  UNL     1      23.999   7.686  14.640  1.00  0.00     0.087 C
HETATM    6  C5  UNL     1      25.023   8.281  15.572  1.00  0.00     0.045 C
HETATM    7  C4  UNL     1      25.483   7.211  16.565  1.00  0.00     0.130 C
HETATM    8  N1  UNL     1      24.313   6.973  17.390  1.00  0.00    -0.328 N
HETATM    9  C3  UNL     1      24.397   7.190  18.795  1.00  0.00     0.362 C
HETATM   10  C19 UNL     1      23.125   6.531  16.736  1.00  0.00     0.130 C
HETATM   11  O2  UNL     1      23.371   6.981  19.515  1.00  0.00    -0.238 OA
HETATM   12  C18 UNL     1      22.963   6.862  15.316  1.00  0.00     0.045 C
BRANCH   9  13
HETATM   13  O1  UNL     1      25.532   7.616  19.434  1.00  0.00    -0.304 OA
BRANCH  13  14
HETATM   14  C2  UNL     1      26.389   6.751  20.184  1.00  0.00     0.176 C
HETATM   15  C1  UNL     1      27.457   7.504  20.902  1.00  0.00     0.034 C
ENDBRANCH  13  14
ENDBRANCH   9  13
ENDBRANCH   3   5
ENDBRANCH   1   3
BRANCH   1  16
HETATM   16  N3  UNL     1      23.485   8.006  11.556  1.00  0.00    -0.338 N
ATOM     17  H3  UNL     1      24.504   7.973  11.583  1.00  0.00     0.168 HD
BRANCH  16  18
HETATM   18  C8  UNL     1      22.822   7.383  10.435  1.00  0.00     0.025 C
BRANCH  18  19
HETATM   19  C9  UNL     1      23.313   7.758   9.097  1.00  0.00     0.025 C
HETATM   20  C10 UNL     1      24.821   7.748   8.942  1.00  0.00     0.016 C
HETATM   21  C11 UNL     1      22.817   6.804   7.997  1.00  0.00     0.016 C
ENDBRANCH  18  19
BRANCH  18  22
HETATM   22  C12 UNL     1      22.565   5.972  10.761  1.00  0.00     0.268 C
HETATM   23  C13 UNL     1      23.558   5.349  11.739  1.00  0.00     0.042 C
HETATM   24  C14 UNL     1      23.260   3.918  12.009  1.00  0.00     0.004 C
HETATM   25  C15 UNL     1      22.157   3.289  11.278  1.00  0.00     0.030 C
HETATM   26  C16 UNL     1      21.152   4.153  10.600  1.00  0.00     0.273 C
HETATM   27  N4  UNL     1      21.267   5.541  11.105  1.00  0.00     0.094 N
HETATM   28  C17 UNL     1      20.934   5.413  12.489  1.00  0.00     0.310 C
ENDBRANCH  18  22
ENDBRANCH  16  18
ENDBRANCH   1  16
TORSDOF 8
ENDMDL