MODEL 1
REMARK VINA RESULT: -7.449453205      0.000      0.000
REMARK  5 active torsions:
REMARK  status: ('A' for Active; 'I' for Inactive)
REMARK    1  A    between atoms: C2_2  and  N1_4
REMARK       I    between atoms: N1_4  and  C4_6
REMARK    2  A    between atoms: C4_6  and  C5_8
REMARK    3  A    between atoms: C8_11  and  C9_12
REMARK    4  A    between atoms: C9_12  and  N2_13
REMARK    5  A    between atoms: N4_24  and  C17_25
ROOT
HETATM    1  C5  UNL     1      22.027   5.254  10.159  1.00  0.00     0.176 C
HETATM    2  C6  UNL     1      23.172   4.722  11.011  1.00  0.00     0.035 C
HETATM    3  C7  UNL     1      23.304   5.532  12.286  1.00  0.00     0.014 C
HETATM    4  C8  UNL     1      22.025   5.445  13.080  1.00  0.00     0.052 C
HETATM    5  C16 UNL     1      20.789   5.678  12.215  1.00  0.00     0.066 C
HETATM    6  N4  UNL     1      20.844   5.197  10.916  1.00  0.00    -0.375 N
ENDROOT
BRANCH   4   7
HETATM    7  C9  UNL     1      21.972   6.496  14.147  1.00  0.00     0.282 C
BRANCH   7   8
HETATM    8  N2  UNL     1      23.000   6.291  15.108  1.00  0.00     0.097 N
HETATM    9  C10 UNL     1      23.796   7.517  15.124  1.00  0.00     0.305 C
HETATM   10  C11 UNL     1      24.920   7.388  16.092  1.00  0.00     0.210 C
HETATM   11  C12 UNL     1      26.213   7.693  15.321  1.00  0.00     0.042 C
HETATM   12  N3  UNL     1      25.058   6.079  16.661  1.00  0.00    -0.068 N
HETATM   13  C13 UNL     1      23.850   5.551  17.211  1.00  0.00     0.268 C
ATOM     14  H32 UNL     1      25.454   5.433  15.979  1.00  0.00     0.277 HD
ATOM     15  H31 UNL     1      25.803   6.070  17.360  1.00  0.00     0.277 HD
HETATM   16  C14 UNL     1      22.605   5.914  16.418  1.00  0.00     0.244 C
HETATM   17  C15 UNL     1      21.860   7.018  17.150  1.00  0.00     0.045 C
ENDBRANCH   7   8
ENDBRANCH   4   7
BRANCH   6  18
HETATM   18  C17 UNL     1      19.633   4.970  10.276  1.00  0.00     0.084 C
HETATM   19  C18 UNL     1      19.293   3.550   9.948  1.00  0.00     0.025 C
HETATM   20  C19 UNL     1      18.784   3.412   8.556  1.00  0.00     0.002 C
HETATM   21  C20 UNL     1      17.576   4.208   8.238  1.00  0.00     0.000 C
HETATM   22  C21 UNL     1      16.781   4.608   9.460  1.00  0.00     0.000 C
HETATM   23  C22 UNL     1      17.290   5.843  10.110  1.00  0.00     0.002 C
HETATM   24  C23 UNL     1      18.494   5.621  11.007  1.00  0.00     0.025 C
ENDBRANCH   6  18
BRANCH   1  25
HETATM   25  C4  UNL     1      22.449   6.572   9.676  1.00  0.00     0.240 C
HETATM   26  N1  UNL     1      23.605   6.677   8.865  1.00  0.00    -0.355 N
ATOM     27  H1  UNL     1      24.117   5.825   8.637  1.00  0.00     0.162 HD
HETATM   28  O1  UNL     1      21.815   7.612   9.960  1.00  0.00    -0.271 OA
BRANCH  26  29
HETATM   29  C2  UNL     1      24.097   7.939   8.344  1.00  0.00     0.076 C
HETATM   30  C1  UNL     1      25.581   7.991   8.491  1.00  0.00     0.032 C
HETATM   31  C3  UNL     1      23.654   8.161   6.913  1.00  0.00     0.032 C
ENDBRANCH  26  29
ENDBRANCH   1  25
TORSDOF 5
ENDMDL