MODEL 3
REMARK VINA RESULT: -8.569656274      2.647      8.517
REMARK  5 active torsions:
REMARK  status: ('A' for Active; 'I' for Inactive)
REMARK    1  A    between atoms: C2_2  and  C3_3
REMARK    2  A    between atoms: C3_3  and  C4_4
REMARK    3  A    between atoms: C4_4  and  C5_5
REMARK       I    between atoms: N3_15  and  C11_16
REMARK       I    between atoms: C11_16  and  N4_18
REMARK    4  A    between atoms: N4_18  and  C12_20
REMARK    5  A    between atoms: C12_20  and  C13_21
ROOT
HETATM    1  C13 UNL     1      23.910   7.692  16.587  1.00  0.00    -0.003 C
HETATM    2  C14 UNL     1      23.346   8.719  17.573  1.00  0.00     0.018 C
HETATM    3  C15 UNL     1      24.308   8.089  18.592  1.00  0.00    -0.008 C
HETATM    4  C16 UNL     1      23.697   6.811  19.149  1.00  0.00     0.011 C
HETATM    5  C17 UNL     1      23.943   5.842  18.028  1.00  0.00     0.005 C
HETATM    6  C18 UNL     1      25.390   6.212  17.660  1.00  0.00     0.012 C
HETATM    7  C19 UNL     1      25.152   7.685  17.405  1.00  0.00     0.001 C
HETATM    8  C20 UNL     1      23.219   6.358  16.807  1.00  0.00     0.107 C
HETATM    9  C21 UNL     1      21.794   6.509  17.007  1.00  0.00     0.065 C
HETATM   10  N5  UNL     1      20.652   6.612  17.157  1.00  0.00    -0.197 NA
ENDROOT
BRANCH   1  11
HETATM   11  C12 UNL     1      23.976   8.131  15.178  1.00  0.00     0.135 C
BRANCH  11  12
HETATM   12  N4  UNL     1      23.980   7.014  14.262  1.00  0.00    -0.342 N
HETATM   13  C11 UNL     1      23.749   7.179  12.884  1.00  0.00     0.318 C
HETATM   14  N3  UNL     1      23.750   6.095  11.985  1.00  0.00    -0.334 N
HETATM   15  O1  UNL     1      23.532   8.363  12.449  1.00  0.00    -0.247 OA
HETATM   16  C10 UNL     1      23.983   4.725  12.355  1.00  0.00     0.127 C
HETATM   17  C22 UNL     1      23.501   6.299  10.549  1.00  0.00     0.137 C
HETATM   18  C9  UNL     1      22.678   3.992  12.071  1.00  0.00     0.021 C
HETATM   19  C8  UNL     1      22.312   4.096  10.609  1.00  0.00     0.013 C
HETATM   20  C3  UNL     1      22.276   5.524  10.112  1.00  0.00    -0.019 C
ATOM     21  H4  UNL     1      24.154   6.078  14.626  1.00  0.00     0.164 HD
BRANCH  20  22
HETATM   22  C2  UNL     1      21.006   6.136  10.579  1.00  0.00     0.007 C
HETATM   23  C1  UNL     1      19.762   5.407  10.127  1.00  0.00     0.006 C
ENDBRANCH  20  22
BRANCH  20  24
HETATM   24  C4  UNL     1      22.317   5.463   8.611  1.00  0.00     0.069 C
BRANCH  24  25
HETATM   25  C5  UNL     1      22.695   6.768   7.986  1.00  0.00     0.026 A
HETATM   26  C6  UNL     1      21.902   7.873   7.841  1.00  0.00     0.114 A
HETATM   27  N1  UNL     1      22.615   8.829   7.230  1.00  0.00    -0.360 N
HETATM   28  C7  UNL     1      23.833   8.321   6.999  1.00  0.00     0.180 A
ATOM     29  H1  UNL     1      22.292   9.765   6.987  1.00  0.00     0.166 HD
HETATM   30  N2  UNL     1      23.893   7.067   7.456  1.00  0.00    -0.355 N
ATOM     31  H2  UNL     1      24.702   6.448   7.410  1.00  0.00     0.166 HD
ENDBRANCH  24  25
ENDBRANCH  20  24
ENDBRANCH  11  12
ENDBRANCH   1  11
TORSDOF 5
ENDMDL