MODEL 2
REMARK VINA RESULT: -7.632422940      2.014      8.550
REMARK  6 active torsions:
REMARK  status: ('A' for Active; 'I' for Inactive)
REMARK    1  A    between atoms: C2_2  and  C3_3
REMARK    2  A    between atoms: N1_8  and  C8_9
REMARK    3  A    between atoms: C8_9  and  C9_10
REMARK       I    between atoms: C9_10  and  N2_12
REMARK    4  A    between atoms: C12_15  and  C13_16
REMARK    5  A    between atoms: C18_21  and  O2_22
REMARK    6  A    between atoms: C18_21  and  C19_24
ROOT
HETATM    1  C9  UNL     1      22.074   5.688  13.232  1.00  0.00     0.248 C
HETATM    2  O1  UNL     1      20.836   5.770  13.382  1.00  0.00    -0.271 OA
HETATM    3  N2  UNL     1      22.911   6.163  14.275  1.00  0.00    -0.345 N
HETATM    4  C10 UNL     1      24.338   6.133  14.236  1.00  0.00     0.127 C
HETATM    5  C11 UNL     1      24.798   7.043  15.334  1.00  0.00     0.035 C
HETATM    6  C12 UNL     1      23.582   7.456  16.142  1.00  0.00     0.016 C
HETATM    7  C16 UNL     1      22.461   6.737  15.519  1.00  0.00     0.102 C
HETATM    8  C17 UNL     1      22.436   5.796  16.687  1.00  0.00     0.065 C
HETATM    9  C18 UNL     1      23.330   6.789  17.429  1.00  0.00     0.073 C
ENDROOT
BRANCH   1  10
HETATM   10  C8  UNL     1      22.647   5.111  12.002  1.00  0.00     0.375 C
BRANCH  10  11
HETATM   11  N1  UNL     1      22.481   5.948  10.838  1.00  0.00     0.101 N
HETATM   12  C3  UNL     1      22.592   5.229   9.602  1.00  0.00     0.223 C
HETATM   13  C4  UNL     1      22.488   6.122   8.386  1.00  0.00     0.036 C
HETATM   14  C5  UNL     1      23.209   7.419   8.503  1.00  0.00     0.004 C
HETATM   15  C6  UNL     1      24.188   7.279   9.648  1.00  0.00     0.030 C
HETATM   16  C7  UNL     1      23.345   7.110  10.895  1.00  0.00     0.273 C
BRANCH  12  17
HETATM   17  C2  UNL     1      21.403   4.267   9.471  1.00  0.00     0.031 C
HETATM   18  C1  UNL     1      21.062   4.252   7.968  1.00  0.00     0.007 C
ENDBRANCH  12  17
ENDBRANCH  10  11
ENDBRANCH   1  10
BRANCH   6  19
HETATM   19  C13 UNL     1      23.465   8.965  16.205  1.00  0.00    -0.009 C
HETATM   20  C14 UNL     1      22.747   9.682  15.163  1.00  0.00     0.010 C
HETATM   21  C15 UNL     1      24.863   9.504  16.396  1.00  0.00     0.010 C
ENDBRANCH   6  19
BRANCH   9  22
HETATM   22  O2  UNL     1      22.508   7.570  18.274  1.00  0.00    -0.389 OA
ATOM     23  H2  UNL     1      21.585   7.385  18.140  1.00  0.00     0.210 HD
ENDBRANCH   9  22
BRANCH   9  24
HETATM   24  C19 UNL     1      24.423   6.168  18.214  1.00  0.00     0.024 C
HETATM   25  C20 UNL     1      24.206   4.963  19.006  1.00  0.00     0.035 C
HETATM   26  C21 UNL     1      24.599   5.196  20.464  1.00  0.00     0.232 C
HETATM   27  N3  UNL     1      26.002   5.515  20.530  1.00  0.00    -0.075 N
HETATM   28  C22 UNL     1      26.309   6.726  19.788  1.00  0.00     0.232 C
ATOM     29  H32 UNL     1      26.325   5.577  21.495  1.00  0.00     0.277 HD
ATOM     30  H31 UNL     1      26.577   4.731  20.221  1.00  0.00     0.277 HD
HETATM   31  C23 UNL     1      25.071   7.253  19.091  1.00  0.00     0.035 C
ENDBRANCH   9  24
TORSDOF 6
ENDMDL