MODEL 1
REMARK VINA RESULT: -7.864890728      0.000      0.000
REMARK  5 active torsions:
REMARK  status: ('A' for Active; 'I' for Inactive)
REMARK    1  A    between atoms: C2_2  and  N1_3
REMARK    2  A    between atoms: C3_4  and  C4_5
REMARK    3  A    between atoms: C4_5  and  C5_6
REMARK    4  A    between atoms: C11_12  and  N2_13
REMARK       I    between atoms: N2_13  and  C12_15
REMARK    5  A    between atoms: C12_15  and  C13_17
ROOT
HETATM    1  N1  UNL     1      18.967   5.256   8.450  1.00  0.00    -0.267 N
HETATM    2  C3  UNL     1      20.296   5.531   7.976  1.00  0.00     0.130 C
HETATM    3  C11 UNL     1      20.399   6.074   6.623  1.00  0.00     0.147 C
HETATM    4  C18 UNL     1      19.225   6.689   5.968  1.00  0.00     0.101 C
HETATM    5  N3  UNL     1      18.065   7.035   6.679  1.00  0.00    -0.280 N
ATOM      6  H3  UNL     1      17.261   7.465   6.222  1.00  0.00     0.179 HD
HETATM    7  S1  UNL     1      18.076   6.694   8.350  1.00  0.00     0.324 S
HETATM    8  O3  UNL     1      18.856   7.782   9.030  1.00  0.00    -0.182 OA
HETATM    9  O4  UNL     1      16.719   6.668   8.917  1.00  0.00    -0.182 OA
ENDROOT
BRANCH   3  10
HETATM   10  N2  UNL     1      21.484   7.077   6.573  1.00  0.00    -0.348 N
HETATM   11  C12 UNL     1      22.759   6.811   6.029  1.00  0.00     0.247 C
HETATM   12  O1  UNL     1      22.944   5.640   5.567  1.00  0.00    -0.271 OA
ATOM     13  H2  UNL     1      21.303   8.007   6.951  1.00  0.00     0.163 HD
BRANCH  11  14
HETATM   14  C13 UNL     1      23.878   7.742   5.945  1.00  0.00     0.213 C
HETATM   15  C14 UNL     1      24.046   8.522   7.227  1.00  0.00     0.042 C
HETATM   16  C15 UNL     1      25.213   8.031   8.047  1.00  0.00     0.005 C
HETATM   17  C16 UNL     1      26.475   7.870   7.273  1.00  0.00     0.026 C
HETATM   18  C17 UNL     1      26.178   7.762   5.819  1.00  0.00     0.168 C
HETATM   19  O2  UNL     1      25.018   7.056   5.583  1.00  0.00    -0.376 OA
ENDBRANCH  11  14
ENDBRANCH   3  10
BRANCH   2  20
HETATM   20  C4  UNL     1      21.101   4.315   8.294  1.00  0.00     0.033 C
BRANCH  20  21
HETATM   21  C5  UNL     1      22.197   4.404   9.284  1.00  0.00    -0.013 C
HETATM   22  C6  UNL     1      21.540   3.832  10.585  1.00  0.00     0.005 C
HETATM   23  C7  UNL     1      22.609   3.632  11.623  1.00  0.00     0.000 C
HETATM   24  C8  UNL     1      23.217   4.954  11.960  1.00  0.00     0.000 C
HETATM   25  C9  UNL     1      23.641   5.725  10.732  1.00  0.00     0.000 C
HETATM   26  C10 UNL     1      22.533   5.823   9.715  1.00  0.00     0.005 C
ENDBRANCH  20  21
ENDBRANCH   2  20
BRANCH   1  27
HETATM   27  C2  UNL     1      18.340   4.062   8.162  1.00  0.00     0.074 C
HETATM   28  C1  UNL     1      17.818   3.191   9.244  1.00  0.00     0.055 C
ENDBRANCH   1  27
TORSDOF 5
ENDMDL