MODEL 3
REMARK VINA RESULT: -7.299968531      4.408      7.463
REMARK  7 active torsions:
REMARK  status: ('A' for Active; 'I' for Inactive)
REMARK    1  A    between atoms: C2_2  and  C3_3
REMARK    2  A    between atoms: C3_3  and  O1_4
REMARK    3  A    between atoms: C3_3  and  C4_6
REMARK    4  A    between atoms: C4_6  and  N1_7
REMARK    5  A    between atoms: N1_7  and  C5_9
REMARK    6  A    between atoms: C5_9  and  C6_11
REMARK    7  A    between atoms: C20_26  and  C21_27
ROOT
HETATM    1  C6  UNL     1      22.245   5.503  10.859  1.00  0.00     0.035 C
HETATM    2  C7  UNL     1      21.787   4.034  10.707  1.00  0.00     0.028 C
HETATM    3  C8  UNL     1      23.655   5.287  11.339  1.00  0.00    -0.014 C
HETATM    4  C9  UNL     1      24.080   4.612  12.545  1.00  0.00    -0.027 C
HETATM    5  C10 UNL     1      24.668   5.365  13.753  1.00  0.00     0.059 C
HETATM    6  C11 UNL     1      24.007   6.636  13.913  1.00  0.00     0.129 C
HETATM    7  O2  UNL     1      23.885   7.564  14.807  1.00  0.00    -0.385 OA
HETATM    8  C12 UNL     1      23.070   8.492  14.031  1.00  0.00     0.174 C
HETATM    9  C13 UNL     1      22.669   7.728  12.801  1.00  0.00     0.032 C
HETATM   10  C14 UNL     1      22.583   6.487  13.556  1.00  0.00     0.026 C
HETATM   11  C15 UNL     1      21.351   6.918  14.287  1.00  0.00    -0.006 C
HETATM   12  C16 UNL     1      20.330   5.747  14.039  1.00  0.00     0.006 C
HETATM   13  C17 UNL     1      20.480   5.296  12.625  1.00  0.00     0.012 C
HETATM   14  C18 UNL     1      21.209   6.208  11.619  1.00  0.00    -0.013 C
HETATM   15  C19 UNL     1      20.026   6.525  10.693  1.00  0.00     0.018 C
HETATM   16  C20 UNL     1      21.443   7.609  12.142  1.00  0.00     0.028 C
HETATM   17  C22 UNL     1      20.596   7.902  13.407  1.00  0.00     0.023 C
ENDROOT
BRANCH   1  18
HETATM   18  C5  UNL     1      22.471   5.918   9.439  1.00  0.00     0.086 C
HETATM   19  S1  UNL     1      21.873   4.848   8.251  1.00  0.00    -0.065 SA
BRANCH  18  20
HETATM   20  N1  UNL     1      23.056   7.025   8.862  1.00  0.00    -0.381 N
ATOM     21  H1  UNL     1      23.908   7.290   9.355  1.00  0.00     0.160 HD
BRANCH  20  22
HETATM   22  C4  UNL     1      22.803   7.893   7.779  1.00  0.00     0.151 C
BRANCH  22  23
HETATM   23  C3  UNL     1      24.080   8.332   7.038  1.00  0.00     0.135 C
BRANCH  23  24
HETATM   24  C2  UNL     1      25.281   8.165   7.944  1.00  0.00     0.029 C
HETATM   25  C1  UNL     1      26.534   7.873   7.137  1.00  0.00     0.007 C
ENDBRANCH  23  24
BRANCH  23  26
HETATM   26  O1  UNL     1      23.903   9.692   6.804  1.00  0.00    -0.394 OA
ATOM     27  H1  UNL     1      23.321  10.032   7.474  1.00  0.00     0.210 HD
ENDBRANCH  23  26
ENDBRANCH  22  23
ENDBRANCH  20  22
ENDBRANCH  18  20
ENDBRANCH   1  18
BRANCH  16  28
HETATM   28  C21 UNL     1      21.229   8.744  11.249  1.00  0.00     0.242 C
HETATM   29  O3  UNL     1      20.762   9.823  11.554  1.00  0.00    -0.306 OA
ENDBRANCH  16  28
TORSDOF 7
ENDMDL