MODEL 2
REMARK VINA RESULT: -8.079281639      1.777      2.376
REMARK  6 active torsions:
REMARK  status: ('A' for Active; 'I' for Inactive)
REMARK       I    between atoms: C1_2  and  N1_3
REMARK    1  A    between atoms: C1_2  and  C16_25
REMARK    2  A    between atoms: N1_3  and  C2_5
REMARK    3  A    between atoms: N2_8  and  C5_9
REMARK    4  A    between atoms: C5_9  and  C6_10
REMARK    5  A    between atoms: C6_10  and  N3_11
REMARK    6  A    between atoms: N3_11  and  C7_13
ROOT
HETATM    1  C2  UNL     1      23.031   4.989  12.514  1.00  0.00     0.087 C
HETATM    2  C3  UNL     1      21.540   4.658  12.544  1.00  0.00     0.055 C
HETATM    3  C4  UNL     1      21.192   3.972  11.238  1.00  0.00     0.275 C
HETATM    4  N2  UNL     1      21.555   4.835  10.135  1.00  0.00     0.093 N
HETATM    5  C14 UNL     1      22.949   5.095  10.049  1.00  0.00     0.275 C
HETATM    6  C15 UNL     1      23.385   5.806  11.312  1.00  0.00     0.055 C
ENDROOT
BRANCH   4   7
HETATM    7  C5  UNL     1      20.914   4.446   8.900  1.00  0.00     0.317 C
BRANCH   7   8
HETATM    8  C6  UNL     1      20.076   5.539   8.314  1.00  0.00     0.093 C
BRANCH   8   9
HETATM    9  N3  UNL     1      20.591   6.312   7.296  1.00  0.00    -0.348 N
ATOM     10  H3  UNL     1      19.858   6.579   6.640  1.00  0.00     0.167 HD
BRANCH   9  11
HETATM   11  C7  UNL     1      21.705   6.787   6.939  1.00  0.00     0.148 A
HETATM   12  N4  UNL     1      22.683   7.418   7.577  1.00  0.00    -0.339 N
HETATM   13  C8  UNL     1      23.750   7.805   6.914  1.00  0.00     0.024 A
ATOM     14  H4  UNL     1      22.607   7.602   8.578  1.00  0.00     0.168 HD
HETATM   15  C9  UNL     1      23.797   7.531   5.573  1.00  0.00     0.009 A
HETATM   16  C13 UNL     1      24.999   8.539   7.411  1.00  0.00     0.058 C
HETATM   17  S1  UNL     1      22.320   6.735   5.314  1.00  0.00    -0.057 SA
HETATM   18  C10 UNL     1      24.986   7.942   4.731  1.00  0.00     0.048 C
HETATM   19  C11 UNL     1      26.281   7.707   5.427  1.00  0.00     0.006 C
HETATM   20  C12 UNL     1      26.170   7.708   6.926  1.00  0.00     0.006 C
ENDBRANCH   9  11
ENDBRANCH   8   9
ENDBRANCH   7   8
ENDBRANCH   4   7
BRANCH   1  21
HETATM   21  N1  UNL     1      23.286   5.715  13.754  1.00  0.00    -0.356 N
HETATM   22  C1  UNL     1      24.584   5.755  14.324  1.00  0.00     0.222 C
HETATM   23  O1  UNL     1      25.568   5.170  13.789  1.00  0.00    -0.273 OA
ATOM     24  H1  UNL     1      22.519   6.201  14.219  1.00  0.00     0.162 HD
BRANCH  22  25
HETATM   25  C16 UNL     1      24.814   6.493  15.576  1.00  0.00     0.078 C
HETATM   26  C17 UNL     1      24.092   5.875  16.743  1.00  0.00     0.014 C
HETATM   27  C18 UNL     1      23.603   6.984  17.660  1.00  0.00     0.001 C
HETATM   28  C19 UNL     1      24.791   7.942  17.815  1.00  0.00     0.000 C
HETATM   29  C20 UNL     1      24.828   8.793  16.548  1.00  0.00     0.001 C
HETATM   30  C21 UNL     1      24.376   7.930  15.373  1.00  0.00     0.014 C
ENDBRANCH  22  25
ENDBRANCH   1  21
TORSDOF 6
ENDMDL