MODEL 4
REMARK VINA RESULT: -6.890095407      3.525      7.045
REMARK  7 active torsions:
REMARK  status: ('A' for Active; 'I' for Inactive)
REMARK    1  A    between atoms: C2_3  and  C3_4
REMARK    2  A    between atoms: C13_14  and  C14_15
REMARK    3  A    between atoms: C14_15  and  N2_18
REMARK    4  A    between atoms: N2_18  and  S1_20
REMARK    5  A    between atoms: C18_24  and  C19_25
REMARK    6  A    between atoms: C19_25  and  N3_26
REMARK    7  A    between atoms: N3_26  and  C20_29
ROOT
HETATM    1  C1  UNL     1      24.562   5.112  13.086  1.00  0.00     0.156 C
HETATM    2  N1  UNL     1      23.937   6.335  13.580  1.00  0.00    -0.355 N
HETATM    3  C2  UNL     1      23.116   7.133  12.834  1.00  0.00     0.021 A
HETATM    4  C12 UNL     1      22.701   8.167  13.620  1.00  0.00     0.037 A
HETATM    5  C13 UNL     1      23.257   8.041  14.875  1.00  0.00    -0.004 A
HETATM    6  C18 UNL     1      24.028   6.870  14.795  1.00  0.00     0.046 A
ENDROOT
BRANCH   3   7
HETATM    7  C3  UNL     1      22.730   6.940  11.426  1.00  0.00     0.003 C
HETATM    8  C4  UNL     1      23.861   7.015  10.452  1.00  0.00     0.020 C
HETATM    9  C5  UNL     1      23.409   6.884   9.029  1.00  0.00    -0.013 C
HETATM   10  C6  UNL     1      22.445   8.036   8.690  1.00  0.00     0.010 C
HETATM   11  C10 UNL     1      22.455   5.711   8.887  1.00  0.00     0.010 C
HETATM   12  C7  UNL     1      21.345   7.721   9.697  1.00  0.00    -0.009 C
HETATM   13  C8  UNL     1      21.860   8.175  11.045  1.00  0.00     0.021 C
HETATM   14  C9  UNL     1      21.285   6.230   9.730  1.00  0.00    -0.009 C
HETATM   15  C11 UNL     1      21.699   5.898  11.176  1.00  0.00     0.021 C
ENDBRANCH   3   7
BRANCH   6  16
HETATM   16  C19 UNL     1      24.823   6.346  15.956  1.00  0.00     0.290 C
BRANCH  16  17
HETATM   17  N3  UNL     1      24.201   5.278  16.691  1.00  0.00    -0.066 N
ATOM     18  H32 UNL     1      23.184   5.338  16.650  1.00  0.00     0.278 HD
ATOM     19  H31 UNL     1      24.324   4.380  16.223  1.00  0.00     0.278 HD
BRANCH  17  20
HETATM   20  C20 UNL     1      24.684   5.235  18.078  1.00  0.00     0.186 A
HETATM   21  C21 UNL     1      25.038   6.447  18.817  1.00  0.00     0.035 A
HETATM   22  C22 UNL     1      23.815   5.671  19.168  1.00  0.00     0.035 A
ENDBRANCH  17  20
ENDBRANCH  16  17
ENDBRANCH   6  16
BRANCH   5  23
HETATM   23  C14 UNL     1      22.998   8.907  16.058  1.00  0.00     0.062 C
HETATM   24  C15 UNL     1      24.413   9.276  16.594  1.00  0.00     0.044 C
HETATM   25  C16 UNL     1      22.362  10.205  15.739  1.00  0.00     0.044 C
BRANCH  23  26
HETATM   26  N2  UNL     1      22.384   8.175  17.112  1.00  0.00    -0.306 N
ATOM     27  H2  UNL     1      22.819   8.149  18.034  1.00  0.00     0.173 HD
BRANCH  26  28
HETATM   28  S1  UNL     1      20.946   7.353  16.842  1.00  0.00     0.223 S
HETATM   29  C17 UNL     1      19.714   8.289  15.942  1.00  0.00     0.185 C
HETATM   30  O1  UNL     1      20.291   7.143  18.210  1.00  0.00    -0.206 OA
HETATM   31  O2  UNL     1      21.059   5.978  16.261  1.00  0.00    -0.206 OA
ENDBRANCH  26  28
ENDBRANCH  23  26
ENDBRANCH   5  23
TORSDOF 7
ENDMDL