MODEL 1
REMARK VINA RESULT: -8.189235129      0.000      0.000
REMARK  6 active torsions:
REMARK  status: ('A' for Active; 'I' for Inactive)
REMARK    1  A    between atoms: C2_2  and  O1_3
REMARK    2  A    between atoms: O1_3  and  C3_4
REMARK    3  A    between atoms: C18_20  and  C19_21
REMARK       I    between atoms: C19_21  and  N1_23
REMARK    4  A    between atoms: N1_23  and  C20_25
REMARK    5  A    between atoms: C20_25  and  C21_26
REMARK    6  A    between atoms: C21_26  and  O4_27
ROOT
HETATM    1  C3  UNL     1      24.386   6.844  18.219  1.00  0.00     0.220 C
HETATM    2  C4  UNL     1      23.084   7.474  18.639  1.00  0.00     0.159 C
HETATM    3  O2  UNL     1      22.539   7.048  19.630  1.00  0.00    -0.295 OA
HETATM    4  C5  UNL     1      22.550   8.574  17.815  1.00  0.00     0.082 C
HETATM    5  C6  UNL     1      22.503   8.232  16.326  1.00  0.00     0.021 C
HETATM    6  C7  UNL     1      23.936   7.877  15.950  1.00  0.00    -0.014 C
HETATM    7  C8  UNL     1      24.803   9.072  16.347  1.00  0.00     0.020 C
HETATM    8  C9  UNL     1      24.269   6.682  16.743  1.00  0.00    -0.039 C
HETATM    9  C10 UNL     1      24.457   5.512  16.221  1.00  0.00    -0.020 C
HETATM   10  C11 UNL     1      24.371   5.207  14.768  1.00  0.00     0.033 C
HETATM   11  C12 UNL     1      23.626   6.310  14.035  1.00  0.00    -0.001 C
HETATM   12  C13 UNL     1      24.143   7.634  14.504  1.00  0.00     0.003 C
HETATM   13  C14 UNL     1      23.674   8.779  13.632  1.00  0.00     0.007 C
HETATM   14  C15 UNL     1      24.185   8.533  12.226  1.00  0.00     0.011 C
HETATM   15  C16 UNL     1      23.449   7.318  11.729  1.00  0.00    -0.028 C
HETATM   16  C17 UNL     1      21.980   7.538  11.819  1.00  0.00     0.016 C
HETATM   17  C18 UNL     1      23.887   6.819  10.395  1.00  0.00     0.086 C
HETATM   18  C22 UNL     1      23.342   5.393  10.419  1.00  0.00     0.015 C
HETATM   19  C23 UNL     1      23.264   5.006  11.903  1.00  0.00     0.007 C
HETATM   20  C24 UNL     1      23.921   6.146  12.596  1.00  0.00    -0.001 C
ENDROOT
BRANCH  17  21
HETATM   21  C19 UNL     1      23.370   7.598   9.262  1.00  0.00     0.222 C
HETATM   22  O3  UNL     1      23.110   8.821   9.339  1.00  0.00    -0.273 OA
HETATM   23  N1  UNL     1      23.151   6.947   8.020  1.00  0.00    -0.359 N
ATOM     24  H1  UNL     1      23.364   5.952   7.955  1.00  0.00     0.162 HD
BRANCH  23  25
HETATM   25  C20 UNL     1      22.642   7.614   6.840  1.00  0.00     0.148 C
BRANCH  25  26
HETATM   26  C21 UNL     1      23.737   8.197   5.970  1.00  0.00     0.183 C
BRANCH  26  27
HETATM   27  O4  UNL     1      23.829   9.555   6.367  1.00  0.00    -0.399 OA
ATOM     28  H4  UNL     1      24.497   9.928   5.804  1.00  0.00     0.209 HD
ENDBRANCH  26  27
ENDBRANCH  25  26
ENDBRANCH  23  25
ENDBRANCH  17  21
BRANCH   1  29
HETATM   29  O1  UNL     1      24.509   5.595  18.831  1.00  0.00    -0.374 OA
BRANCH  29  30
HETATM   30  C2  UNL     1      25.685   5.487  19.563  1.00  0.00     0.165 C
HETATM   31  C1  UNL     1      26.456   6.764  19.646  1.00  0.00     0.033 C
ENDBRANCH  29  30
ENDBRANCH   1  29
TORSDOF 6
ENDMDL