MODEL 3
REMARK VINA RESULT: -7.671493173      2.623      3.951
REMARK  6 active torsions:
REMARK  status: ('A' for Active; 'I' for Inactive)
REMARK    1  A    between atoms: C2_2  and  C3_3
REMARK    2  A    between atoms: C2_2  and  N3_18
REMARK       I    between atoms: C3_3  and  N1_5
REMARK    3  A    between atoms: N1_5  and  C4_7
REMARK    4  A    between atoms: N4_21  and  C15_22
REMARK    5  A    between atoms: C15_22  and  C16_23
REMARK    6  A    between atoms: C16_23  and  C17_24
ROOT
HETATM    1  C1  UNL     1      21.674   6.150  15.626  1.00  0.00     0.042 C
HETATM    2  C2  UNL     1      22.378   5.839  14.329  1.00  0.00     0.171 C
ENDROOT
BRANCH   2   3
HETATM    3  C3  UNL     1      21.366   5.866  13.234  1.00  0.00     0.240 C
HETATM    4  O1  UNL     1      20.239   6.338  13.522  1.00  0.00    -0.271 OA
HETATM    5  N1  UNL     1      21.650   5.389  11.934  1.00  0.00    -0.355 N
ATOM      6  H1  UNL     1      22.585   5.016  11.770  1.00  0.00     0.162 HD
BRANCH   5   7
HETATM    7  C4  UNL     1      20.746   5.382  10.834  1.00  0.00     0.089 C
HETATM    8  C5  UNL     1      20.083   4.008  10.653  1.00  0.00     0.055 C
HETATM    9  C6  UNL     1      18.956   4.273   9.675  1.00  0.00     0.021 C
HETATM   10  C7  UNL     1      17.968   5.269  10.230  1.00  0.00     0.037 C
HETATM   11  C8  UNL     1      18.227   2.932   9.509  1.00  0.00     0.037 C
HETATM   12  N2  UNL     1      19.500   4.607   8.425  1.00  0.00    -0.405 N
HETATM   13  C9  UNL     1      20.666   5.369   8.318  1.00  0.00     0.021 C
ATOM     14  H2  UNL     1      19.034   4.286   7.576  1.00  0.00     0.154 HD
HETATM   15  C10 UNL     1      21.701   4.522   7.556  1.00  0.00     0.037 C
HETATM   16  C11 UNL     1      20.373   6.546   7.373  1.00  0.00     0.037 C
HETATM   17  C12 UNL     1      21.312   5.871   9.544  1.00  0.00     0.055 C
ENDBRANCH   5   7
ENDBRANCH   2   3
BRANCH   2  18
HETATM   18  N3  UNL     1      23.538   6.579  14.076  1.00  0.00    -0.374 N
HETATM   19  C13 UNL     1      23.458   7.842  13.471  1.00  0.00     0.103 C
HETATM   20  C14 UNL     1      24.168   8.940  14.250  1.00  0.00     0.107 C
HETATM   21  N4  UNL     1      24.775   8.338  15.368  1.00  0.00    -0.367 N
HETATM   22  C23 UNL     1      25.638   7.242  15.162  1.00  0.00     0.147 C
HETATM   23  C24 UNL     1      24.782   6.125  14.542  1.00  0.00     0.143 C
BRANCH  21  24
HETATM   24  C15 UNL     1      24.747   8.960  16.615  1.00  0.00     0.068 C
BRANCH  24  25
HETATM   25  C16 UNL     1      23.629   8.593  17.548  1.00  0.00     0.078 C
BRANCH  25  26
HETATM   26  C17 UNL     1      24.095   7.587  18.539  1.00  0.00    -0.079 C
HETATM   27  C18 UNL     1      23.307   6.617  19.004  1.00  0.00    -0.024 C
HETATM   28  C19 UNL     1      23.934   5.676  20.005  1.00  0.00     0.027 C
HETATM   29  C20 UNL     1      25.221   5.145  19.403  1.00  0.00     0.004 C
HETATM   30  C21 UNL     1      26.069   6.214  18.791  1.00  0.00     0.005 C
HETATM   31  C22 UNL     1      25.485   7.605  19.070  1.00  0.00     0.034 C
ENDBRANCH  25  26
ENDBRANCH  24  25
ENDBRANCH  21  24
ENDBRANCH   2  18
TORSDOF 6
ENDMDL