MODEL 2
REMARK VINA RESULT: -8.857370337      3.489     11.464
REMARK  7 active torsions:
REMARK  status: ('A' for Active; 'I' for Inactive)
REMARK    1  A    between atoms: C2_2  and  O1_3
REMARK    2  A    between atoms: O1_3  and  C3_4
REMARK    3  A    between atoms: C3_4  and  C4_6
REMARK    4  A    between atoms: C6_8  and  C7_9
REMARK    5  A    between atoms: C7_9  and  C8_10
REMARK       I    between atoms: N1_13  and  C11_14
REMARK       I    between atoms: C11_14  and  N2_16
REMARK    6  A    between atoms: N2_16  and  C12_18
REMARK    7  A    between atoms: C12_18  and  C13_19
ROOT
HETATM    1  C8  UNL     1      23.541   6.462  17.158  1.00  0.00    -0.006 C
HETATM    2  C9  UNL     1      24.798   6.942  16.519  1.00  0.00     0.025 C
HETATM    3  C10 UNL     1      24.838   6.874  15.032  1.00  0.00     0.128 C
HETATM    4  N1  UNL     1      23.661   6.303  14.415  1.00  0.00    -0.334 N
HETATM    5  C11 UNL     1      23.778   5.674  13.158  1.00  0.00     0.318 C
HETATM    6  O3  UNL     1      24.897   5.623  12.611  1.00  0.00    -0.247 OA
HETATM    7  N2  UNL     1      22.657   5.115  12.534  1.00  0.00    -0.343 N
ATOM      8  H2  UNL     1      21.762   5.186  13.019  1.00  0.00     0.164 HD
HETATM    9  C21 UNL     1      22.351   6.347  15.037  1.00  0.00     0.128 C
HETATM   10  C22 UNL     1      22.378   7.067  16.366  1.00  0.00     0.025 C
ENDROOT
BRANCH   1  11
HETATM   11  C7  UNL     1      23.484   6.847  18.598  1.00  0.00     0.063 C
BRANCH  11  12
HETATM   12  C6  UNL     1      24.774   6.513  19.252  1.00  0.00     0.028 A
HETATM   13  C5  UNL     1      25.660   7.394  19.830  1.00  0.00     0.063 A
HETATM   14  C4  UNL     1      26.733   6.698  20.323  1.00  0.00     0.125 A
HETATM   15  N4  UNL     1      26.487   5.412  20.043  1.00  0.00    -0.295 N
HETATM   16  N3  UNL     1      25.334   5.288  19.410  1.00  0.00    -0.304 N
ATOM     17  H4  UNL     1      27.104   4.636  20.284  1.00  0.00     0.187 HD
ATOM     18  H3  UNL     1      24.928   4.408  19.090  1.00  0.00     0.186 HD
BRANCH  14  19
HETATM   19  C3  UNL     1      27.921   7.199  21.016  1.00  0.00     0.311 C
HETATM   20  O2  UNL     1      28.266   8.404  20.878  1.00  0.00    -0.258 OA
BRANCH  19  21
HETATM   21  O1  UNL     1      28.704   6.417  21.828  1.00  0.00    -0.317 OA
BRANCH  21  22
HETATM   22  C2  UNL     1      29.469   6.967  22.913  1.00  0.00     0.175 C
HETATM   23  C1  UNL     1      28.767   6.546  24.186  1.00  0.00     0.034 C
ENDBRANCH  21  22
ENDBRANCH  19  21
ENDBRANCH  14  19
ENDBRANCH  11  12
ENDBRANCH   1  11
BRANCH   7  24
HETATM   24  C12 UNL     1      22.674   4.456  11.274  1.00  0.00     0.129 C
BRANCH  24  25
HETATM   25  C13 UNL     1      21.822   5.188  10.274  1.00  0.00     0.008 C
HETATM   26  C14 UNL     1      21.977   4.434   8.965  1.00  0.00     0.007 C
HETATM   27  C15 UNL     1      21.756   5.307   7.771  1.00  0.00     0.005 C
HETATM   28  C16 UNL     1      22.274   6.698   8.032  1.00  0.00    -0.010 C
HETATM   29  C17 UNL     1      21.411   7.313   9.134  1.00  0.00     0.010 C
HETATM   30  C19 UNL     1      23.402   6.645   9.070  1.00  0.00    -0.010 C
HETATM   31  C18 UNL     1      22.321   6.609  10.126  1.00  0.00    -0.004 C
HETATM   32  C20 UNL     1      24.225   7.896   9.034  1.00  0.00     0.011 C
ENDBRANCH  24  25
ENDBRANCH   7  24
TORSDOF 7
ENDMDL