MODEL 1
REMARK VINA RESULT: -8.335559920      0.000      0.000
REMARK  6 active torsions:
REMARK  status: ('A' for Active; 'I' for Inactive)
REMARK    1  A    between atoms: C3_3  and  N1_4
REMARK    2  A    between atoms: C5_6  and  C6_7
REMARK    3  A    between atoms: C17_18  and  C18_19
REMARK       I    between atoms: C18_19  and  N2_21
REMARK    4  A    between atoms: N2_21  and  C19_23
REMARK    5  A    between atoms: C19_23  and  C20_24
REMARK    6  A    between atoms: C20_24  and  C21_25
ROOT
HETATM    1  C1  UNL     1      19.759   3.859  10.290  1.00  0.00     0.014 C
HETATM    2  C2  UNL     1      20.886   3.759  10.700  1.00  0.00    -0.095 C
HETATM    3  C3  UNL     1      22.240   3.620  11.182  1.00  0.00     0.248 C
ENDROOT
BRANCH   3   4
HETATM    4  N1  UNL     1      22.895   4.912  11.398  1.00  0.00    -0.252 N
HETATM    5  C4  UNL     1      23.049   5.426  12.736  1.00  0.00     0.126 A
HETATM    6  C5  UNL     1      23.633   6.584  12.991  1.00  0.00    -0.029 A
HETATM    7  C16 UNL     1      24.125   7.335  11.822  1.00  0.00     0.054 A
HETATM    8  C17 UNL     1      23.999   6.893  10.585  1.00  0.00     0.167 A
HETATM    9  O2  UNL     1      23.381   5.676  10.380  1.00  0.00    -0.230 OA
BRANCH   6  10
HETATM   10  C6  UNL     1      23.799   7.128  14.369  1.00  0.00    -0.011 C
HETATM   11  C7  UNL     1      22.716   6.479  15.220  1.00  0.00     0.019 C
HETATM   12  C8  UNL     1      22.867   6.896  16.665  1.00  0.00    -0.013 C
HETATM   13  C9  UNL     1      24.244   6.489  17.139  1.00  0.00     0.009 C
HETATM   14  C13 UNL     1      22.671   8.387  16.735  1.00  0.00     0.009 C
HETATM   15  C10 UNL     1      25.269   7.238  16.343  1.00  0.00    -0.013 C
HETATM   16  C11 UNL     1      25.068   8.722  16.416  1.00  0.00     0.009 C
HETATM   17  C15 UNL     1      25.167   6.784  14.900  1.00  0.00     0.019 C
HETATM   18  C12 UNL     1      23.703   9.040  15.869  1.00  0.00    -0.013 C
HETATM   19  C14 UNL     1      23.615   8.607  14.428  1.00  0.00     0.019 C
ENDBRANCH   6  10
BRANCH   8  20
HETATM   20  C18 UNL     1      24.520   7.706   9.454  1.00  0.00     0.277 C
HETATM   21  O1  UNL     1      25.667   8.203   9.568  1.00  0.00    -0.265 OA
HETATM   22  N2  UNL     1      23.677   7.854   8.337  1.00  0.00    -0.355 N
ATOM     23  H2  UNL     1      22.762   7.404   8.336  1.00  0.00     0.162 HD
BRANCH  22  24
HETATM   24  C19 UNL     1      24.085   8.630   7.193  1.00  0.00     0.123 C
BRANCH  24  25
HETATM   25  C20 UNL     1      24.314   7.729   6.013  1.00  0.00     0.024 C
BRANCH  25  26
HETATM   26  C21 UNL     1      23.004   7.517   5.282  1.00  0.00    -0.010 C
HETATM   27  C22 UNL     1      23.236   7.595   3.771  1.00  0.00     0.032 C
HETATM   28  C23 UNL     1      21.875   7.558   3.118  1.00  0.00     0.232 C
HETATM   29  N3  UNL     1      21.142   6.364   3.459  1.00  0.00    -0.075 N
HETATM   30  C24 UNL     1      20.991   6.217   4.875  1.00  0.00     0.232 C
ATOM     31  H32 UNL     1      20.239   6.335   2.985  1.00  0.00     0.277 HD
ATOM     32  H31 UNL     1      21.567   5.535   3.043  1.00  0.00     0.277 HD
HETATM   33  C25 UNL     1      22.389   6.162   5.512  1.00  0.00     0.032 C
ENDBRANCH  25  26
ENDBRANCH  24  25
ENDBRANCH  22  24
ENDBRANCH   8  20
ENDBRANCH   3   4
TORSDOF 6
ENDMDL