MODEL 5
REMARK VINA RESULT: -7.526341026      1.218      1.807
REMARK  7 active torsions:
REMARK  status: ('A' for Active; 'I' for Inactive)
REMARK    1  A    between atoms: C2_2  and  N1_3
REMARK       I    between atoms: C3_5  and  N2_6
REMARK       I    between atoms: C3_5  and  N6_25
REMARK    2  A    between atoms: N2_6  and  C4_8
REMARK    3  A    between atoms: C4_8  and  C5_9
REMARK    4  A    between atoms: C5_9  and  N3_10
REMARK    5  A    between atoms: C9_14  and  C11_16
REMARK    6  A    between atoms: C11_16  and  N4_17
REMARK    7  A    between atoms: N6_25  and  C17_27
ROOT
HETATM    1  C4  UNL     1      21.659   5.378  13.228  1.00  0.00     0.157 C
ENDROOT
BRANCH   1   2
HETATM    2  N2  UNL     1      22.551   5.722  14.325  1.00  0.00    -0.225 N
HETATM    3  C3  UNL     1      22.036   6.248  15.551  1.00  0.00     0.670 C
HETATM    4  N1  UNL     1      21.051   7.050  15.601  1.00  0.00    -0.227 N
HETATM    5  N6  UNL     1      22.658   5.840  16.753  1.00  0.00    -0.222 N
ATOM      6  H1  UNL     1      20.643   7.300  14.700  1.00  0.00     0.177 HD
ATOM      7  H6  UNL     1      22.055   5.566  17.528  1.00  0.00     0.178 HD
ATOM      8  H2  UNL     1      23.556   5.587  14.217  1.00  0.00     0.177 HD
BRANCH   4   9
HETATM    9  C2  UNL     1      20.438   7.648  16.734  1.00  0.00     0.133 C
HETATM   10  C1  UNL     1      21.116   8.863  17.268  1.00  0.00     0.027 C
ENDBRANCH   4   9
BRANCH   5  11
HETATM   11  C17 UNL     1      24.074   5.784  16.962  1.00  0.00     0.103 C
HETATM   12  C18 UNL     1      24.794   7.078  16.573  1.00  0.00     0.030 C
HETATM   13  C19 UNL     1      25.569   7.483  17.795  1.00  0.00    -0.012 C
HETATM   14  C20 UNL     1      24.601   8.033  18.794  1.00  0.00     0.005 C
HETATM   15  C23 UNL     1      25.840   6.104  18.424  1.00  0.00     0.011 C
HETATM   16  C21 UNL     1      23.751   6.806  19.153  1.00  0.00     0.007 C
HETATM   17  C22 UNL     1      24.358   5.668  18.422  1.00  0.00     0.009 C
ENDBRANCH   5  11
ENDBRANCH   1   2
BRANCH   1  18
HETATM   18  C5  UNL     1      22.433   5.007  11.984  1.00  0.00     0.137 C
BRANCH  18  19
HETATM   19  N3  UNL     1      22.365   6.076  11.050  1.00  0.00    -0.411 N
HETATM   20  C6  UNL     1      21.070   6.377  10.535  1.00  0.00     0.117 C
HETATM   21  C7  UNL     1      20.874   7.861  10.535  1.00  0.00     0.020 C
HETATM   22  C8  UNL     1      22.048   8.547   9.930  1.00  0.00     0.012 C
HETATM   23  C9  UNL     1      22.492   7.967   8.592  1.00  0.00    -0.026 C
HETATM   24  C10 UNL     1      21.259   7.910   7.678  1.00  0.00     0.017 C
HETATM   25  C15 UNL     1      23.069   6.608   8.735  1.00  0.00     0.030 C
HETATM   26  C16 UNL     1      23.445   6.224  10.150  1.00  0.00     0.117 C
BRANCH  23  27
HETATM   27  C11 UNL     1      23.433   8.992   8.024  1.00  0.00     0.138 C
BRANCH  27  28
HETATM   28  N4  UNL     1      24.578   8.510   7.333  1.00  0.00    -0.351 N
HETATM   29  C12 UNL     1      25.817   8.366   7.823  1.00  0.00     0.108 A
HETATM   30  C13 UNL     1      26.625   7.872   6.842  1.00  0.00     0.106 A
HETATM   31  N5  UNL     1      25.845   7.727   5.765  1.00  0.00    -0.361 N
HETATM   32  C14 UNL     1      24.599   8.110   6.047  1.00  0.00     0.182 A
ATOM     33  H5  UNL     1      26.157   7.375   4.861  1.00  0.00     0.166 HD
ENDBRANCH  27  28
ENDBRANCH  23  27
ENDBRANCH  18  19
ENDBRANCH   1  18
TORSDOF 7
ENDMDL