MODEL 4
REMARK VINA RESULT: -8.941429162      2.192      2.836
REMARK  6 active torsions:
REMARK  status: ('A' for Active; 'I' for Inactive)
REMARK    1  A    between atoms: S1_2  and  N1_4
REMARK    2  A    between atoms: S1_2  and  C11_16
REMARK    3  A    between atoms: N1_4  and  C1_6
REMARK    4  A    between atoms: C14_19  and  C15_20
REMARK    5  A    between atoms: C15_20  and  N2_21
REMARK    6  A    between atoms: N2_21  and  C16_23
ROOT
HETATM    1  C11 UNL     1      23.812   5.285  12.326  1.00  0.00     0.079 A
HETATM    2  C12 UNL     1      23.755   6.143  11.231  1.00  0.00     0.026 A
HETATM    3  C13 UNL     1      22.993   5.783  10.133  1.00  0.00     0.010 A
HETATM    4  C14 UNL     1      22.281   4.581  10.101  1.00  0.00    -0.041 A
HETATM    5  C21 UNL     1      22.345   3.741  11.172  1.00  0.00     0.010 A
HETATM    6  C22 UNL     1      23.116   4.099  12.290  1.00  0.00     0.026 A
ENDROOT
BRANCH   1   7
HETATM    7  S1  UNL     1      24.657   5.755  13.767  1.00  0.00     0.259 S
HETATM    8  O1  UNL     1      26.109   5.244  13.694  1.00  0.00    -0.201 OA
HETATM    9  O2  UNL     1      24.860   7.276  13.667  1.00  0.00    -0.201 OA
BRANCH   7  10
HETATM   10  N1  UNL     1      23.946   5.403  15.217  1.00  0.00    -0.305 N
ATOM     11  H1  UNL     1      23.379   4.557  15.279  1.00  0.00     0.173 HD
BRANCH  10  12
HETATM   12  C1  UNL     1      24.074   6.190  16.360  1.00  0.00     0.041 C
HETATM   13  C2  UNL     1      22.810   6.954  16.708  1.00  0.00     0.036 C
HETATM   14  C3  UNL     1      22.951   7.556  18.074  1.00  0.00    -0.012 C
HETATM   15  C4  UNL     1      23.142   6.503  19.142  1.00  0.00     0.009 C
HETATM   16  C8  UNL     1      24.090   8.535  18.045  1.00  0.00     0.009 C
HETATM   17  C5  UNL     1      24.440   5.801  18.833  1.00  0.00    -0.012 C
HETATM   18  C6  UNL     1      25.582   6.785  18.868  1.00  0.00     0.009 C
HETATM   19  C10 UNL     1      24.345   5.165  17.495  1.00  0.00     0.036 C
HETATM   20  C7  UNL     1      25.367   7.778  17.768  1.00  0.00    -0.012 C
HETATM   21  C9  UNL     1      25.235   7.129  16.394  1.00  0.00     0.036 C
ENDBRANCH  10  12
ENDBRANCH   7  10
ENDBRANCH   1   7
BRANCH   4  22
HETATM   22  C15 UNL     1      21.350   4.366   8.943  1.00  0.00     0.153 C
BRANCH  22  23
HETATM   23  N2  UNL     1      20.155   5.128   9.188  1.00  0.00    -0.413 N
ATOM     24  H2  UNL     1      20.008   6.026   8.726  1.00  0.00     0.153 HD
BRANCH  23  25
HETATM   25  C16 UNL     1      19.205   4.622  10.063  1.00  0.00     0.080 C
HETATM   26  C17 UNL     1      18.671   3.276   9.603  1.00  0.00     0.051 C
HETATM   27  C18 UNL     1      17.742   3.545   8.447  1.00  0.00     0.169 C
HETATM   28  O3  UNL     1      16.667   4.332   8.863  1.00  0.00    -0.391 OA
HETATM   29  C19 UNL     1      17.148   5.608   9.165  1.00  0.00     0.169 C
HETATM   30  C20 UNL     1      18.042   5.516  10.372  1.00  0.00     0.051 C
ENDBRANCH  23  25
ENDBRANCH  22  23
ENDBRANCH   4  22
TORSDOF 6
ENDMDL