MODEL 1
REMARK VINA RESULT: -8.806902735      0.000      0.000
REMARK  6 active torsions:
REMARK  status: ('A' for Active; 'I' for Inactive)
REMARK    1  A    between atoms: C2_2  and  N3_25
REMARK    2  A    between atoms: N1_3  and  N2_5
REMARK       I    between atoms: N2_5  and  C3_7
REMARK    3  A    between atoms: C3_7  and  C4_9
REMARK    4  A    between atoms: C11_16  and  C12_17
REMARK    5  A    between atoms: C12_17  and  C13_18
REMARK    6  A    between atoms: C13_18  and  C14_19
ROOT
HETATM    1  C4  UNL     1      25.206   6.572  16.214  1.00  0.00     0.084 C
HETATM    2  C5  UNL     1      24.980   7.973  16.697  1.00  0.00     0.019 C
HETATM    3  C6  UNL     1      24.929   8.110  18.179  1.00  0.00    -0.013 C
HETATM    4  C7  UNL     1      26.114   7.520  18.891  1.00  0.00     0.005 C
HETATM    5  C8  UNL     1      26.207   6.057  18.875  1.00  0.00     0.005 C
HETATM    6  C9  UNL     1      25.046   5.288  18.387  1.00  0.00    -0.009 C
HETATM    7  C10 UNL     1      23.906   5.467  19.425  1.00  0.00     0.014 C
HETATM    8  C11 UNL     1      23.049   6.484  18.804  1.00  0.00    -0.039 C
HETATM    9  C15 UNL     1      23.640   7.883  18.841  1.00  0.00     0.014 C
HETATM   10  C16 UNL     1      23.041   6.080  17.331  1.00  0.00     0.015 C
HETATM   11  C17 UNL     1      24.459   5.617  17.079  1.00  0.00     0.003 C
ENDROOT
BRANCH   1  12
HETATM   12  C3  UNL     1      24.729   6.438  14.815  1.00  0.00     0.240 C
HETATM   13  N2  UNL     1      23.979   5.303  14.402  1.00  0.00    -0.268 N
ATOM     14  H2  UNL     1      23.781   4.587  15.100  1.00  0.00     0.190 HD
HETATM   15  O1  UNL     1      24.976   7.331  13.946  1.00  0.00    -0.271 OA
BRANCH  13  16
HETATM   16  N1  UNL     1      23.504   5.100  13.133  1.00  0.00    -0.287 N
HETATM   17  C2  UNL     1      22.267   5.268  12.811  1.00  0.00     0.090 C
HETATM   18  C1  UNL     1      21.339   5.704  13.913  1.00  0.00     0.090 C
ATOM     19  H1  UNL     1      24.158   4.803  12.410  1.00  0.00     0.188 HD
BRANCH  17  20
HETATM   20  N3  UNL     1      21.805   5.053  11.495  1.00  0.00    -0.367 N
HETATM   21  C18 UNL     1      20.391   4.943  11.214  1.00  0.00     0.154 C
HETATM   22  C19 UNL     1      20.251   3.950  10.065  1.00  0.00     0.291 C
HETATM   23  N4  UNL     1      20.855   4.466   8.854  1.00  0.00     0.087 N
HETATM   24  C20 UNL     1      19.857   5.263   8.143  1.00  0.00     0.310 C
HETATM   25  C21 UNL     1      22.011   5.272   9.089  1.00  0.00     0.291 C
HETATM   26  C22 UNL     1      22.726   4.937  10.383  1.00  0.00     0.154 C
ENDBRANCH  17  20
ENDBRANCH  13  16
ENDBRANCH   1  12
BRANCH   8  27
HETATM   27  C12 UNL     1      21.656   6.685  19.321  1.00  0.00     0.020 C
BRANCH  27  28
HETATM   28  C13 UNL     1      21.220   6.027  20.552  1.00  0.00     0.114 C
BRANCH  28  29
HETATM   29  C14 UNL     1      20.066   6.588  21.271  1.00  0.00     0.172 C
HETATM   30  O2  UNL     1      19.356   7.518  20.836  1.00  0.00    -0.648 OA
HETATM   31  O3  UNL     1      19.749   6.042  22.525  1.00  0.00    -0.648 OA
ENDBRANCH  28  29
ENDBRANCH  27  28
ENDBRANCH   8  27
TORSDOF 6
ENDMDL