MODEL 1
REMARK VINA RESULT: -7.946059536      0.000      0.000
REMARK  7 active torsions:
REMARK  status: ('A' for Active; 'I' for Inactive)
REMARK    1  A    between atoms: C2_2  and  N1_4
REMARK       I    between atoms: N1_4  and  C4_6
REMARK       I    between atoms: C4_6  and  N2_8
REMARK    2  A    between atoms: N2_8  and  C5_10
REMARK    3  A    between atoms: C5_10  and  C7_12
REMARK    4  A    between atoms: C13_18  and  O2_19
REMARK    5  A    between atoms: O2_19  and  C14_20
REMARK    6  A    between atoms: C14_20  and  C15_22
REMARK    7  A    between atoms: C15_22  and  N3_23
ROOT
HETATM    1  C7  UNL     1      21.411   5.709   9.378  1.00  0.00     0.012 C
HETATM    2  C8  UNL     1      22.831   6.028   9.835  1.00  0.00     0.012 C
HETATM    3  C9  UNL     1      23.057   5.256  11.110  1.00  0.00    -0.009 C
HETATM    4  C10 UNL     1      24.253   5.721  11.905  1.00  0.00     0.010 C
HETATM    5  C11 UNL     1      23.862   5.151  13.279  1.00  0.00    -0.007 C
HETATM    6  C12 UNL     1      24.652   5.868  14.315  1.00  0.00     0.037 C
HETATM    7  C13 UNL     1      23.686   6.818  14.991  1.00  0.00     0.132 C
HETATM    8  C18 UNL     1      22.489   6.901  14.041  1.00  0.00     0.038 C
HETATM    9  C19 UNL     1      22.422   5.533  13.401  1.00  0.00    -0.004 C
HETATM   10  C20 UNL     1      21.872   5.512  12.021  1.00  0.00    -0.006 C
HETATM   11  C21 UNL     1      21.128   6.757  11.614  1.00  0.00     0.010 C
HETATM   12  C22 UNL     1      20.481   6.452  10.252  1.00  0.00    -0.012 C
HETATM   13  C23 UNL     1      19.941   7.738   9.737  1.00  0.00     0.010 C
ENDROOT
BRANCH   1  14
HETATM   14  C5  UNL     1      21.238   5.768   7.920  1.00  0.00     0.086 C
HETATM   15  C6  UNL     1      20.328   4.583   7.538  1.00  0.00     0.032 C
BRANCH  14  16
HETATM   16  N2  UNL     1      22.366   5.683   7.076  1.00  0.00    -0.339 N
HETATM   17  C4  UNL     1      22.828   6.838   6.397  1.00  0.00     0.316 C
HETATM   18  N1  UNL     1      23.966   6.805   5.526  1.00  0.00    -0.339 N
HETATM   19  O1  UNL     1      22.250   7.935   6.539  1.00  0.00    -0.247 OA
ATOM     20  H1  UNL     1      24.457   5.920   5.392  1.00  0.00     0.164 HD
ATOM     21  H2  UNL     1      22.847   4.792   6.955  1.00  0.00     0.164 HD
BRANCH  18  22
HETATM   22  C2  UNL     1      24.443   7.973   4.832  1.00  0.00     0.078 C
HETATM   23  C1  UNL     1      23.839   7.938   3.447  1.00  0.00     0.032 C
HETATM   24  C3  UNL     1      25.948   7.972   4.684  1.00  0.00     0.032 C
ENDBRANCH  18  22
ENDBRANCH  14  16
ENDBRANCH   1  14
BRANCH   7  25
HETATM   25  O2  UNL     1      23.337   6.223  16.222  1.00  0.00    -0.315 OA
BRANCH  25  26
HETATM   26  C14 UNL     1      24.279   5.641  17.052  1.00  0.00     0.287 C
HETATM   27  O3  UNL     1      24.660   4.461  16.854  1.00  0.00    -0.263 OA
BRANCH  26  28
HETATM   28  C15 UNL     1      24.838   6.406  18.169  1.00  0.00     0.381 C
BRANCH  28  29
HETATM   29  N3  UNL     1      25.366   5.564  19.207  1.00  0.00     0.089 N
HETATM   30  C16 UNL     1      26.629   6.069  19.714  1.00  0.00     0.310 C
HETATM   31  C17 UNL     1      24.436   5.265  20.254  1.00  0.00     0.310 C
ENDBRANCH  28  29
ENDBRANCH  26  28
ENDBRANCH  25  26
ENDBRANCH   7  25
TORSDOF 7
ENDMDL