MODEL 1
REMARK VINA RESULT: -8.332891921      0.000      0.000
REMARK  7 active torsions:
REMARK  status: ('A' for Active; 'I' for Inactive)
REMARK    1  A    between atoms: C2_2  and  N1_4
REMARK       I    between atoms: N1_4  and  C4_6
REMARK    2  A    between atoms: C4_6  and  C5_8
REMARK    3  A    between atoms: C5_8  and  N2_11
REMARK    4  A    between atoms: N2_11  and  C8_13
REMARK    5  A    between atoms: C11_16  and  C12_17
REMARK    6  A    between atoms: C12_17  and  C13_18
REMARK    7  A    between atoms: C13_18  and  N3_19
ROOT
HETATM    1  C8  UNL     1      23.445   6.079  14.243  1.00  0.00     0.077 C
HETATM    2  C9  UNL     1      24.388   5.404  13.328  1.00  0.00     0.025 C
HETATM    3  C10 UNL     1      23.880   5.025  11.974  1.00  0.00     0.007 C
HETATM    4  C11 UNL     1      22.519   4.390  12.124  1.00  0.00    -0.010 C
HETATM    5  C23 UNL     1      21.613   5.483  12.630  1.00  0.00     0.007 C
HETATM    6  C24 UNL     1      21.991   5.958  14.004  1.00  0.00     0.025 C
ENDROOT
BRANCH   4   7
HETATM    7  C12 UNL     1      21.950   3.969  10.769  1.00  0.00     0.049 C
BRANCH   7   8
HETATM    8  C13 UNL     1      20.904   4.915  10.296  1.00  0.00     0.065 C
BRANCH   8   9
HETATM    9  N3  UNL     1      21.329   5.726   9.241  1.00  0.00    -0.352 N
HETATM   10  C14 UNL     1      20.955   7.103   9.324  1.00  0.00     0.132 C
HETATM   11  C15 UNL     1      21.573   7.953   8.257  1.00  0.00     0.059 C
HETATM   12  C16 UNL     1      22.967   7.397   8.042  1.00  0.00     0.077 C
HETATM   13  C17 UNL     1      23.922   7.584   9.183  1.00  0.00     0.040 C
HETATM   14  C19 UNL     1      23.818   8.331   7.233  1.00  0.00    -0.016 C
HETATM   15  O2  UNL     1      22.923   6.142   7.535  1.00  0.00    -0.335 OA
HETATM   16  C18 UNL     1      24.970   8.038   8.166  1.00  0.00     0.015 C
HETATM   17  C20 UNL     1      23.432   9.794   7.349  1.00  0.00     0.018 C
HETATM   18  C21 UNL     1      24.070   7.896   5.815  1.00  0.00     0.018 C
HETATM   19  C22 UNL     1      22.070   5.263   8.176  1.00  0.00     0.229 C
ENDBRANCH   8   9
ENDBRANCH   7   8
ENDBRANCH   4   7
BRANCH   1  20
HETATM   20  N2  UNL     1      23.730   5.635  15.589  1.00  0.00    -0.401 N
ATOM     21  H2  UNL     1      23.453   4.711  15.919  1.00  0.00     0.154 HD
BRANCH  20  22
HETATM   22  C5  UNL     1      24.406   6.539  16.419  1.00  0.00     0.100 C
HETATM   23  C6  UNL     1      23.413   7.600  16.872  1.00  0.00     0.048 C
HETATM   24  C7  UNL     1      25.523   7.287  15.699  1.00  0.00     0.048 C
BRANCH  22  25
HETATM   25  C4  UNL     1      25.023   6.006  17.656  1.00  0.00     0.245 C
HETATM   26  N1  UNL     1      25.696   7.005  18.460  1.00  0.00    -0.355 N
ATOM     27  H1  UNL     1      25.696   7.974  18.142  1.00  0.00     0.162 HD
HETATM   28  O1  UNL     1      25.007   4.828  18.039  1.00  0.00    -0.271 OA
BRANCH  26  29
HETATM   29  C2  UNL     1      26.372   6.677  19.704  1.00  0.00     0.076 C
HETATM   30  C1  UNL     1      27.142   7.876  20.228  1.00  0.00     0.032 C
HETATM   31  C3  UNL     1      25.329   6.342  20.788  1.00  0.00     0.032 C
ENDBRANCH  26  29
ENDBRANCH  22  25
ENDBRANCH  20  22
ENDBRANCH   1  20
TORSDOF 7
ENDMDL