MODEL 2
REMARK VINA RESULT: -7.227129954      2.012      3.504
REMARK  12 active torsions:
REMARK  status: ('A' for Active; 'I' for Inactive)
REMARK    1  A    between atoms: C2_2  and  C5_5
REMARK    2  A    between atoms: C7_10  and  C8_11
REMARK    3  A    between atoms: C9_12  and  C10_13
REMARK    4  A    between atoms: C10_13  and  C11_15
REMARK    5  A    between atoms: C14_18  and  C15_19
REMARK    6  A    between atoms: C15_19  and  O1_21
REMARK    7  A    between atoms: C15_19  and  C17_23
REMARK    8  A    between atoms: C17_23  and  O2_24
REMARK    9  A    between atoms: C17_23  and  C18_26
REMARK   10  A    between atoms: C18_26  and  O3_27
REMARK   11  A    between atoms: N2_30  and  C19_31
REMARK   12  A    between atoms: C19_31  and  C20_32
ROOT
HETATM    1  C8  UNL     1      41.763  48.932  20.455  1.00  0.00    -0.044 C
HETATM    2  C9  UNL     1      42.117  49.956  20.972  1.00  0.00    -0.081 C
ENDROOT
BRANCH   1   3
HETATM    3  C7  UNL     1      41.340  47.665  19.872  1.00  0.00     0.129 A
HETATM    4  C6  UNL     1      40.204  46.964  20.197  1.00  0.00     0.141 A
HETATM    5  N1  UNL     1      40.195  45.889  19.424  1.00  0.00    -0.333 N
HETATM    6 CL1  UNL     1      39.014  47.428  21.406  1.00  0.00    -0.061 Cl
HETATM    7  C5  UNL     1      41.303  45.868  18.600  1.00  0.00     0.093 A
ATOM      8  H1  UNL     1      39.469  45.173  19.436  1.00  0.00     0.168 HD
HETATM    9  N2  UNL     1      41.975  46.963  18.902  1.00  0.00    -0.324 N
BRANCH   7  10
HETATM   10  C2  UNL     1      41.478  44.749  17.658  1.00  0.00     0.008 C
HETATM   11  C1  UNL     1      40.188  43.882  17.767  1.00  0.00     0.022 C
HETATM   12  C3  UNL     1      42.567  43.837  18.176  1.00  0.00     0.022 C
HETATM   13  C4  UNL     1      41.572  45.072  16.213  1.00  0.00     0.022 C
ENDBRANCH   7  10
BRANCH   9  14
HETATM   14  C19 UNL     1      43.209  47.440  18.346  1.00  0.00     0.163 C
BRANCH  14  15
HETATM   15  C20 UNL     1      43.124  48.689  17.541  1.00  0.00     0.140 C
HETATM   16  C21 UNL     1      42.877  48.336  16.073  1.00  0.00     0.035 C
HETATM   17  C22 UNL     1      43.165  49.678  15.402  1.00  0.00     0.029 C
HETATM   18  C23 UNL     1      43.927  50.421  16.505  1.00  0.00     0.168 C
HETATM   19  O5  UNL     1      44.267  49.435  17.434  1.00  0.00    -0.384 OA
ENDBRANCH  14  15
ENDBRANCH   9  14
ENDBRANCH   1   3
BRANCH   2  20
HETATM   20  C10 UNL     1      42.572  51.199  21.646  1.00  0.00     0.166 C
HETATM   21 BR1  UNL     1      43.043  52.492  20.296  1.00  0.00    -0.075 Br
BRANCH  20  22
HETATM   22  C11 UNL     1      43.718  50.908  22.568  1.00  0.00     0.148 C
HETATM   23  C12 UNL     1      43.437  51.180  24.017  1.00  0.00     0.036 C
HETATM   24  C13 UNL     1      44.322  50.113  24.689  1.00  0.00     0.038 C
HETATM   25  C14 UNL     1      45.164  49.619  23.537  1.00  0.00     0.158 C
HETATM   26  O4  UNL     1      44.235  49.635  22.468  1.00  0.00    -0.375 OA
BRANCH  25  27
HETATM   27  C15 UNL     1      45.632  48.196  23.691  1.00  0.00     0.108 C
HETATM   28  C16 UNL     1      45.660  47.792  25.157  1.00  0.00     0.051 C
BRANCH  27  29
HETATM   29  O1  UNL     1      44.762  47.367  22.985  1.00  0.00    -0.385 OA
ATOM     30  H1  UNL     1      45.267  46.868  22.354  1.00  0.00     0.210 HD
ENDBRANCH  27  29
BRANCH  27  31
HETATM   31  C17 UNL     1      47.027  48.101  23.086  1.00  0.00     0.178 C
BRANCH  31  32
HETATM   32  O2  UNL     1      47.696  46.952  23.538  1.00  0.00    -0.390 OA
ATOM     33  H2  UNL     1      48.202  47.136  24.321  1.00  0.00     0.210 HD
ENDBRANCH  31  32
BRANCH  31  34
HETATM   34  C18 UNL     1      46.935  48.081  21.565  1.00  0.00     0.199 C
BRANCH  34  35
HETATM   35  O3  UNL     1      48.025  48.776  21.048  1.00  0.00    -0.398 OA
ATOM     36  H3  UNL     1      47.711  49.374  20.379  1.00  0.00     0.209 HD
ENDBRANCH  34  35
ENDBRANCH  31  34
ENDBRANCH  27  31
ENDBRANCH  25  27
ENDBRANCH  20  22
ENDBRANCH   2  20
TORSDOF 12
ENDMDL