MODEL 4
REMARK VINA RESULT: -7.840672633      1.524      1.923
REMARK  9 active torsions:
REMARK  status: ('A' for Active; 'I' for Inactive)
REMARK    1  A    between atoms: C4_4  and  O1_5
REMARK    2  A    between atoms: C5_7  and  O2_8
REMARK    3  A    between atoms: O2_8  and  C6_9
REMARK    4  A    between atoms: C7_10  and  O3_11
REMARK    5  A    between atoms: C10_16  and  N1_17
REMARK    6  A    between atoms: C12_19  and  C13_20
REMARK    7  A    between atoms: C13_20  and  C14_21
REMARK    8  A    between atoms: C14_21  and  C15_22
REMARK    9  A    between atoms: C15_22  and  O4_23
ROOT
HETATM    1  C6  UNL     1      42.978  48.768  21.611  1.00  0.00     0.178 C
HETATM    2  C7  UNL     1      43.539  49.598  20.480  1.00  0.00     0.163 C
HETATM    3  C8  UNL     1      44.684  48.753  19.889  1.00  0.00     0.091 C
HETATM    4 BR1  UNL     1      43.946  47.081  19.271  1.00  0.00    -0.088 Br
HETATM    5  C9  UNL     1      45.785  48.520  20.850  1.00  0.00     0.047 C
HETATM    6  C10 UNL     1      45.439  48.820  22.275  1.00  0.00     0.130 C
HETATM    7  C16 UNL     1      44.042  48.602  22.662  1.00  0.00     0.149 C
HETATM    8  C17 UNL     1      43.715  49.547  23.763  1.00  0.00     0.069 C
HETATM    9  N4  UNL     1      43.454  50.277  24.621  1.00  0.00    -0.197 NA
ENDROOT
BRANCH   1  10
HETATM   10  O2  UNL     1      41.854  49.297  22.213  1.00  0.00    -0.338 OA
BRANCH  10  11
HETATM   11  C5  UNL     1      40.552  48.976  22.219  1.00  0.00     0.119 A
HETATM   12  C4  UNL     1      40.099  47.771  21.719  1.00  0.00     0.100 A
HETATM   13  C3  UNL     1      38.750  47.405  21.711  1.00  0.00     0.046 A
HETATM   14  C2  UNL     1      37.821  48.265  22.218  1.00  0.00    -0.058 A
HETATM   15  C1  UNL     1      36.372  47.931  22.235  1.00  0.00     0.048 C
HETATM   16  C19 UNL     1      38.227  49.471  22.726  1.00  0.00     0.029 A
HETATM   17  C18 UNL     1      39.584  49.818  22.725  1.00  0.00     0.047 A
HETATM   18 BR2  UNL     1      39.991  51.487  23.544  1.00  0.00    -0.048 Br
BRANCH  12  19
HETATM   19  O1  UNL     1      40.973  46.867  21.199  1.00  0.00    -0.358 OA
ATOM     20  H1  UNL     1      41.627  46.520  21.796  1.00  0.00     0.217 HD
ENDBRANCH  12  19
ENDBRANCH  10  11
ENDBRANCH   1  10
BRANCH   6  21
HETATM   21  N1  UNL     1      46.308  48.028  23.109  1.00  0.00    -0.281 N
HETATM   22  C11 UNL     1      46.241  47.854  24.436  1.00  0.00     0.138 A
HETATM   23  C12 UNL     1      47.271  47.011  24.848  1.00  0.00     0.044 A
HETATM   24  N2  UNL     1      47.934  46.708  23.696  1.00  0.00    -0.289 N
HETATM   25  N3  UNL     1      47.337  47.326  22.689  1.00  0.00    -0.240 N
ATOM     26  H2  UNL     1      48.753  46.106  23.622  1.00  0.00     0.188 HD
ATOM     27  H3  UNL     1      47.636  47.266  21.716  1.00  0.00     0.208 HD
BRANCH  23  28
HETATM   28  C13 UNL     1      47.563  46.562  26.216  1.00  0.00     0.062 C
BRANCH  28  29
HETATM   29  C14 UNL     1      46.770  45.324  26.579  1.00  0.00     0.032 C
BRANCH  29  30
HETATM   30  C15 UNL     1      47.675  44.117  26.730  1.00  0.00     0.164 C
BRANCH  30  31
HETATM   31  O4  UNL     1      47.954  43.519  25.513  1.00  0.00    -0.401 OA
ATOM     32  H4  UNL     1      47.541  42.668  25.430  1.00  0.00     0.209 HD
ENDBRANCH  30  31
ENDBRANCH  29  30
ENDBRANCH  28  29
ENDBRANCH  23  28
ENDBRANCH   6  21
BRANCH   2  33
HETATM   33  O3  UNL     1      44.023  50.823  20.859  1.00  0.00    -0.392 OA
ATOM     34  H3  UNL     1      43.362  51.429  21.173  1.00  0.00     0.210 HD
ENDBRANCH   2  33
TORSDOF 9
ENDMDL