MODEL 2
REMARK VINA RESULT: -7.904513572      0.081      1.563
REMARK  10 active torsions:
REMARK  status: ('A' for Active; 'I' for Inactive)
REMARK    1  A    between atoms: C2_2  and  O1_3
REMARK    2  A    between atoms: O1_3  and  C3_4
REMARK    3  A    between atoms: C3_4  and  C4_6
REMARK       I    between atoms: N1_12  and  C9_13
REMARK    4  A    between atoms: C9_13  and  C10_15
REMARK    5  A    between atoms: C10_15  and  C11_16
REMARK    6  A    between atoms: C10_15  and  N2_27
REMARK    7  A    between atoms: C11_16  and  C12_17
REMARK    8  A    between atoms: C15_21  and  O4_22
REMARK       I    between atoms: N2_27  and  C18_29
REMARK    9  A    between atoms: C18_29  and  O6_31
REMARK   10  A    between atoms: O6_31  and  C19_32
ROOT
HETATM    1  C10 UNL     1      43.622  47.589  20.620  1.00  0.00     0.086 C
ENDROOT
BRANCH   1   2
HETATM    2  C9  UNL     1      44.423  48.185  21.663  1.00  0.00     0.267 C
HETATM    3  N1  UNL     1      44.130  49.068  22.698  1.00  0.00    -0.332 N
HETATM    4  C4  UNL     1      45.246  49.512  23.568  1.00  0.00     0.187 C
HETATM    5  C8  UNL     1      42.905  49.652  23.123  1.00  0.00     0.143 C
HETATM    6  C5  UNL     1      44.811  50.602  24.508  1.00  0.00     0.037 C
HETATM    7  C6  UNL     1      43.991  51.684  23.901  1.00  0.00     0.020 C
HETATM    8  C7  UNL     1      43.012  51.152  22.850  1.00  0.00     0.076 C
HETATM    9  S1  UNL     1      43.754  51.511  21.240  1.00  0.00    -0.091 SA
HETATM   10  O3  UNL     1      45.661  47.798  21.596  1.00  0.00    -0.266 OA
BRANCH   4  11
HETATM   11  C3  UNL     1      45.600  48.354  24.419  1.00  0.00     0.282 C
HETATM   12  O2  UNL     1      44.704  47.552  24.762  1.00  0.00    -0.263 OA
BRANCH  11  13
HETATM   13  O1  UNL     1      46.898  48.120  24.855  1.00  0.00    -0.320 OA
BRANCH  13  14
HETATM   14  C2  UNL     1      47.467  46.833  24.739  1.00  0.00     0.174 C
HETATM   15  C1  UNL     1      47.677  46.278  26.120  1.00  0.00     0.034 C
ENDBRANCH  13  14
ENDBRANCH  11  13
ENDBRANCH   4  11
ENDBRANCH   1   2
BRANCH   1  16
HETATM   16  C11 UNL     1      44.186  47.360  19.275  1.00  0.00     0.101 C
BRANCH  16  17
HETATM   17  C12 UNL     1      43.246  46.577  18.389  1.00  0.00    -0.049 A
HETATM   18  C13 UNL     1      43.029  45.238  18.595  1.00  0.00     0.034 A
HETATM   19  C14 UNL     1      42.153  44.500  17.799  1.00  0.00     0.069 A
HETATM   20 CL1  UNL     1      41.884  42.782  18.074  1.00  0.00    -0.081 Cl
HETATM   21  C15 UNL     1      41.472  45.109  16.767  1.00  0.00     0.109 A
HETATM   22  C16 UNL     1      41.687  46.453  16.558  1.00  0.00     0.069 A
HETATM   23 CL2  UNL     1      40.846  47.266  15.267  1.00  0.00    -0.081 Cl
HETATM   24  C17 UNL     1      42.566  47.188  17.358  1.00  0.00     0.034 A
BRANCH  21  25
HETATM   25  O4  UNL     1      40.592  44.367  15.970  1.00  0.00    -0.357 OA
ATOM     26  H4  UNL     1      40.641  44.426  15.023  1.00  0.00     0.217 HD
ENDBRANCH  21  25
ENDBRANCH  16  17
ENDBRANCH   1  16
BRANCH   1  27
HETATM   27  N2  UNL     1      42.298  48.179  20.604  1.00  0.00    -0.301 N
HETATM   28  C18 UNL     1      41.096  47.504  20.905  1.00  0.00     0.365 C
HETATM   29  O5  UNL     1      41.149  46.297  21.219  1.00  0.00    -0.238 OA
ATOM     30  H2  UNL     1      42.229  49.166  20.354  1.00  0.00     0.171 HD
BRANCH  28  31
HETATM   31  O6  UNL     1      39.873  48.126  20.867  1.00  0.00    -0.294 OA
BRANCH  31  32
HETATM   32  C19 UNL     1      39.165  48.367  19.684  1.00  0.00     0.061 C
HETATM   33  C20 UNL     1      37.711  48.740  19.982  1.00  0.00     0.046 C
HETATM   34  C21 UNL     1      39.134  47.155  18.777  1.00  0.00     0.046 C
HETATM   35  C22 UNL     1      39.764  49.502  18.897  1.00  0.00     0.046 C
ENDBRANCH  31  32
ENDBRANCH  28  31
ENDBRANCH   1  27
TORSDOF 10
ENDMDL