MODEL 3
REMARK VINA RESULT: -7.338053517      2.324      3.167
REMARK  11 active torsions:
REMARK  status: ('A' for Active; 'I' for Inactive)
REMARK    1  A    between atoms: C2_2  and  O1_3
REMARK    2  A    between atoms: O1_3  and  C3_4
REMARK    3  A    between atoms: C3_4  and  C4_6
REMARK    4  A    between atoms: C5_7  and  O3_8
REMARK    5  A    between atoms: O3_8  and  C6_9
REMARK       I    between atoms: C6_9  and  N1_11
REMARK    6  A    between atoms: N1_11  and  C7_12
REMARK    7  A    between atoms: C7_12  and  C8_13
REMARK    8  A    between atoms: C13_18  and  C14_19
REMARK       I    between atoms: C14_19  and  N2_21
REMARK    9  A    between atoms: N2_21  and  N3_23
REMARK       I    between atoms: N4_28  and  C17_29
REMARK   10  A    between atoms: C17_29  and  O7_31
REMARK   11  A    between atoms: O7_31  and  C18_32
ROOT
HETATM    1  C4  UNL     1      44.597  49.813  22.864  1.00  0.00     0.220 C
HETATM    2  C5  UNL     1      44.063  49.574  21.497  1.00  0.00     0.179 C
HETATM    3  C15 UNL     1      42.706  48.888  21.896  1.00  0.00     0.121 A
HETATM    4  C16 UNL     1      42.337  49.576  23.126  1.00  0.00     0.176 A
HETATM    5  N4  UNL     1      43.458  50.345  23.573  1.00  0.00    -0.300 N
HETATM    6  C17 UNL     1      43.515  51.349  24.566  1.00  0.00     0.365 C
HETATM    7  O6  UNL     1      44.635  51.814  24.998  1.00  0.00    -0.238 OA
HETATM    8  C22 UNL     1      41.517  49.857  21.948  1.00  0.00     0.272 A
HETATM    9  F1  UNL     1      41.717  51.049  21.248  1.00  0.00    -0.203 F
HETATM   10  F2  UNL     1      40.252  49.311  21.861  1.00  0.00    -0.203 F
ENDROOT
BRANCH   2  11
HETATM   11  O3  UNL     1      44.794  48.720  20.731  1.00  0.00    -0.284 OA
BRANCH  11  12
HETATM   12  C6  UNL     1      44.622  48.191  19.477  1.00  0.00     0.439 C
HETATM   13  O4  UNL     1      45.182  48.888  18.582  1.00  0.00    -0.221 OA
HETATM   14  N1  UNL     1      43.885  47.026  19.336  1.00  0.00    -0.362 NA
BRANCH  14  15
HETATM   15  C7  UNL     1      43.173  45.901  19.195  1.00  0.00     0.171 C
BRANCH  15  16
HETATM   16  C8  UNL     1      41.878  45.952  18.455  1.00  0.00     0.076 C
HETATM   17  C9  UNL     1      40.828  44.965  18.981  1.00  0.00     0.016 C
HETATM   18  C10 UNL     1      41.285  43.583  18.517  1.00  0.00     0.005 C
HETATM   19  C11 UNL     1      41.384  43.514  17.025  1.00  0.00     0.028 C
HETATM   20  C12 UNL     1      41.659  44.805  16.399  1.00  0.00    -0.013 C
HETATM   21  C13 UNL     1      41.888  45.949  17.006  1.00  0.00     0.018 C
BRANCH  21  22
HETATM   22  C14 UNL     1      42.050  47.224  16.274  1.00  0.00     0.266 C
HETATM   23  O5  UNL     1      41.180  47.647  15.442  1.00  0.00    -0.266 OA
HETATM   24  N2  UNL     1      43.188  48.038  16.477  1.00  0.00    -0.273 N
ATOM     25  H2  UNL     1      43.913  47.729  17.125  1.00  0.00     0.189 HD
BRANCH  24  26
HETATM   26  N3  UNL     1      43.339  49.241  15.820  1.00  0.00    -0.342 N
ATOM     27  H32 UNL     1      43.312  50.099  16.370  1.00  0.00     0.176 HD
ATOM     28  H31 UNL     1      43.475  49.282  14.809  1.00  0.00     0.176 HD
ENDBRANCH  24  26
ENDBRANCH  21  22
ENDBRANCH  15  16
ENDBRANCH  14  15
ENDBRANCH  11  12
ENDBRANCH   2  11
BRANCH   1  29
HETATM   29  C3  UNL     1      44.868  48.487  23.533  1.00  0.00     0.284 C
HETATM   30  O2  UNL     1      44.831  47.419  22.886  1.00  0.00    -0.263 OA
BRANCH  29  31
HETATM   31  O1  UNL     1      45.173  48.439  24.852  1.00  0.00    -0.320 OA
BRANCH  31  32
HETATM   32  C2  UNL     1      45.369  47.318  25.688  1.00  0.00     0.174 C
HETATM   33  C1  UNL     1      46.856  46.973  25.724  1.00  0.00     0.034 C
ENDBRANCH  31  32
ENDBRANCH  29  31
ENDBRANCH   1  29
BRANCH   6  34
HETATM   34  O7  UNL     1      42.395  51.910  25.160  1.00  0.00    -0.294 OA
BRANCH  34  35
HETATM   35  C18 UNL     1      41.606  52.918  24.572  1.00  0.00     0.061 C
HETATM   36  C19 UNL     1      42.062  53.426  23.255  1.00  0.00     0.046 C
HETATM   37  C20 UNL     1      41.437  54.089  25.534  1.00  0.00     0.046 C
HETATM   38  C21 UNL     1      40.203  52.319  24.383  1.00  0.00     0.046 C
ENDBRANCH  34  35
ENDBRANCH   6  34
TORSDOF 11
ENDMDL