MODEL 1
REMARK VINA RESULT: -7.834151800      0.000      0.000
REMARK  9 active torsions:
REMARK  status: ('A' for Active; 'I' for Inactive)
REMARK    1  A    between atoms: C2_2  and  C3_3
REMARK    2  A    between atoms: C2_2  and  C6_6
REMARK    3  A    between atoms: C3_3  and  C4_4
REMARK    4  A    between atoms: C6_6  and  C7_8
REMARK    5  A    between atoms: C17_23  and  O6_25
REMARK    6  A    between atoms: C22_30  and  C23_31
REMARK    7  A    between atoms: C23_31  and  C25_34
REMARK    8  A    between atoms: C25_34  and  O7_35
REMARK    9  A    between atoms: C26_37  and  O8_38
ROOT
HETATM    1  C7  UNL     1      43.207  49.124  20.089  1.00  0.00     0.071 C
HETATM    2  C8  UNL     1      41.809  48.980  20.407  1.00  0.00     0.166 C
HETATM    3  O2  UNL     1      41.105  49.979  20.097  1.00  0.00    -0.292 OA
HETATM    4  C9  UNL     1      40.989  47.931  21.014  1.00  0.00     0.059 C
HETATM    5  C10 UNL     1      40.114  47.146  20.066  1.00  0.00     0.018 C
HETATM    6  C11 UNL     1      40.255  48.383  22.227  1.00  0.00     0.055 C
HETATM    7  C12 UNL     1      39.167  49.375  22.093  1.00  0.00     0.111 A
HETATM    8  C13 UNL     1      38.066  49.218  21.067  1.00  0.00     0.051 C
HETATM    9  O3  UNL     1      38.403  49.310  23.405  1.00  0.00    -0.342 OA
HETATM   10  C14 UNL     1      39.097  50.453  22.999  1.00  0.00     0.301 A
HETATM   11  O4  UNL     1      40.129  50.755  23.838  1.00  0.00    -0.296 OA
HETATM   12  C15 UNL     1      40.457  52.110  23.730  1.00  0.00     0.320 C
HETATM   13  C16 UNL     1      39.217  52.916  23.946  1.00  0.00     0.121 C
HETATM   14  F1  UNL     1      41.360  52.344  24.787  1.00  0.00    -0.181 F
HETATM   15  O5  UNL     1      41.070  52.198  22.538  1.00  0.00    -0.289 OA
HETATM   16  C17 UNL     1      41.456  53.315  21.960  1.00  0.00     0.183 C
HETATM   17  C18 UNL     1      40.617  53.500  20.678  1.00  0.00     0.084 C
HETATM   18  C19 UNL     1      42.886  53.556  21.695  1.00  0.00     0.040 C
HETATM   19  C20 UNL     1      43.964  52.884  21.959  1.00  0.00     0.002 C
HETATM   20  C21 UNL     1      44.322  51.648  22.592  1.00  0.00     0.008 C
HETATM   21  C22 UNL     1      44.377  50.359  22.130  1.00  0.00    -0.022 C
HETATM   22  C26 UNL     1      44.097  50.074  20.718  1.00  0.00     0.190 C
ENDROOT
BRANCH   1  23
HETATM   23  C6  UNL     1      43.873  47.896  19.489  1.00  0.00     0.190 C
HETATM   24  O1  UNL     1      45.031  47.532  19.843  1.00  0.00    -0.287 OA
BRANCH  23  25
HETATM   25  C2  UNL     1      43.272  47.040  18.483  1.00  0.00    -0.017 C
HETATM   26  C1  UNL     1      42.773  47.548  17.379  1.00  0.00     0.023 C
BRANCH  25  27
HETATM   27  C3  UNL     1      43.168  45.561  18.651  1.00  0.00     0.041 C
BRANCH  27  28
HETATM   28  C4  UNL     1      42.128  44.989  17.739  1.00  0.00     0.000 C
HETATM   29  C5  UNL     1      41.361  43.882  18.483  1.00  0.00     0.005 C
ENDBRANCH  27  28
ENDBRANCH  25  27
ENDBRANCH  23  25
ENDBRANCH   1  23
BRANCH  22  30
HETATM   30  O8  UNL     1      45.361  49.897  20.027  1.00  0.00    -0.386 OA
ATOM     31  H8  UNL     1      45.345  48.995  19.731  1.00  0.00     0.210 HD
ENDBRANCH  22  30
BRANCH  21  32
HETATM   32  C23 UNL     1      44.814  49.367  23.152  1.00  0.00     0.081 C
HETATM   33  C24 UNL     1      46.246  49.083  23.296  1.00  0.00     0.040 C
HETATM   34 CL1  UNL     1      44.173  47.690  22.785  1.00  0.00    -0.112 Cl
BRANCH  32  35
HETATM   35  C25 UNL     1      44.108  49.585  24.488  1.00  0.00     0.194 C
BRANCH  35  36
HETATM   36  O7  UNL     1      42.775  49.218  24.264  1.00  0.00    -0.399 OA
ATOM     37  H7  UNL     1      42.537  48.675  25.007  1.00  0.00     0.209 HD
ENDBRANCH  35  36
ENDBRANCH  32  35
ENDBRANCH  21  32
BRANCH  16  38
HETATM   38  O6  UNL     1      40.911  54.373  22.766  1.00  0.00    -0.362 OA
ATOM     39  H6  UNL     1      40.006  54.463  22.489  1.00  0.00     0.213 HD
ENDBRANCH  16  38
TORSDOF 9
ENDMDL