MODEL 3
REMARK VINA RESULT: -8.904105951      2.790      5.120
REMARK  9 active torsions:
REMARK  status: ('A' for Active; 'I' for Inactive)
REMARK    1  A    between atoms: C5_9  and  O1_10
REMARK    2  A    between atoms: C5_9  and  C6_12
REMARK    3  A    between atoms: N3_15  and  C9_16
REMARK    4  A    between atoms: C11_20  and  O2_21
REMARK    5  A    between atoms: O2_21  and  C12_22
REMARK    6  A    between atoms: C15_27  and  C16_28
REMARK    7  A    between atoms: C16_28  and  O3_29
REMARK    8  A    between atoms: C16_28  and  N6_31
REMARK    9  A    between atoms: N6_31  and  C17_33
ROOT
HETATM    1  N1  UNL     1      38.754  42.162  15.832  1.00  0.00    -0.197 NA
HETATM    2  C1  UNL     1      39.158  43.177  16.254  1.00  0.00     0.066 C
HETATM    3  C2  UNL     1      39.664  44.462  16.787  1.00  0.00     0.127 C
HETATM    4  C3  UNL     1      39.907  45.322  15.591  1.00  0.00     0.252 C
HETATM    5  N2  UNL     1      40.294  46.657  15.866  1.00  0.00    -0.071 N
ATOM      6  H21 UNL     1      39.558  47.169  16.352  1.00  0.00     0.277 HD
ATOM      7  H22 UNL     1      40.338  47.217  15.016  1.00  0.00     0.277 HD
HETATM    8  C4  UNL     1      41.562  46.696  16.609  1.00  0.00     0.270 C
HETATM    9  C5  UNL     1      41.262  46.590  18.056  1.00  0.00     0.086 C
HETATM   10  C23 UNL     1      41.472  45.146  18.434  1.00  0.00     0.051 C
HETATM   11  C24 UNL     1      40.864  44.130  17.590  1.00  0.00    -0.020 C
HETATM   12  C25 UNL     1      40.603  42.841  18.389  1.00  0.00     0.011 C
HETATM   13  C26 UNL     1      41.658  42.095  17.643  1.00  0.00     0.002 C
HETATM   14  C27 UNL     1      41.823  43.277  16.744  1.00  0.00     0.011 C
ENDROOT
BRANCH   9  15
HETATM   15  O1  UNL     1      39.893  46.858  18.287  1.00  0.00    -0.388 OA
ATOM     16  H1  UNL     1      39.789  47.734  18.641  1.00  0.00     0.210 HD
ENDBRANCH   9  15
BRANCH   9  17
HETATM   17  C6  UNL     1      42.015  47.504  18.962  1.00  0.00     0.025 C
HETATM   18  C7  UNL     1      41.796  47.203  20.422  1.00  0.00     0.027 C
HETATM   19  C8  UNL     1      42.422  48.280  21.305  1.00  0.00     0.125 C
HETATM   20  N3  UNL     1      43.758  48.559  20.931  1.00  0.00    -0.365 N
HETATM   21  C21 UNL     1      44.056  48.757  19.555  1.00  0.00     0.125 C
HETATM   22  C22 UNL     1      43.481  47.627  18.678  1.00  0.00     0.027 C
BRANCH  20  23
HETATM   23  C9  UNL     1      44.797  48.580  21.892  1.00  0.00     0.135 A
HETATM   24  N4  UNL     1      45.967  47.912  21.551  1.00  0.00    -0.346 N
HETATM   25  C10 UNL     1      47.008  47.788  22.365  1.00  0.00     0.145 A
ATOM     26  H4  UNL     1      46.029  47.494  20.623  1.00  0.00     0.167 HD
HETATM   27  C11 UNL     1      46.966  48.336  23.625  1.00  0.00     0.159 A
HETATM   28  N5  UNL     1      45.859  48.977  23.967  1.00  0.00    -0.329 N
HETATM   29  C15 UNL     1      44.761  49.122  23.139  1.00  0.00     0.129 A
ATOM     30  H5  UNL     1      45.813  49.390  24.899  1.00  0.00     0.168 HD
BRANCH  27  31
HETATM   31  O2  UNL     1      48.054  48.219  24.511  1.00  0.00    -0.329 OA
BRANCH  31  32
HETATM   32  C12 UNL     1      48.615  47.017  24.922  1.00  0.00     0.130 A
HETATM   33  C13 UNL     1      47.623  45.857  24.982  1.00  0.00     0.035 A
HETATM   34  C14 UNL     1      48.072  46.530  26.266  1.00  0.00     0.035 A
ENDBRANCH  31  32
ENDBRANCH  27  31
BRANCH  29  35
HETATM   35  C16 UNL     1      43.655  49.914  23.616  1.00  0.00     0.167 C
BRANCH  35  36
HETATM   36  O3  UNL     1      42.865  49.284  24.443  1.00  0.00    -0.345 OA
ATOM     37  H3  UNL     1      42.328  48.616  24.033  1.00  0.00     0.219 HD
ENDBRANCH  35  36
BRANCH  35  38
HETATM   38  N6  UNL     1      43.281  51.227  23.365  1.00  0.00    -0.364 N
ATOM     39  H6  UNL     1      43.720  51.742  22.602  1.00  0.00     0.162 HD
BRANCH  38  40
HETATM   40  C17 UNL     1      42.249  51.881  24.197  1.00  0.00     0.095 C
HETATM   41  C18 UNL     1      42.805  52.576  25.396  1.00  0.00     0.104 C
HETATM   42  C19 UNL     1      42.012  53.820  25.031  1.00  0.00     0.247 C
HETATM   43  F1  UNL     1      42.767  54.977  25.037  1.00  0.00    -0.206 F
HETATM   44  F2  UNL     1      40.834  53.944  25.726  1.00  0.00    -0.206 F
HETATM   45  C20 UNL     1      41.819  53.218  23.658  1.00  0.00     0.104 C
ENDBRANCH  38  40
ENDBRANCH  35  38
ENDBRANCH  29  35
ENDBRANCH  20  23
ENDBRANCH   9  17
TORSDOF 9
ENDMDL