MODEL 4
REMARK VINA RESULT: -8.447765450      1.910      3.366
REMARK  10 active torsions:
REMARK  status: ('A' for Active; 'I' for Inactive)
REMARK       I    between atoms: C2_2  and  N1_4
REMARK    1  A    between atoms: C3_6  and  C4_7
REMARK    2  A    between atoms: C5_9  and  C6_10
REMARK    3  A    between atoms: C6_10  and  C7_11
REMARK    4  A    between atoms: C7_11  and  C8_12
REMARK    5  A    between atoms: C7_11  and  C16_22
REMARK    6  A    between atoms: C8_12  and  C9_13
REMARK    7  A    between atoms: C22_31  and  C23_32
REMARK    8  A    between atoms: C23_32  and  O6_33
REMARK    9  A    between atoms: C24_35  and  O7_36
REMARK   10  A    between atoms: C25_38  and  O8_39
ROOT
HETATM    1  C7  UNL     1      42.815  47.231  20.058  1.00  0.00     0.018 C
ENDROOT
BRANCH   1   2
HETATM    2  C6  UNL     1      44.202  47.008  20.658  1.00  0.00     0.042 C
BRANCH   2   3
HETATM    3  C5  UNL     1      44.655  47.892  21.743  1.00  0.00     0.154 C
HETATM    4  O2  UNL     1      44.654  47.314  22.978  1.00  0.00    -0.370 OA
HETATM    5  C4  UNL     1      45.891  47.394  23.563  1.00  0.00     0.191 C
HETATM    6  C25 UNL     1      46.645  48.502  22.863  1.00  0.00     0.183 C
HETATM    7  C24 UNL     1      46.103  48.347  21.463  1.00  0.00     0.178 C
BRANCH   5   8
HETATM    8  C3  UNL     1      45.758  47.592  25.010  1.00  0.00     0.098 C
HETATM    9  N1  UNL     1      46.592  47.136  25.886  1.00  0.00    -0.339 N
HETATM   10  C2  UNL     1      47.737  46.391  25.571  1.00  0.00     0.217 C
ATOM     11  H1  UNL     1      46.405  47.331  26.869  1.00  0.00     0.167 HD
HETATM   12  C1  UNL     1      49.086  46.948  25.769  1.00  0.00     0.117 C
HETATM   13  O1  UNL     1      47.614  45.231  25.114  1.00  0.00    -0.274 OA
ENDBRANCH   5   8
BRANCH   6  14
HETATM   14  O8  UNL     1      46.329  49.745  23.411  1.00  0.00    -0.390 OA
ATOM     15  H8  UNL     1      47.034  50.367  23.273  1.00  0.00     0.210 HD
ENDBRANCH   6  14
BRANCH   7  16
HETATM   16  O7  UNL     1      46.757  47.294  20.819  1.00  0.00    -0.390 OA
ATOM     17  H7  UNL     1      46.971  47.586  19.941  1.00  0.00     0.210 HD
ENDBRANCH   7  16
ENDBRANCH   2   3
ENDBRANCH   1   2
BRANCH   1  18
HETATM   18  C8  UNL     1      42.286  46.086  19.347  1.00  0.00     0.016 C
BRANCH  18  19
HETATM   19  C9  UNL     1      42.411  45.868  17.900  1.00  0.00     0.041 C
HETATM   20  C10 UNL     1      41.569  46.960  17.139  1.00  0.00     0.009 C
HETATM   21  C11 UNL     1      40.153  46.985  17.539  1.00  0.00     0.005 C
HETATM   22  C12 UNL     1      39.483  45.687  17.248  1.00  0.00    -0.014 C
HETATM   23  C13 UNL     1      39.130  45.510  15.790  1.00  0.00     0.010 C
HETATM   24  C14 UNL     1      40.269  44.565  17.811  1.00  0.00     0.065 C
HETATM   25  C15 UNL     1      41.725  44.573  17.417  1.00  0.00     0.183 C
HETATM   26  F1  UNL     1      41.837  44.540  16.021  1.00  0.00    -0.225 F
HETATM   27 CL1  UNL     1      42.438  43.093  18.004  1.00  0.00    -0.082 Cl
ENDBRANCH  18  19
ENDBRANCH   1  18
BRANCH   1  28
HETATM   28  C16 UNL     1      41.904  47.715  21.220  1.00  0.00     0.137 C
HETATM   29  O3  UNL     1      40.622  47.234  21.097  1.00  0.00    -0.352 OA
HETATM   30  C17 UNL     1      39.784  47.999  21.867  1.00  0.00     0.293 C
HETATM   31  O4  UNL     1      38.473  47.880  21.480  1.00  0.00    -0.324 OA
HETATM   32  C21 UNL     1      40.162  49.385  21.382  1.00  0.00     0.189 C
HETATM   33  C18 UNL     1      38.190  48.853  20.536  1.00  0.00     0.160 C
HETATM   34  C19 UNL     1      37.463  48.283  19.357  1.00  0.00     0.078 C
HETATM   35  C20 UNL     1      37.319  49.938  21.159  1.00  0.00     0.078 C
HETATM   36  O5  UNL     1      39.423  49.426  20.194  1.00  0.00    -0.345 OA
HETATM   37  C22 UNL     1      41.655  49.200  21.139  1.00  0.00     0.073 C
BRANCH  37  38
HETATM   38  C23 UNL     1      42.318  49.972  22.266  1.00  0.00     0.174 C
BRANCH  38  39
HETATM   39  O6  UNL     1      42.264  49.309  23.466  1.00  0.00    -0.400 OA
ATOM     40  H6  UNL     1      42.757  49.747  24.150  1.00  0.00     0.209 HD
ENDBRANCH  38  39
ENDBRANCH  37  38
ENDBRANCH   1  28
TORSDOF 10
ENDMDL