MODEL 2
REMARK VINA RESULT: -8.324790627      3.963      7.916
REMARK  8 active torsions:
REMARK  status: ('A' for Active; 'I' for Inactive)
REMARK    1  A    between atoms: C2_2  and  O1_3
REMARK    2  A    between atoms: O1_3  and  C3_4
REMARK    3  A    between atoms: C3_4  and  C4_6
REMARK    4  A    between atoms: C4_6  and  O3_7
REMARK    5  A    between atoms: C7_12  and  S2_13
REMARK    6  A    between atoms: S2_13  and  C8_14
REMARK    7  A    between atoms: C14_22  and  C15_23
REMARK       I    between atoms: N1_26  and  C16_27
REMARK       I    between atoms: C16_27  and  N2_29
REMARK    8  A    between atoms: N2_29  and  C17_31
ROOT
HETATM    1  C4  UNL     1      42.301  47.472  19.241  1.00  0.00     0.175 C
HETATM    2  C5  UNL     1      43.528  48.231  18.787  1.00  0.00     0.125 C
HETATM    3  S1  UNL     1      44.626  47.893  20.187  1.00  0.00    -0.157 SA
HETATM    4  C6  UNL     1      43.356  47.616  21.457  1.00  0.00     0.090 C
HETATM    5  C7  UNL     1      43.217  48.793  22.398  1.00  0.00     0.102 C
HETATM    6  C14 UNL     1      42.432  49.778  21.574  1.00  0.00     0.205 C
HETATM    7  N1  UNL     1      41.405  48.879  21.064  1.00  0.00    -0.309 N
HETATM    8  C16 UNL     1      40.045  49.165  20.935  1.00  0.00     0.320 C
HETATM    9  O6  UNL     1      39.656  50.345  21.207  1.00  0.00    -0.247 OA
HETATM   10  N2  UNL     1      39.046  48.241  20.525  1.00  0.00    -0.339 N
ATOM     11  H2  UNL     1      39.293  47.278  20.298  1.00  0.00     0.164 HD
HETATM   12  C20 UNL     1      42.075  47.660  20.687  1.00  0.00     0.150 C
ENDROOT
BRANCH   5  13
HETATM   13  S2  UNL     1      44.613  49.271  23.301  1.00  0.00    -0.119 SA
BRANCH  13  14
HETATM   14  C8  UNL     1      45.610  48.153  24.152  1.00  0.00     0.024 A
HETATM   15  C9  UNL     1      45.090  47.548  25.306  1.00  0.00     0.044 A
HETATM   16  C10 UNL     1      45.810  46.653  26.066  1.00  0.00     0.035 A
HETATM   17 CL1  UNL     1      45.129  45.912  27.503  1.00  0.00    -0.084 Cl
HETATM   18  C11 UNL     1      47.090  46.318  25.710  1.00  0.00     0.025 A
HETATM   19  C12 UNL     1      47.604  46.908  24.584  1.00  0.00     0.027 A
HETATM   20  C13 UNL     1      46.890  47.820  23.797  1.00  0.00     0.051 A
HETATM   21 CL2  UNL     1      47.706  48.513  22.411  1.00  0.00    -0.083 Cl
ENDBRANCH  13  14
ENDBRANCH   5  13
BRANCH   6  22
HETATM   22  C15 UNL     1      41.806  50.808  22.464  1.00  0.00     0.198 C
HETATM   23  O4  UNL     1      41.776  52.032  22.100  1.00  0.00    -0.646 OA
HETATM   24  O5  UNL     1      41.267  50.475  23.662  1.00  0.00    -0.646 OA
ENDBRANCH   6  22
BRANCH   1  25
HETATM   25  C3  UNL     1      42.412  46.027  18.955  1.00  0.00     0.296 C
HETATM   26  O2  UNL     1      43.280  45.627  18.165  1.00  0.00    -0.262 OA
BRANCH  25  27
HETATM   27  O1  UNL     1      41.583  45.075  19.534  1.00  0.00    -0.319 OA
BRANCH  27  28
HETATM   28  C2  UNL     1      40.626  44.415  18.766  1.00  0.00     0.174 C
HETATM   29  C1  UNL     1      41.001  43.001  18.414  1.00  0.00     0.034 C
ENDBRANCH  27  28
ENDBRANCH  25  27
ENDBRANCH   1  25
BRANCH   1  30
HETATM   30  O3  UNL     1      41.248  47.995  18.507  1.00  0.00    -0.377 OA
ATOM     31  H3  UNL     1      40.475  47.463  18.656  1.00  0.00     0.211 HD
ENDBRANCH   1  30
BRANCH  10  32
HETATM   32  C17 UNL     1      37.669  48.693  20.435  1.00  0.00     0.078 C
HETATM   33  C18 UNL     1      36.769  47.990  21.433  1.00  0.00     0.032 C
HETATM   34  C19 UNL     1      37.127  48.539  19.026  1.00  0.00     0.032 C
ENDBRANCH  10  32
TORSDOF 8
ENDMDL