MODEL 3
REMARK VINA RESULT: -6.989238606      3.558      8.390
REMARK  8 active torsions:
REMARK  status: ('A' for Active; 'I' for Inactive)
REMARK    1  A    between atoms: C2_2  and  O1_3
REMARK    2  A    between atoms: C2_2  and  C3_5
REMARK    3  A    between atoms: N2_13  and  C10_14
REMARK    4  A    between atoms: C12_16  and  N3_17
REMARK    5  A    between atoms: C19_26  and  O2_27
REMARK    6  A    between atoms: C20_29  and  O3_30
REMARK    7  A    between atoms: C21_32  and  C22_33
REMARK    8  A    between atoms: C23_34  and  C24_35
ROOT
HETATM    1  C3  UNL     1      43.069  48.543  21.528  1.00  0.00     0.257 C
HETATM    2  C4  UNL     1      42.332  47.419  20.863  1.00  0.00     0.049 C
HETATM    3  C5  UNL     1      40.848  47.820  20.952  1.00  0.00     0.017 C
HETATM    4  C6  UNL     1      40.743  49.211  20.381  1.00  0.00     0.039 C
HETATM    5  C7  UNL     1      41.470  50.226  21.264  1.00  0.00     0.279 C
HETATM    6  N1  UNL     1      42.866  49.835  20.966  1.00  0.00     0.098 N
HETATM    7  C8  UNL     1      42.822  49.931  19.540  1.00  0.00     0.298 C
HETATM    8  C9  UNL     1      41.518  49.280  19.112  1.00  0.00     0.119 C
HETATM    9  N2  UNL     1      41.873  47.984  18.581  1.00  0.00    -0.363 N
HETATM   10  C21 UNL     1      42.617  47.109  19.463  1.00  0.00     0.114 C
ENDROOT
BRANCH   9  11
HETATM   11  C10 UNL     1      41.494  47.660  17.247  1.00  0.00     0.070 A
HETATM   12  C11 UNL     1      40.252  47.083  17.014  1.00  0.00     0.063 A
HETATM   13  C12 UNL     1      39.796  46.734  15.752  1.00  0.00     0.053 A
HETATM   14  C18 UNL     1      40.640  46.984  14.703  1.00  0.00     0.073 A
HETATM   15 BR1  UNL     1      40.098  46.529  12.925  1.00  0.00    -0.046 Br
HETATM   16  C19 UNL     1      41.894  47.566  14.926  1.00  0.00     0.121 A
HETATM   17  C20 UNL     1      42.330  47.907  16.184  1.00  0.00     0.127 A
BRANCH  13  18
HETATM   18  N3  UNL     1      38.485  46.143  15.605  1.00  0.00    -0.373 N
HETATM   19  C13 UNL     1      37.282  46.915  15.535  1.00  0.00     0.167 C
HETATM   20  C14 UNL     1      36.300  46.328  14.609  1.00  0.00     0.077 C
HETATM   21  N4  UNL     1      36.224  44.950  14.424  1.00  0.00    -0.394 N
HETATM   22  C15 UNL     1      35.049  44.286  14.881  1.00  0.00     0.148 C
HETATM   23  C16 UNL     1      37.426  44.195  14.513  1.00  0.00     0.141 C
HETATM   24  C17 UNL     1      38.379  44.707  15.553  1.00  0.00     0.143 C
ENDBRANCH  13  18
BRANCH  16  25
HETATM   25  O2  UNL     1      42.750  47.820  13.862  1.00  0.00    -0.357 OA
ATOM     26  H2  UNL     1      42.851  48.703  13.526  1.00  0.00     0.218 HD
ENDBRANCH  16  25
BRANCH  17  27
HETATM   27  O3  UNL     1      43.599  48.491  16.376  1.00  0.00    -0.356 OA
ATOM     28  H3  UNL     1      43.714  49.231  16.960  1.00  0.00     0.218 HD
ENDBRANCH  17  27
ENDBRANCH   9  11
BRANCH  10  29
HETATM   29  C22 UNL     1      42.227  45.669  19.225  1.00  0.00    -0.003 C
HETATM   30  C23 UNL     1      42.873  44.892  18.391  1.00  0.00     0.002 C
BRANCH  30  31
HETATM   31  C24 UNL     1      42.479  43.484  18.171  1.00  0.00     0.249 C
HETATM   32  F1  UNL     1      41.273  43.171  18.739  1.00  0.00    -0.251 F
ENDBRANCH  30  31
ENDBRANCH  10  29
BRANCH   1  33
HETATM   33  C2  UNL     1      44.450  48.233  21.965  1.00  0.00     0.147 C
HETATM   34  C1  UNL     1      45.420  47.713  20.988  1.00  0.00     0.041 C
BRANCH  33  35
HETATM   35  O1  UNL     1      44.362  47.308  23.025  1.00  0.00    -0.394 OA
ATOM     36  H1  UNL     1      43.569  46.798  22.905  1.00  0.00     0.210 HD
ENDBRANCH  33  35
ENDBRANCH   1  33
TORSDOF 8
ENDMDL