MODEL 4
REMARK VINA RESULT: -8.963069519      1.593      1.883
REMARK  7 active torsions:
REMARK  status: ('A' for Active; 'I' for Inactive)
REMARK    1  A    between atoms: C4_6  and  C5_7
REMARK    2  A    between atoms: C17_26  and  C18_27
REMARK    3  A    between atoms: C18_27  and  N4_28
REMARK    4  A    between atoms: C18_27  and  C19_32
REMARK    5  A    between atoms: C19_32  and  S1_33
REMARK    6  A    between atoms: S1_33  and  C20_36
REMARK    7  A    between atoms: C21_37  and  C22_38
ROOT
HETATM    1  C5  UNL     1      43.768  50.932  22.633  1.00  0.00     0.071 C
HETATM    2  C6  UNL     1      43.772  50.285  21.230  1.00  0.00     0.045 C
HETATM    3  N2  UNL     1      44.796  51.960  22.391  1.00  0.00    -0.365 N
ATOM      4  H2  UNL     1      45.740  51.775  22.054  1.00  0.00     0.162 HD
HETATM    5  C7  UNL     1      44.275  53.253  22.697  1.00  0.00     0.080 C
HETATM    6  N3  UNL     1      44.738  54.389  22.292  1.00  0.00    -0.388 N
ATOM      7  H31 UNL     1      44.366  55.314  22.511  1.00  0.00     0.157 HD
ATOM      8  H32 UNL     1      45.530  54.597  21.684  1.00  0.00     0.157 HD
HETATM    9  C8  UNL     1      43.151  52.959  23.560  1.00  0.00     0.025 C
HETATM   10  C9  UNL     1      42.228  54.016  23.949  1.00  0.00     0.024 C
HETATM   11  C10 UNL     1      43.818  52.560  24.910  1.00  0.00     0.024 C
HETATM   12  C11 UNL     1      42.552  51.627  23.008  1.00  0.00     0.056 C
HETATM   13  C12 UNL     1      41.634  51.302  24.119  1.00  0.00     0.185 C
HETATM   14  O1  UNL     1      40.580  51.706  23.298  1.00  0.00    -0.378 OA
HETATM   15  C13 UNL     1      41.375  51.748  22.151  1.00  0.00     0.084 C
HETATM   16  C14 UNL     1      41.355  52.968  21.275  1.00  0.00     0.066 C
HETATM   17  C15 UNL     1      39.959  53.519  21.013  1.00  0.00     0.170 C
HETATM   18  O2  UNL     1      39.398  52.568  20.176  1.00  0.00    -0.390 OA
HETATM   19  C16 UNL     1      39.323  51.407  20.974  1.00  0.00     0.177 C
HETATM   20  C17 UNL     1      40.672  50.793  21.285  1.00  0.00     0.076 C
ENDROOT
BRANCH   1  21
HETATM   21  C4  UNL     1      44.381  49.880  23.445  1.00  0.00     0.001 A
HETATM   22  C3  UNL     1      45.746  49.695  23.441  1.00  0.00     0.100 A
HETATM   23  N1  UNL     1      46.379  48.737  24.147  1.00  0.00    -0.355 N
HETATM   24  C2  UNL     1      45.642  47.903  24.913  1.00  0.00     0.076 A
ATOM     25  H1  UNL     1      47.395  48.643  24.105  1.00  0.00     0.166 HD
HETATM   26  C1  UNL     1      46.365  46.851  25.688  1.00  0.00     0.089 C
HETATM   27  N5  UNL     1      44.307  48.068  24.933  1.00  0.00    -0.355 N
HETATM   28  C24 UNL     1      43.660  49.016  24.234  1.00  0.00     0.100 A
ATOM     29  H5  UNL     1      43.754  47.437  25.512  1.00  0.00     0.166 HD
ENDBRANCH   1  21
BRANCH  20  30
HETATM   30  C18 UNL     1      40.365  49.409  21.653  1.00  0.00     0.206 C
BRANCH  30  31
HETATM   31  N4  UNL     1      39.156  49.328  22.516  1.00  0.00    -0.074 N
ATOM     32  H43 UNL     1      39.377  49.541  23.488  1.00  0.00     0.274 HD
ATOM     33  H42 UNL     1      38.513  50.097  22.329  1.00  0.00     0.274 HD
ATOM     34  H41 UNL     1      38.692  48.424  22.427  1.00  0.00     0.274 HD
ENDBRANCH  30  31
BRANCH  30  35
HETATM   35  C19 UNL     1      39.854  48.642  20.398  1.00  0.00     0.178 C
BRANCH  35  36
HETATM   36  S1  UNL     1      41.056  47.440  19.895  1.00  0.00     0.167 S
HETATM   37  O3  UNL     1      42.051  47.229  21.023  1.00  0.00    -0.223 OA
HETATM   38  O4  UNL     1      41.928  48.057  18.774  1.00  0.00    -0.223 OA
BRANCH  36  39
HETATM   39  C20 UNL     1      40.484  45.923  19.334  1.00  0.00     0.111 C
HETATM   40  C21 UNL     1      41.197  44.676  19.210  1.00  0.00     0.062 C
BRANCH  40  41
HETATM   41  C22 UNL     1      42.320  44.437  18.284  1.00  0.00     0.259 C
HETATM   42  C23 UNL     1      41.850  44.769  16.828  1.00  0.00     0.095 C
HETATM   43  F1  UNL     1      42.688  43.120  18.199  1.00  0.00    -0.202 F
HETATM   44  F2  UNL     1      43.461  45.186  18.567  1.00  0.00    -0.202 F
ENDBRANCH  40  41
ENDBRANCH  36  39
ENDBRANCH  35  36
ENDBRANCH  30  35
ENDBRANCH  20  30
TORSDOF 7
ENDMDL