MODEL 1
REMARK VINA RESULT: -5.956169808      0.000      0.000
REMARK  1 active torsions:
REMARK  status: ('A' for Active; 'I' for Inactive)
REMARK    1  A    between atoms: N1_1  and  C1_5
ROOT
HETATM    1  C1  UNL     1      23.953  38.518  43.286  1.00  0.00     0.183 C
HETATM    2  C2  UNL     1      24.803  39.734  43.144  1.00  0.00     0.033 C
HETATM    3  C3  UNL     1      26.012  39.579  42.308  1.00  0.00     0.002 C
HETATM    4  C4  UNL     1      26.232  38.216  41.739  1.00  0.00     0.000 C
HETATM    5  C5  UNL     1      25.269  37.813  40.681  1.00  0.00     0.000 C
HETATM    6  C6  UNL     1      23.967  37.270  41.202  1.00  0.00     0.002 C
HETATM    7  C7  UNL     1      23.209  38.325  41.963  1.00  0.00     0.033 C
ENDROOT
BRANCH   1   8
HETATM    8  N1  UNL     1      22.965  38.692  44.313  1.00  0.00    -0.075 N
ATOM      9  H13 UNL     1      23.099  38.032  45.079  1.00  0.00     0.274 HD
ATOM     10  H12 UNL     1      23.109  39.561  44.829  1.00  0.00     0.274 HD
ATOM     11  H11 UNL     1      22.021  38.635  43.930  1.00  0.00     0.274 HD
ENDBRANCH   1   8
TORSDOF 1
ENDMDL