MODEL 2
REMARK VINA RESULT: -5.451424289      7.217      7.672
REMARK  2 active torsions:
REMARK  status: ('A' for Active; 'I' for Inactive)
REMARK    1  A    between atoms: N1_1  and  N2_4
REMARK    2  A    between atoms: N3_6  and  C1_8
ROOT
HETATM    1  N2  UNL     1      28.209  34.523  47.983  1.00  0.00    -0.253 N
ATOM      2  H2  UNL     1      27.299  34.502  47.521  1.00  0.00     0.207 HD
HETATM    3  N3  UNL     1      28.024  35.240  48.982  1.00  0.00    -0.318 N
ATOM      4  H3  UNL     1      28.583  35.112  49.826  1.00  0.00     0.182 HD
ENDROOT
BRANCH   3   5
HETATM    5  C1  UNL     1      27.027  36.234  48.926  1.00  0.00     0.100 C
HETATM    6  C2  UNL     1      25.787  35.737  48.234  1.00  0.00     0.027 C
HETATM    7  C3  UNL     1      24.673  36.733  48.199  1.00  0.00     0.002 C
HETATM    8  C4  UNL     1      25.105  38.142  47.968  1.00  0.00     0.000 C
HETATM    9  C5  UNL     1      26.357  38.533  48.683  1.00  0.00     0.002 C
HETATM   10  C6  UNL     1      27.439  37.523  48.272  1.00  0.00     0.027 C
ENDBRANCH   3   5
BRANCH   1  11
HETATM   11  N1  UNL     1      28.924  33.828  47.269  1.00  0.00    -0.331 N
ATOM     12  H12 UNL     1      29.529  34.525  46.835  1.00  0.00     0.178 HD
ATOM     13  H11 UNL     1      29.215  32.924  46.897  1.00  0.00     0.178 HD
ENDBRANCH   1  11
TORSDOF 2
ENDMDL