MODEL 1
REMARK VINA RESULT: -6.643276061      0.000      0.000
REMARK  1 active torsions:
REMARK  status: ('A' for Active; 'I' for Inactive)
REMARK    1  A    between atoms: N1_1  and  C1_5
ROOT
HETATM    1  C1  UNL     1      24.001  38.940  43.028  1.00  0.00     0.187 C
HETATM    2  C2  UNL     1      23.424  37.794  42.299  1.00  0.00     0.033 C
HETATM    3  C3  UNL     1      24.046  37.415  41.021  1.00  0.00     0.007 C
HETATM    4  C4  UNL     1      25.448  37.882  40.809  1.00  0.00    -0.014 C
HETATM    5  C5  UNL     1      26.429  37.269  41.779  1.00  0.00     0.005 C
HETATM    6  C6  UNL     1      26.230  37.982  43.073  1.00  0.00     0.007 C
HETATM    7  C7  UNL     1      25.455  39.219  42.700  1.00  0.00     0.016 C
HETATM    8  C8  UNL     1      25.545  39.361  41.198  1.00  0.00     0.011 C
ENDROOT
BRANCH   1   9
HETATM    9  N1  UNL     1      23.986  38.632  44.465  1.00  0.00    -0.075 N
ATOM     10  H13 UNL     1      23.289  39.174  44.975  1.00  0.00     0.274 HD
ATOM     11  H12 UNL     1      23.612  37.703  44.662  1.00  0.00     0.274 HD
ATOM     12  H11 UNL     1      24.929  38.762  44.832  1.00  0.00     0.274 HD
ENDBRANCH   1   9
TORSDOF 1
ENDMDL