MODEL 4
REMARK VINA RESULT: -4.994751848      1.756      3.554
REMARK  2 active torsions:
REMARK  status: ('A' for Active; 'I' for Inactive)
REMARK    1  A    between atoms: N1_2  and  C2_4
REMARK    2  A    between atoms: C7_9  and  N2_10
ROOT
HETATM    1  C2  UNL     1      24.523  38.572  41.775  1.00  0.00     0.110 C
HETATM    2  C3  UNL     1      23.358  37.635  41.852  1.00  0.00     0.027 C
HETATM    3  C4  UNL     1      22.227  38.089  42.678  1.00  0.00     0.002 C
HETATM    4  C5  UNL     1      22.495  39.271  43.558  1.00  0.00     0.002 C
HETATM    5  C6  UNL     1      23.891  39.224  44.119  1.00  0.00     0.035 C
HETATM    6  C7  UNL     1      24.954  39.147  43.079  1.00  0.00     0.206 C
ENDROOT
BRANCH   6   7
HETATM    7  N2  UNL     1      25.463  40.502  42.824  1.00  0.00    -0.073 N
ATOM      8  H23 UNL     1      26.166  40.529  42.086  1.00  0.00     0.274 HD
ATOM      9  H22 UNL     1      24.774  41.106  42.376  1.00  0.00     0.274 HD
ATOM     10  H21 UNL     1      25.803  40.877  43.710  1.00  0.00     0.274 HD
ENDBRANCH   6   7
BRANCH   1  11
HETATM   11  N1  UNL     1      25.651  37.958  41.176  1.00  0.00    -0.401 N
HETATM   12  C1  UNL     1      26.532  37.263  41.706  1.00  0.00     0.112 C
ATOM     13  H1  UNL     1      25.752  38.108  40.173  1.00  0.00     0.158 HD
ENDBRANCH   1  11
TORSDOF 2
ENDMDL