MODEL 2
REMARK VINA RESULT: -4.781752760      2.289      2.885
REMARK  3 active torsions:
REMARK  status: ('A' for Active; 'I' for Inactive)
REMARK    1  A    between atoms: N1_1  and  N2_4
REMARK    2  A    between atoms: N3_6  and  C1_8
REMARK    3  A    between atoms: C5_12  and  N4_13
ROOT
HETATM    1  C1  UNL     1      24.618  38.091  43.085  1.00  0.00     0.131 C
HETATM    2  C2  UNL     1      26.141  37.943  43.034  1.00  0.00     0.029 C
HETATM    3  C3  UNL     1      26.296  37.342  41.638  1.00  0.00     0.004 C
HETATM    4  C4  UNL     1      25.502  38.388  40.844  1.00  0.00     0.035 C
HETATM    5  C5  UNL     1      24.308  38.653  41.737  1.00  0.00     0.207 C
ENDROOT
BRANCH   1   6
HETATM    6  N3  UNL     1      24.178  38.883  44.182  1.00  0.00    -0.316 N
HETATM    7  N2  UNL     1      24.081  38.410  45.316  1.00  0.00    -0.253 N
ATOM      8  H2  UNL     1      23.507  37.586  45.144  1.00  0.00     0.207 HD
ATOM      9  H3  UNL     1      23.939  39.862  44.027  1.00  0.00     0.182 HD
BRANCH   7  10
HETATM   10  N1  UNL     1      24.262  38.336  46.538  1.00  0.00    -0.331 N
ATOM     11  H12 UNL     1      24.077  39.309  46.781  1.00  0.00     0.178 HD
ATOM     12  H11 UNL     1      24.481  37.891  47.429  1.00  0.00     0.178 HD
ENDBRANCH   7  10
ENDBRANCH   1   6
BRANCH   5  13
HETATM   13  N4  UNL     1      23.130  37.995  41.175  1.00  0.00    -0.073 N
ATOM     14  H43 UNL     1      23.004  38.217  40.188  1.00  0.00     0.274 HD
ATOM     15  H42 UNL     1      23.261  36.987  41.087  1.00  0.00     0.274 HD
ATOM     16  H41 UNL     1      22.302  38.225  41.726  1.00  0.00     0.274 HD
ENDBRANCH   5  13
TORSDOF 3
ENDMDL