MODEL 4
REMARK VINA RESULT: -5.300655882      1.772      1.901
REMARK  1 active torsions:
REMARK  status: ('A' for Active; 'I' for Inactive)
REMARK    1  A    between atoms: C1_4  and  C2_5
ROOT
HETATM    1  C2  UNL     1      24.237  38.410  43.211  1.00  0.00     0.023 C
HETATM    2  C3  UNL     1      25.046  39.578  42.692  1.00  0.00     0.010 C
HETATM    3  C4  UNL     1      25.820  39.194  41.476  1.00  0.00     0.001 C
HETATM    4  C5  UNL     1      25.526  37.791  41.003  1.00  0.00     0.000 C
HETATM    5  C6  UNL     1      24.042  37.535  40.881  1.00  0.00     0.001 C
HETATM    6  C7  UNL     1      23.325  37.836  42.158  1.00  0.00     0.010 C
ENDROOT
BRANCH   1   7
HETATM    7  C1  UNL     1      23.488  38.750  44.425  1.00  0.00     0.057 C
HETATM    8  N1  UNL     1      23.889  38.501  45.617  1.00  0.00    -0.411 N
ATOM      9  H12 UNL     1      24.791  38.035  45.710  1.00  0.00     0.155 HD
ATOM     10  H11 UNL     1      23.368  38.737  46.462  1.00  0.00     0.155 HD
ENDBRANCH   1   7
TORSDOF 1
ENDMDL