MODEL 2
REMARK VINA RESULT: -5.925563282      1.099      3.203
REMARK  2 active torsions:
REMARK  status: ('A' for Active; 'I' for Inactive)
REMARK    1  A    between atoms: C2_2  and  C3_3
REMARK    2  A    between atoms: C8_8  and  N1_9
ROOT
HETATM    1  C3  UNL     1      24.589  37.666  42.615  1.00  0.00     0.038 C
HETATM    2  C4  UNL     1      24.775  38.697  43.710  1.00  0.00     0.010 C
HETATM    3  C5  UNL     1      23.493  38.932  44.446  1.00  0.00     0.001 C
HETATM    4  C6  UNL     1      22.315  39.193  43.569  1.00  0.00     0.002 C
HETATM    5  C7  UNL     1      22.205  38.130  42.483  1.00  0.00     0.033 C
HETATM    6  C8  UNL     1      23.512  38.224  41.686  1.00  0.00     0.191 C
ENDROOT
BRANCH   6   7
HETATM    7  N1  UNL     1      23.442  37.529  40.441  1.00  0.00    -0.074 N
ATOM      8  H13 UNL     1      24.285  37.686  39.888  1.00  0.00     0.274 HD
ATOM      9  H12 UNL     1      23.520  36.522  40.580  1.00  0.00     0.274 HD
ATOM     10  H11 UNL     1      22.605  37.761  39.905  1.00  0.00     0.274 HD
ENDBRANCH   6   7
BRANCH   1  11
HETATM   11  C2  UNL     1      25.844  37.435  41.892  1.00  0.00    -0.030 C
HETATM   12  C1  UNL     1      27.026  37.414  42.479  1.00  0.00     0.007 C
ENDBRANCH   1  11
TORSDOF 2
ENDMDL