MODEL 2
REMARK VINA RESULT: -5.757100740      1.938      2.630
REMARK  2 active torsions:
REMARK  status: ('A' for Active; 'I' for Inactive)
REMARK    1  A    between atoms: C1_2  and  C2_3
REMARK    2  A    between atoms: C2_3  and  C3_4
ROOT
HETATM    1  C3  UNL     1      24.263  38.729  42.755  1.00  0.00     0.011 C
HETATM    2  C4  UNL     1      25.511  37.911  43.019  1.00  0.00     0.009 C
HETATM    3  C5  UNL     1      26.338  37.994  41.729  1.00  0.00     0.001 C
HETATM    4  C6  UNL     1      25.390  37.965  40.563  1.00  0.00     0.000 C
HETATM    5  C7  UNL     1      24.116  37.195  40.872  1.00  0.00     0.001 C
HETATM    6  C8  UNL     1      23.304  37.942  41.904  1.00  0.00     0.009 C
ENDROOT
BRANCH   1   7
HETATM    7  C2  UNL     1      23.669  39.250  43.991  1.00  0.00     0.019 C
BRANCH   7   8
HETATM    8  C1  UNL     1      23.798  38.645  45.149  1.00  0.00     0.255 C
HETATM    9  O1  UNL     1      24.185  38.272  46.285  1.00  0.00    -0.303 OA
ENDBRANCH   7   8
ENDBRANCH   1   7
TORSDOF 2
ENDMDL