MODEL 1
REMARK VINA RESULT: -6.025342221      0.000      0.000
REMARK  2 active torsions:
REMARK  status: ('A' for Active; 'I' for Inactive)
REMARK    1  A    between atoms: C2_2  and  C3_3
REMARK    2  A    between atoms: C3_3  and  N1_4
ROOT
HETATM    1  C3  UNL     1      25.148  38.730  42.473  1.00  0.00     0.141 C
HETATM    2  C4  UNL     1      24.058  38.416  41.484  1.00  0.00     0.043 C
HETATM    3  C5  UNL     1      22.752  38.056  42.132  1.00  0.00     0.003 C
HETATM    4  C6  UNL     1      22.382  39.011  43.239  1.00  0.00     0.000 C
HETATM    5  C7  UNL     1      23.502  39.207  44.217  1.00  0.00     0.003 C
HETATM    6  C8  UNL     1      24.722  38.392  43.900  1.00  0.00     0.043 C
ENDROOT
BRANCH   1   7
HETATM    7  C2  UNL     1      26.412  38.050  42.131  1.00  0.00     0.001 C
HETATM    8  C1  UNL     1      27.154  37.537  43.088  1.00  0.00     0.009 C
ENDBRANCH   1   7
BRANCH   1   9
HETATM    9  N1  UNL     1      25.442  40.172  42.495  1.00  0.00    -0.067 N
ATOM     10  H13 UNL     1      24.791  40.709  43.067  1.00  0.00     0.275 HD
ATOM     11  H12 UNL     1      26.288  40.404  43.016  1.00  0.00     0.275 HD
ATOM     12  H11 UNL     1      25.472  40.475  41.522  1.00  0.00     0.275 HD
ENDBRANCH   1   9
TORSDOF 2
ENDMDL