MODEL 2
REMARK VINA RESULT: -5.722800518      0.900      1.196
REMARK  1 active torsions:
REMARK  status: ('A' for Active; 'I' for Inactive)
REMARK    1  A    between atoms: C2_2  and  C3_3
ROOT
HETATM    1  C3  UNL     1      25.042  38.936  42.422  1.00  0.00     0.046 C
HETATM    2  C4  UNL     1      24.385  39.252  43.696  1.00  0.00     0.019 C
HETATM    3  C5  UNL     1      23.024  38.709  43.918  1.00  0.00     0.045 C
HETATM    4  C6  UNL     1      22.243  38.409  42.683  1.00  0.00     0.060 C
HETATM    5  N1  UNL     1      23.018  38.004  41.590  1.00  0.00    -0.382 N
ATOM      6  H1  UNL     1      22.779  37.164  41.063  1.00  0.00     0.164 HD
HETATM    7  C7  UNL     1      24.132  38.781  41.235  1.00  0.00     0.068 C
ENDROOT
BRANCH   1   8
HETATM    8  C2  UNL     1      25.823  37.659  42.541  1.00  0.00    -0.027 C
HETATM    9  C1  UNL     1      27.058  37.641  43.012  1.00  0.00     0.007 C
ENDBRANCH   1   8
TORSDOF 1
ENDMDL