MODEL 1
REMARK VINA RESULT: -2.863795746      0.000      0.000
REMARK  1 active torsions:
REMARK  status: ('A' for Active; 'I' for Inactive)
REMARK    1  A    between atoms: C2_7  and  N3_8
ROOT
HETATM    1  N1  UNL     1      54.584  17.965  18.513  1.00  0.00    -0.386 N
ATOM      2  H11 UNL     1      55.307  18.216  17.837  1.00  0.00     0.157 HD
ATOM      3  H12 UNL     1      55.577  17.825  18.699  1.00  0.00     0.157 HD
HETATM    4  C1  UNL     1      53.310  17.956  18.705  1.00  0.00     0.116 A
HETATM    5  N2  UNL     1      52.252  17.589  19.696  1.00  0.00    -0.349 N
ATOM      6  H2  UNL     1      51.989  17.209  20.605  1.00  0.00     0.163 HD
HETATM    7  C2  UNL     1      51.873  18.159  18.436  1.00  0.00     0.251 A
ENDROOT
BRANCH   7   8
HETATM    8  N3  UNL     1      51.183  17.246  17.547  1.00  0.00    -0.361 N
HETATM    9  C3  UNL     1      50.345  17.710  16.710  1.00  0.00     0.187 C
HETATM   10  N4  UNL     1      50.084  19.089  16.637  1.00  0.00    -0.097 NA
ATOM     11  H3  UNL     1      51.367  16.243  17.592  1.00  0.00     0.162 HD
ENDBRANCH   7   8
TORSDOF 1
ENDMDL