MODEL 4
REMARK VINA RESULT: -3.715260367      2.580      3.722
REMARK  3 active torsions:
REMARK  status: ('A' for Active; 'I' for Inactive)
REMARK    1  A    between atoms: N2_4  and  N3_6
REMARK    2  A    between atoms: N3_6  and  C1_8
REMARK    3  A    between atoms: N4_10  and  N5_11
ROOT
HETATM    1  N3  UNL     1      59.673  22.884  25.075  1.00  0.00    -0.301 N
ATOM      2  H3  UNL     1      59.911  21.903  24.928  1.00  0.00     0.183 HD
ENDROOT
BRANCH   1   3
HETATM    3  N2  UNL     1      60.465  23.648  25.918  1.00  0.00    -0.252 N
HETATM    4  N1  UNL     1      60.054  23.850  27.093  1.00  0.00    -0.331 N
ATOM      5  H12 UNL     1      59.164  23.456  27.398  1.00  0.00     0.178 HD
ATOM      6  H11 UNL     1      60.636  24.413  27.713  1.00  0.00     0.178 HD
ATOM      7  H2  UNL     1      61.352  24.036  25.598  1.00  0.00     0.207 HD
ENDBRANCH   1   3
BRANCH   1   8
HETATM    8  C1  UNL     1      58.540  23.425  24.410  1.00  0.00     0.208 A
HETATM    9  C2  UNL     1      58.027  22.582  23.248  1.00  0.00     0.159 A
HETATM   10  N4  UNL     1      58.607  23.925  23.072  1.00  0.00    -0.209 NA
BRANCH  10  11
HETATM   11  N5  UNL     1      57.671  24.860  22.652  1.00  0.00    -0.361 NA
ATOM     12  H52 UNL     1      57.906  25.272  21.749  1.00  0.00     0.171 HD
ATOM     13  H51 UNL     1      57.056  24.632  21.872  1.00  0.00     0.171 HD
ENDBRANCH  10  11
ENDBRANCH   1   8
TORSDOF 3
ENDMDL