MODEL 3
REMARK VINA RESULT: -3.536328693      1.625      1.665
REMARK  3 active torsions:
REMARK  status: ('A' for Active; 'I' for Inactive)
REMARK    1  A    between atoms: N1_1  and  N2_4
REMARK    2  A    between atoms: N2_4  and  C1_6
REMARK    3  A    between atoms: N3_7  and  N4_9
ROOT
HETATM    1  C1  UNL     1      53.890  17.922  18.501  1.00  0.00     0.213 C
HETATM    2  N3  UNL     1      52.986  17.911  19.396  1.00  0.00    -0.294 N
ATOM      3  H3  UNL     1      53.208  18.222  20.341  1.00  0.00     0.187 HD
ENDROOT
BRANCH   2   4
HETATM    4  N4  UNL     1      51.707  17.481  19.100  1.00  0.00    -0.287 N
HETATM    5  C2  UNL     1      51.169  17.525  17.937  1.00  0.00     0.110 A
HETATM    6  C3  UNL     1      50.140  17.337  16.966  1.00  0.00     0.198 A
HETATM    7  N5  UNL     1      51.403  17.926  16.513  1.00  0.00    -0.370 N
ATOM      8  H5  UNL     1      51.995  18.315  15.779  1.00  0.00     0.161 HD
ATOM      9  H4  UNL     1      51.149  17.099  19.864  1.00  0.00     0.188 HD
ENDBRANCH   2   4
BRANCH   1  10
HETATM   10  N2  UNL     1      55.192  18.376  18.864  1.00  0.00    -0.301 N
ATOM     11  H2  UNL     1      55.443  18.406  19.852  1.00  0.00     0.187 HD
BRANCH  10  12
HETATM   12  N1  UNL     1      56.141  18.783  17.917  1.00  0.00    -0.344 N
ATOM     13  H12 UNL     1      56.574  18.062  17.340  1.00  0.00     0.176 HD
ATOM     14  H11 UNL     1      56.408  19.760  17.790  1.00  0.00     0.176 HD
ENDBRANCH  10  12
ENDBRANCH   1  10
TORSDOF 3
ENDMDL