MODEL 5
REMARK VINA RESULT: -2.323510929      3.623      4.641
REMARK  1 active torsions:
REMARK  status: ('A' for Active; 'I' for Inactive)
REMARK    1  A    between atoms: N1_2  and  C2_5
ROOT
HETATM    1  C2  UNL     1      51.421  17.952  17.059  1.00  0.00     0.336 A
HETATM    2  C3  UNL     1      50.924  17.254  15.870  1.00  0.00     0.127 A
HETATM    3  N2  UNL     1      50.085  18.189  15.513  1.00  0.00    -0.313 N
ATOM      4  H2  UNL     1      49.418  18.319  14.752  1.00  0.00     0.181 HD
HETATM    5  N3  UNL     1      50.492  18.931  16.616  1.00  0.00    -0.103 NA
ENDROOT
BRANCH   1   6
HETATM    6  N1  UNL     1      51.182  17.346  18.341  1.00  0.00    -0.055 N
HETATM    7  C1  UNL     1      52.265  17.591  19.279  1.00  0.00     0.269 C
ATOM      8  H12 UNL     1      50.995  16.348  18.247  1.00  0.00     0.279 HD
ATOM      9  H11 UNL     1      50.286  17.643  18.727  1.00  0.00     0.279 HD
ENDBRANCH   1   6
TORSDOF 1
ENDMDL