MODEL 2
REMARK VINA RESULT: -3.051406846      1.044      1.111
REMARK  2 active torsions:
REMARK  status: ('A' for Active; 'I' for Inactive)
REMARK    1  A    between atoms: N1_1  and  N2_4
REMARK    2  A    between atoms: N3_6  and  C1_8
ROOT
HETATM    1  C1  UNL     1      51.788  17.979  18.140  1.00  0.00     0.217 C
HETATM    2  C2  UNL     1      51.196  17.696  16.771  1.00  0.00     0.168 C
HETATM    3  N4  UNL     1      50.084  16.852  17.064  1.00  0.00    -0.383 N
ATOM      4  H4  UNL     1      49.359  16.608  16.388  1.00  0.00     0.160 HD
HETATM    5  C3  UNL     1      50.101  16.438  18.273  1.00  0.00     0.173 C
HETATM    6  N5  UNL     1      51.226  16.942  18.973  1.00  0.00    -0.363 N
ATOM      7  H5  UNL     1      51.570  16.634  19.882  1.00  0.00     0.162 HD
ENDROOT
BRANCH   1   8
HETATM    8  N3  UNL     1      53.209  17.859  18.110  1.00  0.00    -0.298 N
HETATM    9  N2  UNL     1      54.016  18.640  18.662  1.00  0.00    -0.252 N
ATOM     10  H2  UNL     1      53.702  19.453  19.193  1.00  0.00     0.207 HD
ATOM     11  H3  UNL     1      53.601  17.069  17.597  1.00  0.00     0.184 HD
BRANCH   9  12
HETATM   12  N1  UNL     1      55.389  18.335  18.507  1.00  0.00    -0.331 N
ATOM     13  H12 UNL     1      55.704  17.687  17.784  1.00  0.00     0.178 HD
ATOM     14  H11 UNL     1      56.029  18.795  19.154  1.00  0.00     0.178 HD
ENDBRANCH   9  12
ENDBRANCH   1   8
TORSDOF 2
ENDMDL