MODEL 3
REMARK VINA RESULT: -2.872199356      8.296     10.036
REMARK  3 active torsions:
REMARK  status: ('A' for Active; 'I' for Inactive)
REMARK    1  A    between atoms: C1_4  and  N2_5
REMARK    2  A    between atoms: N2_5  and  C2_7
REMARK    3  A    between atoms: C3_11  and  N4_12
ROOT
HETATM    1  C2  UNL     1      58.912  22.741  24.032  1.00  0.00     0.346 A
HETATM    2  N3  UNL     1      57.636  22.043  23.854  1.00  0.00    -0.018 N
ATOM      3  H31 UNL     1      56.854  21.763  24.446  1.00  0.00     0.282 HD
ATOM      4  H32 UNL     1      57.333  21.089  23.657  1.00  0.00     0.282 HD
HETATM    5  C3  UNL     1      58.022  23.257  23.051  1.00  0.00     0.432 A
ENDROOT
BRANCH   1   6
HETATM    6  N2  UNL     1      59.117  23.260  25.347  1.00  0.00    -0.356 N
ATOM      7  H2  UNL     1      58.330  23.671  25.851  1.00  0.00     0.162 HD
BRANCH   6   8
HETATM    8  C1  UNL     1      60.392  23.213  25.965  1.00  0.00     0.170 C
HETATM    9  N1  UNL     1      60.711  23.841  27.042  1.00  0.00    -0.395 N
ATOM     10  H12 UNL     1      59.981  24.410  27.471  1.00  0.00     0.156 HD
ATOM     11  H11 UNL     1      61.628  23.807  27.486  1.00  0.00     0.156 HD
ENDBRANCH   6   8
ENDBRANCH   1   6
BRANCH   5  12
HETATM   12  N4  UNL     1      57.131  24.373  23.215  1.00  0.00    -0.046 N
ATOM     13  H43 UNL     1      57.721  25.201  23.301  1.00  0.00     0.276 HD
ATOM     14  H42 UNL     1      56.672  24.508  22.313  1.00  0.00     0.276 HD
ATOM     15  H41 UNL     1      56.402  24.465  23.923  1.00  0.00     0.276 HD
ENDBRANCH   5  12
TORSDOF 3
ENDMDL