MODEL 1
REMARK VINA RESULT: -2.841815916      0.000      0.000
REMARK  2 active torsions:
REMARK  status: ('A' for Active; 'I' for Inactive)
REMARK    1  A    between atoms: N2_3  and  C2_5
REMARK    2  A    between atoms: C3_9  and  N4_10
ROOT
HETATM    1  C2  UNL     1      53.453  17.725  18.708  1.00  0.00     0.345 A
HETATM    2  N3  UNL     1      54.816  17.832  18.193  1.00  0.00    -0.018 N
ATOM      3  H31 UNL     1      55.261  18.152  17.334  1.00  0.00     0.282 HD
ATOM      4  H32 UNL     1      55.543  17.189  17.879  1.00  0.00     0.282 HD
HETATM    5  C3  UNL     1      54.382  18.447  19.503  1.00  0.00     0.432 A
ENDROOT
BRANCH   1   6
HETATM    6  N2  UNL     1      52.473  18.328  17.826  1.00  0.00    -0.357 N
HETATM    7  C1  UNL     1      51.403  17.644  17.569  1.00  0.00     0.186 C
HETATM    8  N1  UNL     1      50.370  18.114  16.727  1.00  0.00    -0.097 NA
ATOM      9  H2  UNL     1      52.620  19.254  17.424  1.00  0.00     0.162 HD
ENDBRANCH   1   6
BRANCH   5  10
HETATM   10  N4  UNL     1      54.975  17.774  20.654  1.00  0.00    -0.046 N
ATOM     11  H43 UNL     1      54.284  17.721  21.402  1.00  0.00     0.276 HD
ATOM     12  H42 UNL     1      55.099  16.785  20.433  1.00  0.00     0.276 HD
ATOM     13  H41 UNL     1      55.848  18.143  21.031  1.00  0.00     0.276 HD
ENDBRANCH   5  10
TORSDOF 2
ENDMDL