MODEL 2
REMARK VINA RESULT: -3.610143698      0.855      1.144
REMARK  2 active torsions:
REMARK  status: ('A' for Active; 'I' for Inactive)
REMARK    1  A    between atoms: C1_4  and  N2_5
REMARK    2  A    between atoms: N2_5  and  C2_7
ROOT
HETATM    1  N2  UNL     1      53.726  17.739  19.926  1.00  0.00    -0.322 N
ATOM      2  H2  UNL     1      53.980  17.324  20.822  1.00  0.00     0.169 HD
ENDROOT
BRANCH   1   3
HETATM    3  C1  UNL     1      54.680  18.521  19.208  1.00  0.00     0.176 C
HETATM    4  N1  UNL     1      55.133  18.026  18.106  1.00  0.00    -0.395 N
ATOM      5  H12 UNL     1      54.813  17.115  17.777  1.00  0.00     0.156 HD
ATOM      6  H11 UNL     1      55.814  18.585  17.592  1.00  0.00     0.156 HD
ENDBRANCH   1   3
BRANCH   1   7
HETATM    7  C2  UNL     1      52.453  17.544  19.406  1.00  0.00     0.214 A
HETATM    8  N3  UNL     1      51.232  17.006  19.973  1.00  0.00    -0.267 N
HETATM    9  N4  UNL     1      51.273  17.452  18.654  1.00  0.00    -0.267 N
ATOM     10  H3  UNL     1      50.722  16.601  20.757  1.00  0.00     0.190 HD
ATOM     11  H4  UNL     1      50.789  17.604  17.769  1.00  0.00     0.190 HD
ENDBRANCH   1   7
TORSDOF 2
ENDMDL