MODEL 2
REMARK VINA RESULT: -2.673499475      1.152      3.504
REMARK  1 active torsions:
REMARK  status: ('A' for Active; 'I' for Inactive)
REMARK    1  A    between atoms: N2_3  and  C2_5
ROOT
HETATM    1  N1  UNL     1      59.813  20.975  24.163  1.00  0.00    -0.097 NA
HETATM    2  C1  UNL     1      58.815  21.674  23.430  1.00  0.00     0.187 C
HETATM    3  N2  UNL     1      58.254  22.662  23.987  1.00  0.00    -0.355 N
ATOM      4  H2  UNL     1      58.527  22.928  24.933  1.00  0.00     0.162 HD
ENDROOT
BRANCH   3   5
HETATM    5  C2  UNL     1      57.239  23.413  23.304  1.00  0.00     0.304 A
HETATM    6  N3  UNL     1      57.652  24.726  22.878  1.00  0.00    -0.101 NA
HETATM    7  N4  UNL     1      56.760  24.631  23.951  1.00  0.00    -0.101 NA
ENDBRANCH   3   5
TORSDOF 1
ENDMDL