MODEL 4
REMARK VINA RESULT: -2.247330194      0.945      1.555
REMARK  2 active torsions:
REMARK  status: ('A' for Active; 'I' for Inactive)
REMARK    1  A    between atoms: N1_1  and  N2_4
REMARK    2  A    between atoms: N2_4  and  N3_6
ROOT
HETATM    1  N3  UNL     1      52.550  17.566  18.376  1.00  0.00    -0.190 NA
HETATM    2  C1  UNL     1      51.796  17.279  19.574  1.00  0.00     0.144 C
HETATM    3  C2  UNL     1      50.621  16.483  18.986  1.00  0.00     0.250 C
HETATM    4  N4  UNL     1      50.306  17.291  17.829  1.00  0.00    -0.061 N
ATOM      5  H41 UNL     1      49.574  17.981  18.004  1.00  0.00     0.278 HD
ATOM      6  H42 UNL     1      49.819  16.775  17.095  1.00  0.00     0.278 HD
HETATM    7  C3  UNL     1      51.562  17.883  17.383  1.00  0.00     0.347 C
ENDROOT
BRANCH   1   8
HETATM    8  N2  UNL     1      53.542  18.491  18.531  1.00  0.00    -0.267 N
ATOM      9  H2  UNL     1      53.341  19.469  18.736  1.00  0.00     0.201 HD
BRANCH   8  10
HETATM   10  N1  UNL     1      54.832  18.023  18.393  1.00  0.00    -0.335 N
ATOM     11  H12 UNL     1      55.390  18.253  17.571  1.00  0.00     0.177 HD
ATOM     12  H11 UNL     1      55.182  17.444  19.156  1.00  0.00     0.177 HD
ENDBRANCH   8  10
ENDBRANCH   1   8
TORSDOF 2
ENDMDL