MODEL 3
REMARK VINA RESULT: -6.483940125      4.812      6.440
REMARK  11 active torsions:
REMARK  status: ('A' for Active; 'I' for Inactive)
REMARK       I    between atoms: C2_2  and  N1_4
REMARK    1  A    between atoms: N1_4  and  C3_6
REMARK    2  A    between atoms: N3_10  and  N4_12
REMARK    3  A    between atoms: C5_14  and  N5_15
REMARK    4  A    between atoms: C5_14  and  C6_20
REMARK    5  A    between atoms: N5_15  and  N6_17
REMARK    6  A    between atoms: C7_23  and  N8_24
REMARK    7  A    between atoms: C10_29  and  N10_30
REMARK    8  A    between atoms: C13_42  and  C14_43
REMARK    9  A    between atoms: C14_43  and  O4_44
REMARK   10  A    between atoms: C14_43  and  C15_46
REMARK   11  A    between atoms: C15_46  and  O5_47
ROOT
HETATM    1  N4  UNL     1      21.470  62.745 -16.988  1.00  0.00    -0.278 N
ATOM      2  H4  UNL     1      21.572  63.701 -16.648  1.00  0.00     0.189 HD
HETATM    3  C5  UNL     1      22.485  61.984 -16.957  1.00  0.00     0.180 C
ENDROOT
BRANCH   3   4
HETATM    4  N5  UNL     1      22.393  60.656 -17.417  1.00  0.00    -0.288 N
ATOM      5  H5  UNL     1      22.710  60.416 -18.356  1.00  0.00     0.188 HD
BRANCH   4   6
HETATM    6  N6  UNL     1      21.871  59.679 -16.590  1.00  0.00    -0.343 N
ATOM      7  H62 UNL     1      22.502  59.006 -16.156  1.00  0.00     0.176 HD
ATOM      8  H61 UNL     1      20.865  59.641 -16.424  1.00  0.00     0.176 HD
ENDBRANCH   4   6
ENDBRANCH   3   4
BRANCH   3   9
HETATM    9  C6  UNL     1      23.772  62.473 -16.442  1.00  0.00     0.172 A
HETATM   10  N7  UNL     1      24.691  61.624 -15.950  1.00  0.00    -0.172 N
HETATM   11  C7  UNL     1      25.857  62.089 -15.486  1.00  0.00     0.691 A
ATOM     12  H7  UNL     1      24.498  60.623 -15.929  1.00  0.00     0.186 HD
HETATM   13  N11 UNL     1      26.119  63.407 -15.511  1.00  0.00    -0.141 N
HETATM   14  C12 UNL     1      25.223  64.286 -15.997  1.00  0.00     0.340 A
ATOM     15  H11 UNL     1      27.012  63.747 -15.155  1.00  0.00     0.189 HD
HETATM   16  O2  UNL     1      25.502  65.510 -16.003  1.00  0.00    -0.246 OA
HETATM   17  N12 UNL     1      24.065  63.778 -16.451  1.00  0.00    -0.290 N
ATOM     18  H12 UNL     1      23.370  64.425 -16.825  1.00  0.00     0.172 HD
BRANCH  11  19
HETATM   19  N8  UNL     1      26.863  61.234 -14.954  1.00  0.00    -0.177 N
HETATM   20  C8  UNL     1      28.110  61.108 -15.664  1.00  0.00     0.196 C
HETATM   21  N9  UNL     1      29.210  60.911 -15.020  1.00  0.00    -0.383 N
HETATM   22  C9  UNL     1      29.109  60.827 -13.574  1.00  0.00     0.154 C
ATOM     23  H9  UNL     1      30.104  60.820 -15.502  1.00  0.00     0.160 HD
HETATM   24  C10 UNL     1      27.958  59.896 -13.219  1.00  0.00     0.219 C
HETATM   25  C11 UNL     1      26.664  60.493 -13.724  1.00  0.00     0.182 C
BRANCH  24  26
HETATM   26  N10 UNL     1      27.900  59.778 -11.758  1.00  0.00    -0.072 N
ATOM     27 3H10 UNL     1      28.128  60.651 -11.283  1.00  0.00     0.274 HD
ATOM     28 2H10 UNL     1      26.946  59.677 -11.409  1.00  0.00     0.274 HD
ATOM     29 1H10 UNL     1      28.505  59.007 -11.477  1.00  0.00     0.274 HD
ENDBRANCH  24  26
ENDBRANCH  11  19
ENDBRANCH   3   9
BRANCH   1  30
HETATM   30  N3  UNL     1      20.229  62.342 -17.461  1.00  0.00    -0.263 N
HETATM   31  C4  UNL     1      19.113  62.749 -16.947  1.00  0.00     0.245 A
HETATM   32  N2  UNL     1      17.864  62.429 -17.318  1.00  0.00    -0.304 N
HETATM   33  O3  UNL     1      19.055  63.589 -15.919  1.00  0.00    -0.276 OA
HETATM   34  C3  UNL     1      16.997  63.063 -16.529  1.00  0.00     0.144 A
ATOM     35  H2  UNL     1      17.618  61.801 -18.083  1.00  0.00     0.171 HD
HETATM   36  C13 UNL     1      17.787  63.796 -15.646  1.00  0.00     0.131 A
ATOM     37  H3  UNL     1      20.194  61.695 -18.250  1.00  0.00     0.190 HD
BRANCH  34  38
HETATM   38  N1  UNL     1      15.568  63.064 -16.508  1.00  0.00    -0.311 N
HETATM   39  C2  UNL     1      14.762  61.990 -16.094  1.00  0.00     0.219 C
HETATM   40  C1  UNL     1      13.302  62.081 -16.108  1.00  0.00     0.117 C
HETATM   41  O1  UNL     1      15.282  60.925 -15.703  1.00  0.00    -0.274 OA
ATOM     42  H1  UNL     1      15.095  63.913 -16.819  1.00  0.00     0.170 HD
ENDBRANCH  34  38
BRANCH  36  43
HETATM   43  C14 UNL     1      17.235  64.679 -14.559  1.00  0.00     0.202 C
BRANCH  43  44
HETATM   44  O4  UNL     1      16.625  63.902 -13.558  1.00  0.00    -0.387 OA
ATOM     45  H4  UNL     1      15.684  64.036 -13.562  1.00  0.00     0.210 HD
ENDBRANCH  43  44
BRANCH  43  46
HETATM   46  C15 UNL     1      18.404  65.375 -13.894  1.00  0.00     0.203 C
BRANCH  46  47
HETATM   47  O5  UNL     1      17.839  66.426 -13.138  1.00  0.00    -0.398 OA
ATOM     48  H5  UNL     1      17.481  67.033 -13.775  1.00  0.00     0.209 HD
ENDBRANCH  46  47
ENDBRANCH  43  46
ENDBRANCH  36  43
ENDBRANCH   1  30
TORSDOF 11
ENDMDL