MODEL 4
REMARK VINA RESULT: -5.189852004      6.282      8.081
REMARK  10 active torsions:
REMARK  status: ('A' for Active; 'I' for Inactive)
REMARK    1  A    between atoms: C1_2  and  C2_4
REMARK    2  A    between atoms: C4_8  and  N3_9
REMARK    3  A    between atoms: N3_9  and  C5_11
REMARK    4  A    between atoms: C6_15  and  N7_16
REMARK    5  A    between atoms: C8_21  and  S2_22
REMARK    6  A    between atoms: S2_22  and  C9_23
REMARK    7  A    between atoms: C9_23  and  C10_24
REMARK    8  A    between atoms: C10_24  and  O1_25
REMARK    9  A    between atoms: C10_24  and  O2_27
REMARK   10  A    between atoms: N9_32  and  C12_33
ROOT
HETATM    1  C2  UNL     1      17.191  65.030 -15.248  1.00  0.00     0.138 A
HETATM    2  N2  UNL     1      17.085  65.581 -16.460  1.00  0.00    -0.345 N
ATOM      3  H2  UNL     1      17.792  66.249 -16.771  1.00  0.00     0.166 HD
HETATM    4  C3  UNL     1      16.074  65.273 -17.268  1.00  0.00     0.105 A
HETATM    5  C4  UNL     1      15.997  65.866 -18.516  1.00  0.00     0.063 A
HETATM    6  C7  UNL     1      14.888  65.478 -19.304  1.00  0.00     0.068 A
HETATM    7  C8  UNL     1      13.955  64.580 -18.862  1.00  0.00     0.073 A
HETATM    8  N8  UNL     1      14.075  64.033 -17.641  1.00  0.00    -0.334 N
ATOM      9  H8  UNL     1      13.376  63.364 -17.320  1.00  0.00     0.168 HD
HETATM   10  C11 UNL     1      15.118  64.358 -16.825  1.00  0.00     0.162 A
HETATM   11  N9  UNL     1      15.206  63.790 -15.607  1.00  0.00    -0.089 N
HETATM   12  C13 UNL     1      16.242  64.129 -14.826  1.00  0.00     0.297 A
HETATM   13  O3  UNL     1      16.297  63.579 -13.685  1.00  0.00    -0.264 OA
ENDROOT
BRANCH   5  14
HETATM   14  N3  UNL     1      16.825  66.696 -18.981  1.00  0.00    -0.366 N
ATOM     15  H3  UNL     1      16.636  67.649 -18.668  1.00  0.00     0.161 HD
BRANCH  14  16
HETATM   16  C5  UNL     1      17.938  66.625 -19.823  1.00  0.00     0.242 C
HETATM   17  N4  UNL     1      18.899  65.683 -19.231  1.00  0.00    -0.101 NA
HETATM   18  N5  UNL     1      19.512  66.388 -18.194  1.00  0.00    -0.036 NA
HETATM   19  N6  UNL     1      19.537  67.734 -18.532  1.00  0.00    -0.093 NA
HETATM   20  C6  UNL     1      18.792  67.896 -19.764  1.00  0.00     0.332 C
BRANCH  20  21
HETATM   21  N7  UNL     1      19.743  67.822 -20.858  1.00  0.00    -0.057 N
ATOM     22  H73 UNL     1      20.545  67.227 -20.652  1.00  0.00     0.276 HD
ATOM     23  H72 UNL     1      19.392  67.296 -21.658  1.00  0.00     0.276 HD
ATOM     24  H71 UNL     1      20.004  68.780 -21.093  1.00  0.00     0.276 HD
ENDBRANCH  20  21
ENDBRANCH  14  16
ENDBRANCH   5  14
BRANCH   7  25
HETATM   25  S2  UNL     1      12.570  64.133 -19.909  1.00  0.00    -0.107 SA
BRANCH  25  26
HETATM   26  C9  UNL     1      12.563  62.315 -20.119  1.00  0.00     0.141 C
BRANCH  26  27
HETATM   27  C10 UNL     1      11.991  61.680 -18.885  1.00  0.00     0.263 C
BRANCH  27  28
HETATM   28  O1  UNL     1      11.356  62.684 -18.148  1.00  0.00    -0.371 OA
ATOM     29  H1  UNL     1      11.074  62.303 -17.324  1.00  0.00     0.212 HD
ENDBRANCH  27  28
BRANCH  27  30
HETATM   30  O2  UNL     1      13.028  61.190 -18.107  1.00  0.00    -0.371 OA
ATOM     31  H2  UNL     1      13.612  60.680 -18.656  1.00  0.00     0.212 HD
ENDBRANCH  27  30
ENDBRANCH  26  27
ENDBRANCH  25  26
ENDBRANCH   7  25
BRANCH   1  32
HETATM   32  C1  UNL     1      18.311  65.372 -14.359  1.00  0.00     0.145 C
HETATM   33  N1  UNL     1      18.080  66.245 -13.289  1.00  0.00    -0.087 NA
HETATM   34  S1  UNL     1      19.785  64.741 -14.621  1.00  0.00    -0.061 SA
ENDBRANCH   1  32
BRANCH  11  35
HETATM   35  C12 UNL     1      14.212  62.875 -15.222  1.00  0.00     0.722 A
HETATM   36  N10 UNL     1      14.224  61.550 -15.442  1.00  0.00    -0.113 N
HETATM   37  N11 UNL     1      13.120  61.026 -14.934  1.00  0.00     0.009 NA
ATOM     38  H10 UNL     1      14.962  61.033 -15.921  1.00  0.00     0.203 HD
HETATM   39  N12 UNL     1      12.390  61.983 -14.388  1.00  0.00    -0.211 N
HETATM   40  N13 UNL     1      13.062  63.101 -14.570  1.00  0.00    -0.117 N
ATOM     41  H12 UNL     1      11.488  61.877 -13.922  1.00  0.00     0.206 HD
ATOM     42  H13 UNL     1      12.749  64.019 -14.255  1.00  0.00     0.207 HD
ENDBRANCH  11  35
TORSDOF 10
ENDMDL