MODEL 5
REMARK VINA RESULT: -5.898461808      2.559      4.090
REMARK  13 active torsions:
REMARK  status: ('A' for Active; 'I' for Inactive)
REMARK    1  A    between atoms: C2_3  and  N2_4
REMARK    2  A    between atoms: C2_3  and  C12_31
REMARK    3  A    between atoms: N2_4  and  C3_6
REMARK    4  A    between atoms: C5_10  and  O1_11
REMARK    5  A    between atoms: C6_13  and  O2_14
REMARK    6  A    between atoms: C8_17  and  N4_18
REMARK    7  A    between atoms: C8_17  and  O3_22
REMARK    8  A    between atoms: C9_24  and  C10_25
REMARK    9  A    between atoms: C10_25  and  O4_26
REMARK   10  A    between atoms: C10_25  and  C11_28
REMARK   11  A    between atoms: N5_33  and  C14_34
REMARK   12  A    between atoms: C14_34  and  C15_35
REMARK   13  A    between atoms: C15_35  and  C16_36
ROOT
HETATM    1  N1  UNL     1      21.932  63.775 -19.405  1.00  0.00    -0.195 NA
HETATM    2  C1  UNL     1      21.274  64.357 -18.639  1.00  0.00     0.091 C
HETATM    3  C2  UNL     1      20.440  65.103 -17.681  1.00  0.00     0.243 C
ENDROOT
BRANCH   3   4
HETATM    4  N2  UNL     1      19.509  64.179 -17.082  1.00  0.00    -0.357 N
ATOM      5  H2  UNL     1      19.794  63.240 -16.802  1.00  0.00     0.162 HD
BRANCH   4   6
HETATM    6  C3  UNL     1      18.160  64.643 -16.898  1.00  0.00     0.094 C
HETATM    7  N3  UNL     1      17.713  65.648 -17.544  1.00  0.00    -0.376 N
HETATM    8  C4  UNL     1      16.361  65.950 -17.225  1.00  0.00     0.163 C
ATOM      9  H3  UNL     1      18.266  66.177 -18.217  1.00  0.00     0.160 HD
HETATM   10  C5  UNL     1      16.066  65.107 -15.996  1.00  0.00     0.122 C
HETATM   11  C6  UNL     1      14.733  64.445 -16.242  1.00  0.00     0.160 C
HETATM   12  C9  UNL     1      17.128  64.054 -15.973  1.00  0.00     0.145 C
HETATM   13  C7  UNL     1      14.981  62.963 -16.185  1.00  0.00     0.104 C
HETATM   14  C8  UNL     1      16.446  62.862 -16.559  1.00  0.00     0.245 C
BRANCH  10  15
HETATM   15  O1  UNL     1      16.071  65.922 -14.858  1.00  0.00    -0.384 OA
ATOM     16  H1  UNL     1      15.624  65.479 -14.148  1.00  0.00     0.210 HD
ENDBRANCH  10  15
BRANCH  11  17
HETATM   17  O2  UNL     1      13.744  64.903 -15.397  1.00  0.00    -0.392 OA
ATOM     18  H2  UNL     1      13.430  64.233 -14.800  1.00  0.00     0.210 HD
ENDBRANCH  11  17
BRANCH  14  19
HETATM   19  N4  UNL     1      17.035  61.607 -16.227  1.00  0.00    -0.045 N
ATOM     20  H43 UNL     1      16.765  61.320 -15.287  1.00  0.00     0.278 HD
ATOM     21  H42 UNL     1      16.607  60.855 -16.766  1.00  0.00     0.278 HD
ATOM     22  H41 UNL     1      18.051  61.591 -16.330  1.00  0.00     0.278 HD
ENDBRANCH  14  19
BRANCH  14  23
HETATM   23  O3  UNL     1      16.506  62.988 -17.952  1.00  0.00    -0.364 OA
ATOM     24  H3  UNL     1      15.627  62.823 -18.272  1.00  0.00     0.212 HD
ENDBRANCH  14  23
BRANCH  12  25
HETATM   25  C10 UNL     1      17.736  63.818 -14.619  1.00  0.00     0.242 C
BRANCH  25  26
HETATM   26  O4  UNL     1      16.635  63.787 -13.687  1.00  0.00    -0.383 OA
ATOM     27  H4  UNL     1      16.710  62.963 -13.220  1.00  0.00     0.210 HD
ENDBRANCH  25  26
BRANCH  25  28
HETATM   28  C11 UNL     1      18.725  64.756 -14.139  1.00  0.00     0.204 C
HETATM   29  O5  UNL     1      19.940  64.365 -14.007  1.00  0.00    -0.646 OA
HETATM   30  O6  UNL     1      18.549  66.071 -13.788  1.00  0.00    -0.646 OA
ENDBRANCH  25  28
ENDBRANCH  12  25
ENDBRANCH   4   6
ENDBRANCH   3   4
BRANCH   3  31
HETATM   31  C12 UNL     1      21.272  65.800 -16.714  1.00  0.00     0.081 A
HETATM   32  C13 UNL     1      22.584  65.522 -16.409  1.00  0.00     0.141 A
HETATM   33  N5  UNL     1      22.999  66.389 -15.467  1.00  0.00    -0.287 N
HETATM   34  N6  UNL     1      21.977  67.170 -15.204  1.00  0.00    -0.241 N
HETATM   35  N7  UNL     1      20.911  66.836 -15.947  1.00  0.00    -0.286 N
ATOM     36  H6  UNL     1      21.992  67.931 -14.524  1.00  0.00     0.208 HD
ATOM     37  H7  UNL     1      19.996  67.288 -15.931  1.00  0.00     0.188 HD
BRANCH  33  38
HETATM   38  C14 UNL     1      24.296  66.496 -14.826  1.00  0.00     0.150 C
BRANCH  38  39
HETATM   39  C15 UNL     1      24.945  67.841 -15.065  1.00  0.00     0.033 C
BRANCH  39  40
HETATM   40  C16 UNL     1      25.439  67.866 -16.491  1.00  0.00     0.088 C
HETATM   41  S1  UNL     1      24.530  69.197 -17.344  1.00  0.00    -0.098 SA
ENDBRANCH  39  40
ENDBRANCH  38  39
ENDBRANCH  33  38
ENDBRANCH   3  31
TORSDOF 13
ENDMDL