MODEL 5
REMARK VINA RESULT: -5.860274974      3.509      7.312
REMARK  14 active torsions:
REMARK  status: ('A' for Active; 'I' for Inactive)
REMARK    1  A    between atoms: C3_4  and  O2_5
REMARK    2  A    between atoms: O2_5  and  C4_6
REMARK    3  A    between atoms: C5_7  and  O3_8
REMARK    4  A    between atoms: O3_8  and  C6_9
REMARK    5  A    between atoms: C9_13  and  O5_14
REMARK    6  A    between atoms: C10_16  and  O6_17
REMARK    7  A    between atoms: C11_20  and  O8_21
REMARK    8  A    between atoms: O8_21  and  C12_22
REMARK    9  A    between atoms: C12_22  and  O9_23
REMARK   10  A    between atoms: C12_22  and  O10_25
REMARK   11  A    between atoms: C13_27  and  O11_28
REMARK   12  A    between atoms: C14_30  and  O12_31
REMARK   13  A    between atoms: C15_33  and  O13_34
REMARK   14  A    between atoms: C16_36  and  O14_37
ROOT
HETATM    1  C4  UNL     1      22.361  63.047 -16.257  1.00  0.00     0.213 C
HETATM    2  C5  UNL     1      23.366  64.061 -16.772  1.00  0.00     0.295 C
HETATM    3  O7  UNL     1      24.333  63.202 -17.353  1.00  0.00    -0.326 OA
HETATM    4  C11 UNL     1      24.649  62.294 -16.358  1.00  0.00     0.299 C
HETATM    5  C13 UNL     1      23.256  61.902 -15.856  1.00  0.00     0.207 C
ENDROOT
BRANCH   1   6
HETATM    6  O2  UNL     1      21.651  63.622 -15.263  1.00  0.00    -0.346 OA
BRANCH   6   7
HETATM    7  C3  UNL     1      20.415  64.110 -15.561  1.00  0.00     0.292 C
HETATM    8  O1  UNL     1      19.633  63.041 -16.000  1.00  0.00    -0.351 OA
HETATM    9  C2  UNL     1      18.541  63.452 -16.740  1.00  0.00     0.152 C
HETATM   10  C1  UNL     1      17.557  62.317 -16.909  1.00  0.00     0.042 C
HETATM   11  C16 UNL     1      17.830  64.599 -16.108  1.00  0.00     0.178 C
HETATM   12  C15 UNL     1      18.152  64.628 -14.631  1.00  0.00     0.183 C
HETATM   13  C14 UNL     1      19.670  64.745 -14.420  1.00  0.00     0.204 C
BRANCH  11  14
HETATM   14  O14 UNL     1      18.146  65.802 -16.718  1.00  0.00    -0.390 OA
ATOM     15  H14 UNL     1      17.765  66.542 -16.259  1.00  0.00     0.210 HD
ENDBRANCH  11  14
BRANCH  12  16
HETATM   16  O13 UNL     1      17.646  63.498 -14.009  1.00  0.00    -0.390 OA
ATOM     17  H13 UNL     1      18.023  62.707 -14.376  1.00  0.00     0.210 HD
ENDBRANCH  12  16
BRANCH  13  18
HETATM   18  O12 UNL     1      19.958  66.107 -14.426  1.00  0.00    -0.388 OA
ATOM     19  H12 UNL     1      20.077  66.384 -13.525  1.00  0.00     0.210 HD
ENDBRANCH  13  18
ENDBRANCH   6   7
ENDBRANCH   1   6
BRANCH   2  20
HETATM   20  O3  UNL     1      23.999  64.760 -15.810  1.00  0.00    -0.348 OA
BRANCH  20  21
HETATM   21  C6  UNL     1      23.990  66.098 -15.836  1.00  0.00     0.179 C
HETATM   22  C7  UNL     1      25.221  66.792 -16.321  1.00  0.00     0.202 C
HETATM   23  O4  UNL     1      25.043  68.163 -16.065  1.00  0.00    -0.386 OA
HETATM   24  C8  UNL     1      25.382  68.361 -14.714  1.00  0.00     0.201 C
HETATM   25  C9  UNL     1      24.934  67.199 -13.863  1.00  0.00     0.173 C
HETATM   26  C10 UNL     1      23.656  66.653 -14.468  1.00  0.00     0.180 C
BRANCH  25  27
HETATM   27  O5  UNL     1      24.748  67.588 -12.535  1.00  0.00    -0.391 OA
ATOM     28  H5  UNL     1      24.520  66.845 -11.988  1.00  0.00     0.210 HD
ENDBRANCH  25  27
BRANCH  26  29
HETATM   29  O6  UNL     1      22.726  67.702 -14.563  1.00  0.00    -0.390 OA
ATOM     30  H6  UNL     1      21.987  67.556 -13.984  1.00  0.00     0.210 HD
ENDBRANCH  26  29
ENDBRANCH  20  21
ENDBRANCH   2  20
BRANCH   5  31
HETATM   31  O11 UNL     1      22.906  60.765 -16.596  1.00  0.00    -0.388 OA
ATOM     32  H11 UNL     1      22.441  60.159 -16.033  1.00  0.00     0.210 HD
ENDBRANCH   5  31
BRANCH   4  33
HETATM   33  O8  UNL     1      25.411  62.896 -15.390  1.00  0.00    -0.306 OA
BRANCH  33  34
HETATM   34  C12 UNL     1      26.768  62.933 -15.702  1.00  0.00     0.410 C
BRANCH  34  35
HETATM   35  O9  UNL     1      27.112  64.040 -16.468  1.00  0.00    -0.350 OA
ATOM     36  H9  UNL     1      28.029  64.274 -16.384  1.00  0.00     0.215 HD
ENDBRANCH  34  35
BRANCH  34  37
HETATM   37  O10 UNL     1      27.477  63.028 -14.505  1.00  0.00    -0.350 OA
ATOM     38  H10 UNL     1      27.087  63.726 -13.992  1.00  0.00     0.215 HD
ENDBRANCH  34  37
ENDBRANCH  33  34
ENDBRANCH   4  33
TORSDOF 14
ENDMDL