MODEL 2
REMARK VINA RESULT: -6.451042956      5.153     10.151
REMARK  12 active torsions:
REMARK  status: ('A' for Active; 'I' for Inactive)
REMARK    1  A    between atoms: N1_1  and  C1_4
REMARK    2  A    between atoms: C3_9  and  N4_10
REMARK    3  A    between atoms: N4_10  and  C4_12
REMARK    4  A    between atoms: C4_12  and  N5_13
REMARK    5  A    between atoms: C4_12  and  O1_17
REMARK    6  A    between atoms: N8_25  and  C7_27
REMARK    7  A    between atoms: C7_27  and  S1_28
REMARK    8  A    between atoms: S1_28  and  C8_29
REMARK    9  A    between atoms: C8_29  and  C9_30
REMARK   10  A    between atoms: C10_33  and  N10_34
REMARK   11  A    between atoms: N10_34  and  C11_36
REMARK   12  A    between atoms: C14_44  and  N14_45
ROOT
HETATM    1  C1  UNL     1      18.486  65.098 -14.687  1.00  0.00     0.692 A
HETATM    2  N2  UNL     1      19.754  65.376 -15.005  1.00  0.00    -0.172 N
ATOM      3  H2  UNL     1      20.309  65.966 -14.386  1.00  0.00     0.186 HD
HETATM    4  C2  UNL     1      20.319  64.882 -16.146  1.00  0.00     0.188 A
HETATM    5  N3  UNL     1      19.613  64.102 -16.981  1.00  0.00    -0.067 N
HETATM    6  C3  UNL     1      18.318  63.824 -16.649  1.00  0.00     0.719 A
HETATM    7  N6  UNL     1      17.781  64.311 -15.535  1.00  0.00    -0.021 N
ATOM      8  H6  UNL     1      16.812  64.086 -15.312  1.00  0.00     0.203 HD
HETATM    9  N7  UNL     1      20.411  63.736 -18.056  1.00  0.00    -0.287 N
ATOM     10  H7  UNL     1      20.092  63.145 -18.823  1.00  0.00     0.187 HD
HETATM   11  C5  UNL     1      21.591  64.223 -17.978  1.00  0.00     0.141 A
HETATM   12  C6  UNL     1      21.643  65.009 -16.740  1.00  0.00     0.097 A
HETATM   13  N8  UNL     1      22.654  65.643 -16.324  1.00  0.00    -0.356 N
ATOM     14  H8  UNL     1      23.469  65.571 -16.933  1.00  0.00     0.166 HD
ENDROOT
BRANCH  13  15
HETATM   15  C7  UNL     1      22.864  66.431 -15.174  1.00  0.00     0.134 C
BRANCH  15  16
HETATM   16  S1  UNL     1      24.577  67.011 -15.000  1.00  0.00    -0.117 SA
BRANCH  16  17
HETATM   17  C8  UNL     1      24.933  67.127 -13.221  1.00  0.00     0.157 C
BRANCH  17  18
HETATM   18  C9  UNL     1      26.040  68.106 -12.967  1.00  0.00     0.123 A
HETATM   19  N9  UNL     1      26.399  69.051 -13.849  1.00  0.00    -0.179 N
HETATM   20  C10 UNL     1      27.391  69.924 -13.613  1.00  0.00     0.695 A
ATOM     21  H9  UNL     1      25.898  69.108 -14.735  1.00  0.00     0.185 HD
HETATM   22  N13 UNL     1      28.039  69.831 -12.438  1.00  0.00    -0.023 N
HETATM   23  C14 UNL     1      27.708  68.898 -11.527  1.00  0.00     0.691 A
ATOM     24  H13 UNL     1      28.796  70.482 -12.234  1.00  0.00     0.203 HD
HETATM   25  N15 UNL     1      26.707  68.043 -11.806  1.00  0.00    -0.179 N
ATOM     26  H15 UNL     1      26.451  67.332 -11.120  1.00  0.00     0.185 HD
BRANCH  20  27
HETATM   27  N10 UNL     1      27.765  70.832 -14.417  1.00  0.00    -0.205 N
ATOM     28  H10 UNL     1      28.122  71.691 -13.999  1.00  0.00     0.179 HD
BRANCH  27  29
HETATM   29  C11 UNL     1      27.740  70.783 -15.852  1.00  0.00     0.218 C
HETATM   30  C12 UNL     1      28.076  72.121 -16.472  1.00  0.00     0.090 C
HETATM   31  C13 UNL     1      26.737  72.703 -16.711  1.00  0.00     0.079 C
HETATM   32  N11 UNL     1      25.850  71.788 -16.660  1.00  0.00    -0.317 N
HETATM   33  N12 UNL     1      26.426  70.545 -16.396  1.00  0.00    -0.115 NA
ATOM     34  H11 UNL     1      24.851  71.943 -16.796  1.00  0.00     0.181 HD
ENDBRANCH  27  29
ENDBRANCH  20  27
BRANCH  23  35
HETATM   35  N14 UNL     1      28.357  68.839 -10.400  1.00  0.00    -0.234 N
ATOM     36 2H14 UNL     1      29.020  69.565 -10.129  1.00  0.00     0.174 HD
ATOM     37 1H14 UNL     1      28.205  68.052  -9.770  1.00  0.00     0.174 HD
ENDBRANCH  23  35
ENDBRANCH  17  18
ENDBRANCH  16  17
ENDBRANCH  15  16
ENDBRANCH  13  15
BRANCH   1  38
HETATM   38  N1  UNL     1      17.896  65.528 -13.635  1.00  0.00    -0.234 N
ATOM     39  H12 UNL     1      17.579  66.497 -13.627  1.00  0.00     0.174 HD
ATOM     40  H11 UNL     1      17.723  64.963 -12.804  1.00  0.00     0.174 HD
ENDBRANCH   1  38
BRANCH   6  41
HETATM   41  N4  UNL     1      17.657  63.072 -17.464  1.00  0.00    -0.172 N
ATOM     42  H4  UNL     1      17.353  63.454 -18.359  1.00  0.00     0.182 HD
BRANCH  41  43
HETATM   43  C4  UNL     1      17.341  61.714 -17.138  1.00  0.00     0.438 C
BRANCH  43  44
HETATM   44  N5  UNL     1      18.533  60.884 -17.083  1.00  0.00    -0.034 N
ATOM     45  H53 UNL     1      19.312  61.319 -17.577  1.00  0.00     0.279 HD
ATOM     46  H52 UNL     1      18.930  60.865 -16.144  1.00  0.00     0.279 HD
ATOM     47  H51 UNL     1      18.352  59.942 -17.430  1.00  0.00     0.279 HD
ENDBRANCH  43  44
BRANCH  43  48
HETATM   48  O1  UNL     1      16.690  61.725 -15.887  1.00  0.00    -0.354 OA
ATOM     49  H1  UNL     1      16.565  60.819 -15.626  1.00  0.00     0.213 HD
ENDBRANCH  43  48
ENDBRANCH  41  43
ENDBRANCH   6  41
TORSDOF 12
ENDMDL