MODEL 1
REMARK VINA RESULT: -7.661820655      0.000      0.000
REMARK  10 active torsions:
REMARK  status: ('A' for Active; 'I' for Inactive)
REMARK    1  A    between atoms: N2_4  and  O1_6
REMARK    2  A    between atoms: O1_6  and  C3_7
REMARK    3  A    between atoms: C3_7  and  O2_8
REMARK    4  A    between atoms: C6_14  and  O5_15
REMARK    5  A    between atoms: C6_14  and  C7_17
REMARK    6  A    between atoms: C7_17  and  O6_18
REMARK    7  A    between atoms: C8_20  and  C9_21
REMARK    8  A    between atoms: C9_21  and  S1_22
REMARK    9  A    between atoms: S1_22  and  C10_23
REMARK   10  A    between atoms: C12_32  and  O7_33
ROOT
HETATM    1  C1  UNL     1      22.464  62.876 -16.389  1.00  0.00     0.153 C
HETATM    2  N1  UNL     1      23.076  64.101 -15.967  1.00  0.00    -0.337 N
HETATM    3  C2  UNL     1      22.216  65.204 -15.634  1.00  0.00     0.141 C
HETATM    4  N2  UNL     1      21.066  64.931 -15.141  1.00  0.00    -0.247 N
ATOM      5  H2  UNL     1      20.850  63.941 -15.023  1.00  0.00     0.196 HD
HETATM    6  C6  UNL     1      22.724  66.584 -15.882  1.00  0.00     0.178 C
HETATM    7  C8  UNL     1      24.234  66.578 -15.788  1.00  0.00     0.222 C
HETATM    8  N6  UNL     1      24.654  65.446 -14.953  1.00  0.00    -0.028 N
ATOM      9  H61 UNL     1      24.139  65.353 -14.077  1.00  0.00     0.281 HD
ATOM     10  H62 UNL     1      25.574  65.555 -14.525  1.00  0.00     0.281 HD
HETATM   11  C13 UNL     1      24.534  64.288 -15.856  1.00  0.00     0.365 C
HETATM   12  C14 UNL     1      25.129  64.815 -17.088  1.00  0.00     0.224 C
HETATM   13  O8  UNL     1      25.730  64.135 -17.959  1.00  0.00    -0.287 OA
HETATM   14  C15 UNL     1      24.875  66.249 -17.071  1.00  0.00     0.094 C
HETATM   15  N7  UNL     1      25.153  67.090 -18.000  1.00  0.00    -0.397 N
ATOM     16  H71 UNL     1      25.598  66.863 -18.890  1.00  0.00     0.156 HD
ATOM     17  H72 UNL     1      24.975  68.095 -17.988  1.00  0.00     0.156 HD
ENDROOT
BRANCH   7  18
HETATM   18  C9  UNL     1      24.779  67.805 -15.132  1.00  0.00     0.130 C
BRANCH  18  19
HETATM   19  S1  UNL     1      25.257  67.565 -13.418  1.00  0.00    -0.104 SA
BRANCH  19  20
HETATM   20  C10 UNL     1      26.595  68.696 -13.062  1.00  0.00     0.137 A
HETATM   21  N3  UNL     1      27.165  69.604 -13.877  1.00  0.00    -0.182 N
HETATM   22  C11 UNL     1      28.157  70.276 -13.237  1.00  0.00     0.678 A
ATOM     23  H3  UNL     1      26.890  69.765 -14.846  1.00  0.00     0.185 HD
HETATM   24  N4  UNL     1      28.904  71.221 -13.751  1.00  0.00    -0.234 N
HETATM   25  N5  UNL     1      28.221  69.787 -11.992  1.00  0.00    -0.168 N
ATOM     26  H42 UNL     1      28.856  71.593 -14.699  1.00  0.00     0.174 HD
ATOM     27  H41 UNL     1      29.649  71.725 -13.270  1.00  0.00     0.174 HD
HETATM   28  C12 UNL     1      27.292  68.832 -11.852  1.00  0.00     0.189 A
ATOM     29  H5  UNL     1      28.871  70.093 -11.268  1.00  0.00     0.186 HD
BRANCH  28  30
HETATM   30  O7  UNL     1      26.981  68.047 -10.753  1.00  0.00    -0.344 OA
ATOM     31  H7  UNL     1      26.782  68.437  -9.909  1.00  0.00     0.219 HD
ENDBRANCH  28  30
ENDBRANCH  19  20
ENDBRANCH  18  19
ENDBRANCH   7  18
BRANCH   6  32
HETATM   32  O5  UNL     1      22.214  67.403 -14.884  1.00  0.00    -0.377 OA
ATOM     33  H5  UNL     1      21.863  66.842 -14.203  1.00  0.00     0.211 HD
ENDBRANCH   6  32
BRANCH   6  34
HETATM   34  C7  UNL     1      22.249  66.971 -17.263  1.00  0.00     0.213 C
BRANCH  34  35
HETATM   35  O6  UNL     1      20.875  66.994 -17.281  1.00  0.00    -0.397 OA
ATOM     36  H6  UNL     1      20.558  67.435 -16.501  1.00  0.00     0.209 HD
ENDBRANCH  34  35
ENDBRANCH   6  34
BRANCH   4  37
HETATM   37  O1  UNL     1      20.107  65.799 -14.760  1.00  0.00    -0.226 OA
BRANCH  37  38
HETATM   38  C3  UNL     1      18.754  65.422 -14.949  1.00  0.00     0.298 C
HETATM   39  C4  UNL     1      18.515  63.980 -14.638  1.00  0.00     0.261 C
HETATM   40  O3  UNL     1      17.307  64.399 -14.017  1.00  0.00    -0.311 OA
HETATM   41  C5  UNL     1      17.889  65.641 -13.763  1.00  0.00     0.326 C
HETATM   42  O4  UNL     1      17.727  66.536 -12.897  1.00  0.00    -0.259 OA
BRANCH  38  43
HETATM   43  O2  UNL     1      18.209  65.849 -16.152  1.00  0.00    -0.354 OA
ATOM     44  H2  UNL     1      17.755  66.682 -16.098  1.00  0.00     0.213 HD
ENDBRANCH  38  43
ENDBRANCH  37  38
ENDBRANCH   4  37
TORSDOF 10
ENDMDL