MODEL 4
REMARK VINA RESULT: -7.246823980      1.045      1.242
REMARK  11 active torsions:
REMARK  status: ('A' for Active; 'I' for Inactive)
REMARK    1  A    between atoms: C2_2  and  C3_3
REMARK    2  A    between atoms: C2_2  and  C11_36
REMARK    3  A    between atoms: C3_3  and  N1_4
REMARK    4  A    between atoms: N1_4  and  C4_6
REMARK    5  A    between atoms: C5_9  and  N3_10
REMARK    6  A    between atoms: N4_13  and  N5_14
REMARK    7  A    between atoms: C6_17  and  N6_18
REMARK    8  A    between atoms: N6_18  and  N7_20
REMARK    9  A    between atoms: C8_24  and  C9_25
REMARK   10  A    between atoms: C9_25  and  N9_26
REMARK   11  A    between atoms: C10_30  and  N11_31
REMARK       I    between atoms: N15_42  and  C13_44
REMARK       I    between atoms: C13_44  and  N16_45
REMARK       I    between atoms: C13_44  and  N17_49
ROOT
HETATM    1  C4  UNL     1      23.035  64.758 -16.112  1.00  0.00     0.707 A
HETATM    2  N2  UNL     1      23.902  65.773 -16.068  1.00  0.00    -0.020 N
ATOM      3  H2  UNL     1      24.885  65.567 -15.891  1.00  0.00     0.203 HD
HETATM    4  C5  UNL     1      23.539  67.052 -16.246  1.00  0.00     0.726 A
HETATM    5  N4  UNL     1      22.213  67.303 -16.481  1.00  0.00     0.085 N
HETATM    6  C6  UNL     1      21.292  66.333 -16.538  1.00  0.00     0.747 A
HETATM    7  N12 UNL     1      21.754  65.050 -16.345  1.00  0.00    -0.018 N
ATOM      8  H12 UNL     1      21.081  64.284 -16.382  1.00  0.00     0.203 HD
ENDROOT
BRANCH   1   9
HETATM    9  N1  UNL     1      23.341  63.523 -15.948  1.00  0.00    -0.224 N
ATOM     10  H1  UNL     1      22.906  63.041 -15.161  1.00  0.00     0.177 HD
BRANCH   9  11
HETATM   11  C3  UNL     1      24.230  62.760 -16.760  1.00  0.00     0.150 C
BRANCH  11  12
HETATM   12  C2  UNL     1      24.220  61.275 -16.389  1.00  0.00     0.076 C
HETATM   13  C1  UNL     1      22.893  60.873 -15.791  1.00  0.00     0.020 C
BRANCH  12  14
HETATM   14  C11 UNL     1      25.256  61.090 -15.334  1.00  0.00     0.147 A
HETATM   15  N13 UNL     1      26.282  61.938 -15.159  1.00  0.00    -0.280 N
HETATM   16  N14 UNL     1      27.035  61.529 -14.162  1.00  0.00    -0.263 N
ATOM     17  H13 UNL     1      26.451  62.775 -15.715  1.00  0.00     0.189 HD
HETATM   18  C12 UNL     1      26.447  60.401 -13.723  1.00  0.00     0.243 A
ATOM     19  H14 UNL     1      27.880  61.970 -13.800  1.00  0.00     0.190 HD
HETATM   20  N15 UNL     1      26.921  59.710 -12.729  1.00  0.00    -0.305 N
HETATM   21  O3  UNL     1      25.380  60.149 -14.437  1.00  0.00    -0.263 OA
HETATM   22  C13 UNL     1      28.117  60.089 -12.011  1.00  0.00     0.483 C
ATOM     23  H15 UNL     1      26.427  58.864 -12.444  1.00  0.00     0.166 HD
HETATM   24  N16 UNL     1      29.286  60.062 -12.889  1.00  0.00    -0.033 N
HETATM   25  N17 UNL     1      28.004  61.359 -11.337  1.00  0.00    -0.033 N
ATOM     26 3H16 UNL     1      29.392  59.156 -13.345  1.00  0.00     0.278 HD
ATOM     27 2H16 UNL     1      29.147  60.639 -13.718  1.00  0.00     0.278 HD
ATOM     28 1H16 UNL     1      30.129  60.329 -12.382  1.00  0.00     0.278 HD
ATOM     29 3H17 UNL     1      27.727  62.091 -11.991  1.00  0.00     0.278 HD
ATOM     30 2H17 UNL     1      27.192  61.370 -10.719  1.00  0.00     0.278 HD
ATOM     31 1H17 UNL     1      28.847  61.626 -10.831  1.00  0.00     0.278 HD
ENDBRANCH  12  14
ENDBRANCH  11  12
ENDBRANCH   9  11
ENDBRANCH   1   9
BRANCH   4  32
HETATM   32  N3  UNL     1      24.383  68.037 -16.203  1.00  0.00    -0.232 N
ATOM     33  H32 UNL     1      24.690  68.479 -17.070  1.00  0.00     0.174 HD
ATOM     34  H31 UNL     1      24.765  68.402 -15.330  1.00  0.00     0.174 HD
ENDBRANCH   4  32
BRANCH   6  35
HETATM   35  N6  UNL     1      20.059  66.502 -16.749  1.00  0.00    -0.120 N
ATOM     36  H6  UNL     1      19.816  67.473 -16.949  1.00  0.00     0.206 HD
BRANCH  35  37
HETATM   37  N7  UNL     1      18.984  65.669 -16.767  1.00  0.00    -0.214 N
HETATM   38  C7  UNL     1      18.320  65.262 -17.870  1.00  0.00     0.210 A
HETATM   39  N8  UNL     1      17.315  64.469 -17.548  1.00  0.00    -0.345 N
HETATM   40  C8  UNL     1      17.282  64.320 -16.168  1.00  0.00     0.127 A
ATOM     41  H8  UNL     1      16.668  64.036 -18.207  1.00  0.00     0.167 HD
HETATM   42  C10 UNL     1      18.311  65.064 -15.711  1.00  0.00     0.226 A
BRANCH  40  43
HETATM   43  C9  UNL     1      16.308  63.519 -15.480  1.00  0.00     0.141 C
HETATM   44  N10 UNL     1      16.171  62.121 -15.478  1.00  0.00    -0.081 NA
BRANCH  43  45
HETATM   45  N9  UNL     1      15.429  64.218 -14.755  1.00  0.00    -0.386 N
ATOM     46  H92 UNL     1      15.206  65.160 -15.077  1.00  0.00     0.157 HD
ATOM     47  H91 UNL     1      15.068  63.724 -13.939  1.00  0.00     0.157 HD
ENDBRANCH  43  45
ENDBRANCH  40  43
BRANCH  42  48
HETATM   48  N11 UNL     1      18.755  65.289 -14.400  1.00  0.00    -0.093 N
HETATM   49  O1  UNL     1      19.716  64.560 -13.937  1.00  0.00    -0.530 OA
HETATM   50  O2  UNL     1      18.328  66.188 -13.488  1.00  0.00    -0.530 OA
ENDBRANCH  42  48
ENDBRANCH  35  37
ENDBRANCH   6  35
BRANCH   5  51
HETATM   51  N5  UNL     1      21.867  68.646 -16.665  1.00  0.00    -0.309 N
ATOM     52  H52 UNL     1      20.949  68.912 -17.021  1.00  0.00     0.178 HD
ATOM     53  H51 UNL     1      22.585  69.329 -16.425  1.00  0.00     0.178 HD
ENDBRANCH   5  51
TORSDOF 11
ENDMDL