MODEL 3
REMARK VINA RESULT: -5.880299992      3.050      4.160
REMARK  10 active torsions:
REMARK  status: ('A' for Active; 'I' for Inactive)
REMARK    1  A    between atoms: C2_2  and  O1_4
REMARK    2  A    between atoms: C2_2  and  C4_6
REMARK    3  A    between atoms: C4_6  and  O2_7
REMARK    4  A    between atoms: C4_6  and  C5_9
REMARK    5  A    between atoms: C4_6  and  C11_29
REMARK    6  A    between atoms: C7_11  and  O3_12
REMARK    7  A    between atoms: C11_29  and  C12_30
REMARK    8  A    between atoms: C11_29  and  N6_33
REMARK    9  A    between atoms: C12_30  and  O5_31
REMARK   10  A    between atoms: C14_35  and  C15_36
ROOT
HETATM    1  C4  UNL     1      22.850  66.901 -16.332  1.00  0.00     0.140 C
ENDROOT
BRANCH   1   2
HETATM    2  C2  UNL     1      24.117  66.415 -15.739  1.00  0.00     0.086 C
HETATM    3  C1  UNL     1      24.232  66.681 -14.229  1.00  0.00     0.049 C
HETATM    4  C3  UNL     1      25.259  67.285 -16.304  1.00  0.00     0.049 C
BRANCH   2   5
HETATM    5  O1  UNL     1      24.474  65.133 -16.057  1.00  0.00    -0.387 OA
ATOM      6  H1  UNL     1      25.410  64.995 -15.971  1.00  0.00     0.210 HD
ENDBRANCH   2   5
ENDBRANCH   1   2
BRANCH   1   7
HETATM    7  O2  UNL     1      22.554  68.053 -15.516  1.00  0.00    -0.382 OA
ATOM      8  H2  UNL     1      23.042  68.741 -15.954  1.00  0.00     0.210 HD
ENDBRANCH   1   7
BRANCH   1   9
HETATM    9  C5  UNL     1      21.625  66.081 -16.246  1.00  0.00     0.233 C
HETATM   10  C6  UNL     1      20.735  66.162 -15.096  1.00  0.00     0.109 C
HETATM   11  C7  UNL     1      20.282  64.720 -14.782  1.00  0.00     0.219 C
HETATM   12  O4  UNL     1      19.023  64.682 -14.208  1.00  0.00    -0.291 OA
HETATM   13  C10 UNL     1      20.475  64.086 -16.095  1.00  0.00     0.362 C
HETATM   14  C8  UNL     1      17.802  64.125 -14.562  1.00  0.00     0.182 C
HETATM   15  N1  UNL     1      16.986  63.757 -13.651  1.00  0.00    -0.377 N
HETATM   16  C9  UNL     1      17.399  63.935 -15.974  1.00  0.00     0.181 C
ATOM     17  H12 UNL     1      17.264  63.888 -12.679  1.00  0.00     0.158 HD
ATOM     18  H11 UNL     1      16.089  63.347 -13.912  1.00  0.00     0.158 HD
HETATM   19  N2  UNL     1      16.034  63.628 -16.159  1.00  0.00    -0.077 NA
HETATM   20  N3  UNL     1      18.121  64.012 -17.050  1.00  0.00    -0.287 N
HETATM   21  N4  UNL     1      19.481  64.302 -17.085  1.00  0.00    -0.300 N
ATOM     22  H3  UNL     1      17.654  63.846 -17.941  1.00  0.00     0.188 HD
ATOM     23  H4  UNL     1      19.813  64.732 -17.948  1.00  0.00     0.182 HD
HETATM   24  N5  UNL     1      21.756  64.674 -16.544  1.00  0.00    -0.040 N
ATOM     25  H52 UNL     1      21.990  64.473 -17.516  1.00  0.00     0.280 HD
ATOM     26  H51 UNL     1      22.582  64.235 -16.137  1.00  0.00     0.280 HD
BRANCH  11  27
HETATM   27  O3  UNL     1      21.164  64.112 -13.874  1.00  0.00    -0.362 OA
ATOM     28  H3  UNL     1      20.902  63.214 -13.704  1.00  0.00     0.213 HD
ENDBRANCH  11  27
ENDBRANCH   1   9
BRANCH   1  29
HETATM   29  C11 UNL     1      23.063  67.586 -17.676  1.00  0.00     0.172 C
BRANCH  29  30
HETATM   30  C12 UNL     1      22.709  66.841 -18.889  1.00  0.00     0.194 C
BRANCH  30  31
HETATM   31  O5  UNL     1      23.561  65.698 -18.996  1.00  0.00    -0.399 OA
ATOM     32  H5  UNL     1      24.357  65.948 -19.450  1.00  0.00     0.209 HD
ENDBRANCH  30  31
ENDBRANCH  29  30
BRANCH  29  33
HETATM   33  N6  UNL     1      22.464  68.916 -17.649  1.00  0.00    -0.277 N
HETATM   34  C13 UNL     1      23.162  70.048 -17.804  1.00  0.00     0.146 A
HETATM   35  C14 UNL     1      22.264  71.098 -17.719  1.00  0.00     0.102 A
HETATM   36  N8  UNL     1      21.060  70.553 -17.517  1.00  0.00    -0.282 N
HETATM   37  N9  UNL     1      21.195  69.242 -17.477  1.00  0.00    -0.240 N
ATOM     38  H8  UNL     1      20.184  71.065 -17.411  1.00  0.00     0.188 HD
ATOM     39  H9  UNL     1      20.434  68.579 -17.334  1.00  0.00     0.208 HD
BRANCH  35  40
HETATM   40  C15 UNL     1      22.654  72.498 -17.841  1.00  0.00     0.142 C
HETATM   41  N7  UNL     1      23.029  73.235 -16.683  1.00  0.00    -0.087 NA
HETATM   42  S1  UNL     1      22.664  73.231 -19.301  1.00  0.00    -0.061 SA
ENDBRANCH  35  40
ENDBRANCH  29  33
ENDBRANCH   1  29
TORSDOF 10
ENDMDL