MODEL 3
REMARK VINA RESULT: -7.749849568      3.867      6.776
REMARK  9 active torsions:
REMARK  status: ('A' for Active; 'I' for Inactive)
REMARK    1  A    between atoms: C1_4  and  C2_5
REMARK    2  A    between atoms: C1_4  and  N8_26
REMARK    3  A    between atoms: C2_5  and  N2_6
REMARK    4  A    between atoms: N8_26  and  C11_28
REMARK    5  A    between atoms: C11_28  and  C12_29
REMARK    6  A    between atoms: C13_34  and  C14_35
REMARK    7  A    between atoms: C14_35  and  N11_36
REMARK    8  A    between atoms: C14_35  and  O3_40
REMARK    9  A    between atoms: C14_35  and  C15_42
ROOT
HETATM    1  N1  UNL     1      24.963  66.283 -14.349  1.00  0.00    -0.388 N
ATOM      2  H11 UNL     1      24.686  66.852 -13.548  1.00  0.00     0.157 HD
ATOM      3  H12 UNL     1      25.779  65.673 -14.317  1.00  0.00     0.157 HD
HETATM    4  C1  UNL     1      24.286  66.313 -15.441  1.00  0.00     0.089 C
ENDROOT
BRANCH   4   5
HETATM    5  C2  UNL     1      24.691  65.482 -16.612  1.00  0.00     0.208 C
BRANCH   5   6
HETATM    6  N2  UNL     1      24.535  64.069 -16.349  1.00  0.00    -0.310 N
HETATM    7  C3  UNL     1      25.405  63.205 -15.823  1.00  0.00     0.125 A
HETATM    8  N3  UNL     1      26.674  63.434 -15.397  1.00  0.00    -0.338 N
HETATM    9  C6  UNL     1      24.836  61.931 -15.748  1.00  0.00     0.069 A
HETATM   10  C4  UNL     1      27.377  62.404 -14.896  1.00  0.00     0.183 A
ATOM     11  H3  UNL     1      27.084  64.366 -15.455  1.00  0.00     0.168 HD
HETATM   12  N4  UNL     1      26.827  61.179 -14.825  1.00  0.00    -0.340 N
HETATM   13  C5  UNL     1      25.560  60.900 -15.240  1.00  0.00     0.132 A
ATOM     14  H4  UNL     1      27.389  60.419 -14.440  1.00  0.00     0.167 HD
HETATM   15  N5  UNL     1      25.146  59.571 -15.094  1.00  0.00    -0.082 NA
HETATM   16  C7  UNL     1      23.571  62.038 -16.251  1.00  0.00     0.094 A
HETATM   17  C8  UNL     1      22.573  61.118 -16.418  1.00  0.00     0.264 A
HETATM   18  C10 UNL     1      23.406  63.381 -16.620  1.00  0.00     0.130 A
HETATM   19  O1  UNL     1      22.653  59.913 -16.113  1.00  0.00    -0.267 OA
HETATM   20  N6  UNL     1      21.400  61.571 -16.965  1.00  0.00    -0.275 N
HETATM   21  C9  UNL     1      21.245  62.856 -17.317  1.00  0.00     0.328 A
ATOM     22  H6  UNL     1      20.630  60.917 -17.107  1.00  0.00     0.173 HD
HETATM   23  O2  UNL     1      20.150  63.222 -17.814  1.00  0.00    -0.247 OA
HETATM   24  N7  UNL     1      22.223  63.760 -17.153  1.00  0.00    -0.293 N
ATOM     25  H7  UNL     1      22.074  64.731 -17.429  1.00  0.00     0.172 HD
ENDBRANCH   5   6
ENDBRANCH   4   5
BRANCH   4  26
HETATM   26  N8  UNL     1      23.148  67.163 -15.486  1.00  0.00    -0.371 N
ATOM     27  H8  UNL     1      22.882  67.650 -14.630  1.00  0.00     0.161 HD
BRANCH  26  28
HETATM   28  C11 UNL     1      22.344  67.381 -16.665  1.00  0.00     0.207 C
BRANCH  28  29
HETATM   29  C12 UNL     1      21.033  66.692 -16.575  1.00  0.00     0.158 A
HETATM   30  N9  UNL     1      20.046  66.623 -17.469  1.00  0.00    -0.280 N
HETATM   31  N10 UNL     1      19.054  65.895 -16.961  1.00  0.00    -0.277 N
ATOM     32  H9  UNL     1      20.049  67.058 -18.392  1.00  0.00     0.189 HD
HETATM   33  C13 UNL     1      19.449  65.510 -15.720  1.00  0.00     0.213 A
ATOM     34  H10 UNL     1      18.170  65.671 -17.416  1.00  0.00     0.189 HD
HETATM   35  O5  UNL     1      20.638  66.008 -15.531  1.00  0.00    -0.275 OA
BRANCH  33  36
HETATM   36  C14 UNL     1      18.666  64.671 -14.753  1.00  0.00     0.368 C
BRANCH  36  37
HETATM   37  N11 UNL     1      18.054  63.546 -15.386  1.00  0.00    -0.030 N
ATOM     38 3H11 UNL     1      17.181  63.809 -15.843  1.00  0.00     0.279 HD
ATOM     39 2H11 UNL     1      18.585  63.251 -16.206  1.00  0.00     0.279 HD
ATOM     40 1H11 UNL     1      17.912  62.769 -14.740  1.00  0.00     0.279 HD
ENDBRANCH  36  37
BRANCH  36  41
HETATM   41  O3  UNL     1      19.537  64.216 -13.767  1.00  0.00    -0.352 OA
ATOM     42  H3  UNL     1      19.033  63.723 -13.130  1.00  0.00     0.213 HD
ENDBRANCH  36  41
BRANCH  36  43
HETATM   43  C15 UNL     1      17.647  65.583 -14.125  1.00  0.00     0.303 C
HETATM   44  N12 UNL     1      17.974  66.436 -13.054  1.00  0.00    -0.057 NA
HETATM   45  O4  UNL     1      16.467  65.590 -14.558  1.00  0.00    -0.271 OA
ENDBRANCH  36  43
ENDBRANCH  33  36
ENDBRANCH  28  29
ENDBRANCH  26  28
ENDBRANCH   4  26
TORSDOF 9
ENDMDL