MODEL 5
REMARK VINA RESULT: -5.660807841      2.270      3.884
REMARK  16 active torsions:
REMARK  status: ('A' for Active; 'I' for Inactive)
REMARK    1  A    between atoms: N1_2  and  C3_4
REMARK    2  A    between atoms: C4_5  and  O1_6
REMARK    3  A    between atoms: C5_8  and  O2_9
REMARK    4  A    between atoms: C6_11  and  O3_12
REMARK    5  A    between atoms: C7_14  and  C8_15
REMARK    6  A    between atoms: C8_15  and  O4_16
REMARK    7  A    between atoms: C8_15  and  C9_18
REMARK    8  A    between atoms: N2_20  and  C11_21
REMARK    9  A    between atoms: C11_21  and  N3_22
REMARK   10  A    between atoms: C11_21  and  C12_26
REMARK   11  A    between atoms: C12_26  and  O5_27
REMARK   12  A    between atoms: C12_26  and  N4_29
REMARK   13  A    between atoms: N4_29  and  N5_30
REMARK   14  A    between atoms: N4_29  and  O6_33
REMARK   15  A    between atoms: N6_39  and  O9_40
REMARK   16  A    between atoms: C15_42  and  O10_43
ROOT
HETATM    1  C9  UNL     1      21.775  65.716 -15.965  1.00  0.00     0.116 A
HETATM    2  C10 UNL     1      20.659  64.974 -15.591  1.00  0.00     0.132 A
HETATM    3  N2  UNL     1      19.424  65.170 -16.079  1.00  0.00    -0.285 N
HETATM    4  C13 UNL     1      19.278  66.150 -16.987  1.00  0.00     0.320 A
HETATM    5  O7  UNL     1      18.144  66.367 -17.469  1.00  0.00    -0.262 OA
HETATM    6  C14 UNL     1      20.376  66.910 -17.385  1.00  0.00     0.340 A
HETATM    7  O8  UNL     1      20.232  67.828 -18.238  1.00  0.00    -0.260 OA
HETATM    8  N6  UNL     1      21.596  66.704 -16.891  1.00  0.00    -0.179 N
ENDROOT
BRANCH   1   9
HETATM    9  C8  UNL     1      23.112  65.446 -15.527  1.00  0.00     0.112 C
BRANCH   9  10
HETATM   10  C7  UNL     1      24.119  64.538 -16.008  1.00  0.00     0.071 A
HETATM   11  C6  UNL     1      25.323  65.030 -16.494  1.00  0.00     0.117 A
HETATM   12  C5  UNL     1      26.362  64.243 -16.881  1.00  0.00     0.136 A
HETATM   13  C4  UNL     1      26.204  62.855 -16.784  1.00  0.00     0.131 A
HETATM   14  C3  UNL     1      25.051  62.311 -16.315  1.00  0.00     0.100 A
HETATM   15  C15 UNL     1      23.974  63.158 -15.911  1.00  0.00     0.111 A
BRANCH  11  16
HETATM   16  O3  UNL     1      25.399  66.433 -16.559  1.00  0.00    -0.357 OA
ATOM     17  H3  UNL     1      25.346  66.895 -17.388  1.00  0.00     0.217 HD
ENDBRANCH  11  16
BRANCH  12  18
HETATM   18  O2  UNL     1      27.527  64.770 -17.354  1.00  0.00    -0.356 OA
ATOM     19  H2  UNL     1      27.620  65.710 -17.460  1.00  0.00     0.218 HD
ENDBRANCH  12  18
BRANCH  13  20
HETATM   20  O1  UNL     1      27.321  62.100 -17.207  1.00  0.00    -0.356 OA
ATOM     21  H1  UNL     1      27.675  61.360 -16.728  1.00  0.00     0.218 HD
ENDBRANCH  13  20
BRANCH  14  22
HETATM   22  N1  UNL     1      24.928  60.902 -16.236  1.00  0.00    -0.385 N
HETATM   23  C1  UNL     1      25.351  60.198 -15.038  1.00  0.00     0.149 C
HETATM   24  C2  UNL     1      24.386  60.086 -17.320  1.00  0.00     0.149 C
ENDBRANCH  14  22
BRANCH  15  25
HETATM   25  O10 UNL     1      22.905  62.571 -15.460  1.00  0.00    -0.357 OA
ATOM     26  H10 UNL     1      22.138  63.117 -15.335  1.00  0.00     0.217 HD
ENDBRANCH  15  25
ENDBRANCH   9  10
BRANCH   9  27
HETATM   27  O4  UNL     1      23.501  66.159 -14.503  1.00  0.00    -0.357 OA
ATOM     28  H4  UNL     1      22.861  66.805 -14.228  1.00  0.00     0.217 HD
ENDBRANCH   9  27
ENDBRANCH   1   9
BRANCH   8  29
HETATM   29  O9  UNL     1      22.689  67.467 -17.291  1.00  0.00    -0.279 OA
ATOM     30  H9  UNL     1      22.543  68.263 -17.788  1.00  0.00     0.245 HD
ENDBRANCH   8  29
BRANCH   3  31
HETATM   31  C11 UNL     1      18.278  64.382 -15.673  1.00  0.00     0.338 C
BRANCH  31  32
HETATM   32  N3  UNL     1      18.338  63.034 -16.162  1.00  0.00    -0.054 N
ATOM     33  H33 UNL     1      19.168  62.890 -16.737  1.00  0.00     0.277 HD
ATOM     34  H32 UNL     1      18.545  62.379 -15.408  1.00  0.00     0.277 HD
ATOM     35  H31 UNL     1      17.492  62.763 -16.662  1.00  0.00     0.277 HD
ENDBRANCH  31  32
BRANCH  31  36
HETATM   36  C12 UNL     1      18.111  64.395 -14.163  1.00  0.00     0.290 C
BRANCH  36  37
HETATM   37  O5  UNL     1      17.590  63.170 -13.711  1.00  0.00    -0.373 OA
ATOM     38  H5  UNL     1      17.396  63.211 -12.782  1.00  0.00     0.212 HD
ENDBRANCH  36  37
BRANCH  36  39
HETATM   39  N4  UNL     1      17.172  65.420 -13.751  1.00  0.00    -0.080 NA
BRANCH  39  40
HETATM   40  N5  UNL     1      17.903  66.447 -13.182  1.00  0.00    -0.338 NA
ATOM     41  H52 UNL     1      18.866  66.357 -13.504  1.00  0.00     0.173 HD
ATOM     42  H51 UNL     1      17.816  66.358 -12.169  1.00  0.00     0.173 HD
ENDBRANCH  39  40
BRANCH  39  43
HETATM   43  O6  UNL     1      16.477  65.935 -14.786  1.00  0.00    -0.292 OA
ATOM     44  H6  UNL     1      17.036  66.358 -15.427  1.00  0.00     0.239 HD
ENDBRANCH  39  43
ENDBRANCH  36  39
ENDBRANCH  31  36
ENDBRANCH   3  31
TORSDOF 16
ENDMDL