MODEL 3
REMARK VINA RESULT: -7.190064398      1.402      2.494
REMARK  18 active torsions:
REMARK  status: ('A' for Active; 'I' for Inactive)
REMARK    1  A    between atoms: C2_2  and  C3_3
REMARK    2  A    between atoms: C3_3  and  C4_4
REMARK    3  A    between atoms: C4_4  and  C5_5
REMARK    4  A    between atoms: C5_5  and  C6_6
REMARK    5  A    between atoms: C9_9  and  C10_10
REMARK       I    between atoms: C10_10  and  N1_12
REMARK    6  A    between atoms: N1_12  and  C11_14
REMARK    7  A    between atoms: C11_14  and  C12_15
REMARK    8  A    between atoms: C12_15  and  O2_16
REMARK    9  A    between atoms: O2_16  and  C13_17
REMARK   10  A    between atoms: C13_17  and  C14_18
REMARK   11  A    between atoms: C14_18  and  O3_19
REMARK   12  A    between atoms: O3_19  and  C15_20
REMARK   13  A    between atoms: C15_20  and  C16_21
REMARK   14  A    between atoms: C16_21  and  C17_22
REMARK   15  A    between atoms: C17_22  and  N2_23
REMARK   16  A    between atoms: N2_23  and  C18_24
REMARK   17  A    between atoms: N2_23  and  C20_26
REMARK   18  A    between atoms: N2_23  and  C22_28
ROOT
HETATM    1  C12 UNL     1      21.056   5.157  58.481  1.00  0.00     0.187 C
ENDROOT
BRANCH   1   2
HETATM    2  C11 UNL     1      20.565   4.150  57.478  1.00  0.00     0.148 C
BRANCH   2   3
HETATM    3  N1  UNL     1      21.115   4.396  56.162  1.00  0.00    -0.359 N
HETATM    4  C10 UNL     1      20.353   4.951  55.099  1.00  0.00     0.222 C
HETATM    5  O1  UNL     1      19.151   5.225  55.360  1.00  0.00    -0.273 OA
ATOM      6  H1  UNL     1      22.092   4.160  55.991  1.00  0.00     0.162 HD
BRANCH   4   7
HETATM    7  C9  UNL     1      20.981   5.173  53.784  1.00  0.00     0.086 A
HETATM    8  C6  UNL     1      20.990   4.071  52.749  1.00  0.00    -0.031 A
HETATM    9  C7  UNL     1      20.182   2.837  53.021  1.00  0.00     0.016 C
HETATM   10  C8  UNL     1      20.156   5.315  52.568  1.00  0.00     0.025 A
BRANCH   8  11
HETATM   11  C5  UNL     1      22.262   3.974  51.975  1.00  0.00     0.010 C
BRANCH  11  12
HETATM   12  C4  UNL     1      22.522   2.694  51.303  1.00  0.00     0.005 C
BRANCH  12  13
HETATM   13  C3  UNL     1      22.167   2.551  49.870  1.00  0.00     0.026 C
BRANCH  13  14
HETATM   14  C2  UNL     1      22.431   3.832  49.126  1.00  0.00    -0.037 C
HETATM   15  C1  UNL     1      21.850   4.066  47.979  1.00  0.00     0.007 C
ENDBRANCH  13  14
ENDBRANCH  12  13
ENDBRANCH  11  12
ENDBRANCH   8  11
ENDBRANCH   4   7
ENDBRANCH   2   3
ENDBRANCH   1   2
BRANCH   1  16
HETATM   16  O2  UNL     1      20.143   6.148  58.747  1.00  0.00    -0.387 OA
BRANCH  16  17
HETATM   17  C13 UNL     1      20.516   7.385  58.247  1.00  0.00     0.193 C
BRANCH  17  18
HETATM   18  C14 UNL     1      19.410   7.988  57.379  1.00  0.00     0.193 C
BRANCH  18  19
HETATM   19  O3  UNL     1      18.175   7.762  57.915  1.00  0.00    -0.389 OA
BRANCH  19  20
HETATM   20  C15 UNL     1      17.193   8.688  57.635  1.00  0.00     0.169 C
BRANCH  20  21
HETATM   21  C16 UNL     1      17.746  10.085  57.580  1.00  0.00     0.054 C
BRANCH  21  22
HETATM   22  C17 UNL     1      17.379  10.999  58.666  1.00  0.00     0.239 C
BRANCH  22  23
HETATM   23  N2  UNL     1      18.222  11.246  59.759  1.00  0.00    -0.068 N
BRANCH  23  24
HETATM   24  C18 UNL     1      17.736  10.360  60.854  1.00  0.00     0.233 C
HETATM   25  C19 UNL     1      16.267  10.424  61.046  1.00  0.00     0.035 C
ENDBRANCH  23  24
BRANCH  23  26
HETATM   26  C20 UNL     1      18.122  12.636  60.215  1.00  0.00     0.233 C
HETATM   27  C21 UNL     1      18.832  13.607  59.317  1.00  0.00     0.035 C
ENDBRANCH  23  26
BRANCH  23  28
HETATM   28  C22 UNL     1      19.609  10.937  59.661  1.00  0.00     0.233 C
HETATM   29  C23 UNL     1      20.180  10.106  60.760  1.00  0.00     0.035 C
ENDBRANCH  23  28
ENDBRANCH  22  23
ENDBRANCH  21  22
ENDBRANCH  20  21
ENDBRANCH  19  20
ENDBRANCH  18  19
ENDBRANCH  17  18
ENDBRANCH  16  17
ENDBRANCH   1  16
TORSDOF 18
ENDMDL