MODEL 3
REMARK VINA RESULT: -7.982287616      5.839      9.343
REMARK  19 active torsions:
REMARK  status: ('A' for Active; 'I' for Inactive)
REMARK    1  A    between atoms: C2_2  and  C3_3
REMARK    2  A    between atoms: C3_3  and  C4_4
REMARK    3  A    between atoms: C4_4  and  C5_5
REMARK    4  A    between atoms: C5_5  and  C6_6
REMARK    5  A    between atoms: C6_6  and  C7_7
REMARK    6  A    between atoms: C7_7  and  C8_8
REMARK    7  A    between atoms: C8_8  and  O1_9
REMARK    8  A    between atoms: O1_9  and  C9_10
REMARK    9  A    between atoms: C9_10  and  C10_11
REMARK   10  A    between atoms: C10_11  and  N1_12
REMARK   11  A    between atoms: N1_12  and  C11_13
REMARK   12  A    between atoms: C11_13  and  C12_14
REMARK   13  A    between atoms: C12_14  and  N2_15
REMARK   14  A    between atoms: N2_15  and  C13_18
REMARK   15  A    between atoms: C13_18  and  C14_19
REMARK   16  A    between atoms: C14_19  and  O2_20
REMARK   17  A    between atoms: O2_20  and  C15_21
REMARK   18  A    between atoms: C15_21  and  C16_22
REMARK   19  A    between atoms: C16_22  and  C17_24
ROOT
HETATM    1  C12 UNL     1      16.207   9.785  57.462  1.00  0.00     0.260 C
ENDROOT
BRANCH   1   2
HETATM    2  C11 UNL     1      16.762   8.399  57.494  1.00  0.00     0.265 C
BRANCH   2   3
HETATM    3  N1  UNL     1      18.205   8.420  57.330  1.00  0.00    -0.060 N
HETATM    4  C23 UNL     1      18.888   9.650  57.060  1.00  0.00     0.265 A
HETATM    5  C24 UNL     1      18.995   8.958  58.391  1.00  0.00     0.265 A
BRANCH   3   6
HETATM    6  C10 UNL     1      18.696   7.204  56.635  1.00  0.00     0.263 C
BRANCH   6   7
HETATM    7  C9  UNL     1      19.890   6.659  57.350  1.00  0.00     0.195 C
BRANCH   7   8
HETATM    8  O1  UNL     1      20.752   5.868  56.771  1.00  0.00    -0.389 OA
BRANCH   8   9
HETATM    9  C8  UNL     1      20.883   4.565  56.709  1.00  0.00     0.167 C
BRANCH   9  10
HETATM   10  C7  UNL     1      19.675   3.763  56.402  1.00  0.00     0.027 C
BRANCH  10  11
HETATM   11  C6  UNL     1      19.602   3.387  54.905  1.00  0.00     0.006 C
BRANCH  11  12
HETATM   12  C5  UNL     1      18.906   4.396  54.094  1.00  0.00     0.027 C
BRANCH  12  13
HETATM   13  C4  UNL     1      19.719   5.005  53.021  1.00  0.00    -0.027 C
BRANCH  13  14
HETATM   14  C3  UNL     1      21.085   5.470  53.202  1.00  0.00    -0.005 C
BRANCH  14  15
HETATM   15  C2  UNL     1      22.244   4.754  52.705  1.00  0.00    -0.011 C
HETATM   16  C1  UNL     1      22.132   3.612  51.977  1.00  0.00     0.011 C
ENDBRANCH  14  15
ENDBRANCH  13  14
ENDBRANCH  12  13
ENDBRANCH  11  12
ENDBRANCH  10  11
ENDBRANCH   9  10
ENDBRANCH   8   9
ENDBRANCH   7   8
ENDBRANCH   6   7
ENDBRANCH   3   6
ENDBRANCH   2   3
ENDBRANCH   1   2
BRANCH   1  17
HETATM   17  N2  UNL     1      15.138   9.953  58.463  1.00  0.00    -0.072 N
ATOM     18  H22 UNL     1      14.325  10.412  58.053  1.00  0.00     0.277 HD
ATOM     19  H21 UNL     1      14.720   9.054  58.702  1.00  0.00     0.277 HD
BRANCH  17  20
HETATM   20  C13 UNL     1      15.572  10.637  59.630  1.00  0.00     0.258 C
BRANCH  20  21
HETATM   21  C14 UNL     1      16.008   9.840  60.788  1.00  0.00     0.202 C
BRANCH  21  22
HETATM   22  O2  UNL     1      17.073  10.024  61.512  1.00  0.00    -0.357 OA
BRANCH  22  23
HETATM   23  C15 UNL     1      17.730  11.031  61.979  1.00  0.00     0.190 C
BRANCH  23  24
HETATM   24  C16 UNL     1      18.775  11.759  61.276  1.00  0.00     0.203 C
HETATM   25  O3  UNL     1      19.884  11.120  61.072  1.00  0.00    -0.286 OA
BRANCH  24  26
HETATM   26  C17 UNL     1      18.675  13.119  60.781  1.00  0.00     0.016 A
HETATM   27  C18 UNL     1      18.332  14.214  61.515  1.00  0.00     0.015 A
HETATM   28  C19 UNL     1      18.246  15.500  60.973  1.00  0.00     0.001 A
HETATM   29  C20 UNL     1      18.512  15.700  59.643  1.00  0.00     0.000 A
HETATM   30  C21 UNL     1      18.857  14.607  58.896  1.00  0.00     0.001 A
HETATM   31  C22 UNL     1      18.943  13.353  59.419  1.00  0.00     0.015 A
ENDBRANCH  24  26
ENDBRANCH  23  24
ENDBRANCH  22  23
ENDBRANCH  21  22
ENDBRANCH  20  21
ENDBRANCH  17  20
ENDBRANCH   1  17
TORSDOF 19
ENDMDL