MODEL 4
REMARK VINA RESULT: -7.024124161      5.186      7.121
REMARK  19 active torsions:
REMARK  status: ('A' for Active; 'I' for Inactive)
REMARK    1  A    between atoms: C2_2  and  N1_3
REMARK    2  A    between atoms: N1_3  and  C3_4
REMARK    3  A    between atoms: N1_3  and  C5_6
REMARK    4  A    between atoms: N1_3  and  C8_10
REMARK    5  A    between atoms: C5_6  and  C6_7
REMARK    6  A    between atoms: C8_10  and  C9_11
REMARK    7  A    between atoms: C9_11  and  C10_12
REMARK    8  A    between atoms: C10_12  and  C11_13
REMARK    9  A    between atoms: C11_13  and  O1_14
REMARK   10  A    between atoms: O1_14  and  C12_15
REMARK   11  A    between atoms: C12_15  and  C13_16
REMARK   12  A    between atoms: C13_16  and  C14_17
REMARK   13  A    between atoms: C14_17  and  C15_18
REMARK   14  A    between atoms: C15_18  and  N3_19
REMARK   15  A    between atoms: N3_19  and  O2_20
REMARK   16  A    between atoms: N3_19  and  C16_22
REMARK   17  A    between atoms: C16_22  and  C17_23
REMARK   18  A    between atoms: C17_23  and  C18_24
REMARK   19  A    between atoms: C18_24  and  C19_25
ROOT
HETATM    1  C6  UNL     1      19.521   9.272  60.807  1.00  0.00     0.151 C
HETATM    2  C7  UNL     1      20.326   9.866  61.847  1.00  0.00     0.060 C
HETATM    3  N2  UNL     1      20.983  10.311  62.695  1.00  0.00    -0.197 NA
ENDROOT
BRANCH   1   4
HETATM    4  C5  UNL     1      18.436  10.075  60.260  1.00  0.00     0.251 C
BRANCH   4   5
HETATM    5  N1  UNL     1      18.481  10.591  58.917  1.00  0.00    -0.067 N
BRANCH   5   6
HETATM    6  C2  UNL     1      17.154  10.645  58.364  1.00  0.00     0.233 C
HETATM    7  C1  UNL     1      16.115  10.207  59.375  1.00  0.00     0.035 C
ENDBRANCH   5   6
BRANCH   5   8
HETATM    8  C3  UNL     1      19.164  11.841  58.895  1.00  0.00     0.233 C
HETATM    9  C4  UNL     1      18.701  12.887  59.848  1.00  0.00     0.035 C
ENDBRANCH   5   8
BRANCH   5  10
HETATM   10  C8  UNL     1      19.303   9.628  58.191  1.00  0.00     0.237 C
BRANCH  10  11
HETATM   11  C9  UNL     1      18.701   8.762  57.199  1.00  0.00     0.030 C
BRANCH  11  12
HETATM   12  C10 UNL     1      19.479   7.622  56.626  1.00  0.00     0.028 C
BRANCH  12  13
HETATM   13  C11 UNL     1      20.287   7.066  57.831  1.00  0.00     0.167 C
BRANCH  13  14
HETATM   14  O1  UNL     1      20.786   5.859  57.368  1.00  0.00    -0.391 OA
BRANCH  14  15
HETATM   15  C12 UNL     1      20.271   4.734  57.943  1.00  0.00     0.167 C
BRANCH  15  16
HETATM   16  C13 UNL     1      20.306   3.602  56.936  1.00  0.00     0.028 C
BRANCH  16  17
HETATM   17  C14 UNL     1      19.528   4.097  55.724  1.00  0.00     0.024 C
BRANCH  17  18
HETATM   18  C15 UNL     1      19.908   3.178  54.545  1.00  0.00     0.155 C
BRANCH  18  19
HETATM   19  N3  UNL     1      19.502   3.712  53.321  1.00  0.00    -0.276 N
BRANCH  19  20
HETATM   20  O2  UNL     1      18.278   4.295  53.362  1.00  0.00    -0.288 OA
ATOM     21  H2  UNL     1      18.219   5.092  52.847  1.00  0.00     0.244 HD
ENDBRANCH  19  20
BRANCH  19  22
HETATM   22  C16 UNL     1      20.355   4.343  52.429  1.00  0.00     0.090 C
BRANCH  22  23
HETATM   23  C17 UNL     1      21.686   3.798  52.170  1.00  0.00     0.051 C
BRANCH  23  24
HETATM   24  C18 UNL     1      22.508   4.517  51.183  1.00  0.00     0.043 C
BRANCH  24  25
HETATM   25  C19 UNL     1      22.694   3.669  49.929  1.00  0.00    -0.058 A
HETATM   26  C20 UNL     1      22.071   4.008  48.753  1.00  0.00     0.007 A
HETATM   27  C21 UNL     1      22.227   3.258  47.594  1.00  0.00     0.001 A
HETATM   28  C22 UNL     1      23.030   2.139  47.616  1.00  0.00     0.000 A
HETATM   29  C23 UNL     1      23.656   1.794  48.788  1.00  0.00     0.001 A
HETATM   30  C24 UNL     1      23.496   2.549  49.946  1.00  0.00     0.007 A
ENDBRANCH  24  25
ENDBRANCH  23  24
ENDBRANCH  22  23
ENDBRANCH  19  22
ENDBRANCH  18  19
ENDBRANCH  17  18
ENDBRANCH  16  17
ENDBRANCH  15  16
ENDBRANCH  14  15
ENDBRANCH  13  14
ENDBRANCH  12  13
ENDBRANCH  11  12
ENDBRANCH  10  11
ENDBRANCH   5  10
ENDBRANCH   4   5
ENDBRANCH   1   4
TORSDOF 19
ENDMDL