MODEL 4
REMARK VINA RESULT: -8.315765146      0.919      1.569
REMARK  18 active torsions:
REMARK  status: ('A' for Active; 'I' for Inactive)
REMARK    1  A    between atoms: C2_2  and  C3_3
REMARK    2  A    between atoms: C3_3  and  N1_4
REMARK    3  A    between atoms: N1_4  and  C4_7
REMARK    4  A    between atoms: C4_7  and  C5_8
REMARK    5  A    between atoms: C5_8  and  C6_9
REMARK    6  A    between atoms: C6_9  and  C7_10
REMARK    7  A    between atoms: C7_10  and  C8_11
REMARK    8  A    between atoms: C8_11  and  O1_12
REMARK    9  A    between atoms: O1_12  and  C9_13
REMARK   10  A    between atoms: C9_13  and  C10_14
REMARK   11  A    between atoms: C10_14  and  C11_15
REMARK   12  A    between atoms: C11_15  and  N2_16
REMARK   13  A    between atoms: C14_19  and  C15_20
REMARK   14  A    between atoms: C15_20  and  C16_21
REMARK   15  A    between atoms: C16_21  and  C17_22
REMARK   16  A    between atoms: C17_22  and  C18_23
REMARK   17  A    between atoms: C18_23  and  C19_24
REMARK   18  A    between atoms: C19_24  and  N3_25
ROOT
HETATM    1  N2  UNL     1      20.169   3.570  52.930  1.00  0.00    -0.366 N
HETATM    2  C12 UNL     1      21.091   4.384  52.405  1.00  0.00     0.091 A
HETATM    3  C13 UNL     1      22.087   3.901  51.583  1.00  0.00     0.024 A
HETATM    4  C14 UNL     1      22.179   2.539  51.257  1.00  0.00    -0.056 A
HETATM    5  C24 UNL     1      21.223   1.720  51.806  1.00  0.00     0.024 A
HETATM    6  C25 UNL     1      20.233   2.264  52.635  1.00  0.00     0.091 A
ENDROOT
BRANCH   1   7
HETATM    7  C11 UNL     1      19.101   4.076  53.820  1.00  0.00     0.130 C
BRANCH   7   8
HETATM    8  C10 UNL     1      19.220   3.390  55.124  1.00  0.00     0.046 C
BRANCH   8   9
HETATM    9  C9  UNL     1      19.535   4.198  56.328  1.00  0.00     0.169 C
BRANCH   9  10
HETATM   10  O1  UNL     1      19.494   5.510  56.299  1.00  0.00    -0.391 OA
BRANCH  10  11
HETATM   11  C8  UNL     1      19.578   6.382  57.283  1.00  0.00     0.167 C
BRANCH  11  12
HETATM   12  C7  UNL     1      19.496   7.844  56.914  1.00  0.00     0.026 C
BRANCH  12  13
HETATM   13  C6  UNL     1      18.034   8.268  57.132  1.00  0.00     0.004 C
BRANCH  13  14
HETATM   14  C5  UNL     1      18.016   9.351  58.173  1.00  0.00     0.027 C
BRANCH  14  15
HETATM   15  C4  UNL     1      17.639  10.668  57.484  1.00  0.00     0.232 C
BRANCH  15  16
HETATM   16  N1  UNL     1      18.801  11.455  57.302  1.00  0.00    -0.072 N
ATOM     17  H12 UNL     1      18.574  12.315  56.803  1.00  0.00     0.277 HD
ATOM     18  H11 UNL     1      19.424  11.019  56.623  1.00  0.00     0.277 HD
BRANCH  16  19
HETATM   19  C3  UNL     1      19.498  11.747  58.494  1.00  0.00     0.259 C
BRANCH  19  20
HETATM   20  C2  UNL     1      18.798  12.743  59.317  1.00  0.00    -0.010 C
HETATM   21  C1  UNL     1      18.902  14.041  59.169  1.00  0.00     0.008 C
ENDBRANCH  19  20
ENDBRANCH  16  19
ENDBRANCH  15  16
ENDBRANCH  14  15
ENDBRANCH  13  14
ENDBRANCH  12  13
ENDBRANCH  11  12
ENDBRANCH  10  11
ENDBRANCH   9  10
ENDBRANCH   8   9
ENDBRANCH   7   8
ENDBRANCH   1   7
BRANCH   4  22
HETATM   22  C15 UNL     1      23.263   2.042  50.376  1.00  0.00     0.038 C
BRANCH  22  23
HETATM   23  C16 UNL     1      23.502   2.861  49.161  1.00  0.00     0.005 C
BRANCH  23  24
HETATM   24  C17 UNL     1      22.532   2.757  48.053  1.00  0.00     0.002 C
BRANCH  24  25
HETATM   25  C18 UNL     1      22.298   3.988  47.264  1.00  0.00     0.020 C
BRANCH  25  26
HETATM   26  C19 UNL     1      23.201   3.988  46.024  1.00  0.00     0.129 C
BRANCH  26  27
HETATM   27  N3  UNL     1      22.427   3.696  44.837  1.00  0.00    -0.353 N
HETATM   28  C20 UNL     1      22.806   2.812  43.930  1.00  0.00     0.093 A
HETATM   29  C21 UNL     1      22.023   2.585  42.826  1.00  0.00     0.034 A
HETATM   30  C22 UNL     1      20.821   3.276  42.641  1.00  0.00     0.090 A
HETATM   31  N4  UNL     1      20.499   4.159  43.603  1.00  0.00    -0.362 N
HETATM   32  C23 UNL     1      21.269   4.379  44.682  1.00  0.00     0.182 A
ATOM     33  H4  UNL     1      19.631   4.686  43.508  1.00  0.00     0.165 HD
ENDBRANCH  26  27
ENDBRANCH  25  26
ENDBRANCH  24  25
ENDBRANCH  23  24
ENDBRANCH  22  23
ENDBRANCH   4  22
TORSDOF 18
ENDMDL