MODEL 1
REMARK VINA RESULT: -7.783904382      0.000      0.000
REMARK  18 active torsions:
REMARK  status: ('A' for Active; 'I' for Inactive)
REMARK    1  A    between atoms: N2_4  and  C1_6
REMARK    2  A    between atoms: C1_6  and  O1_7
REMARK    3  A    between atoms: O1_7  and  C2_8
REMARK    4  A    between atoms: C2_8  and  C3_9
REMARK    5  A    between atoms: C3_9  and  O2_10
REMARK    6  A    between atoms: O2_10  and  C4_11
REMARK    7  A    between atoms: C4_11  and  C5_12
REMARK    8  A    between atoms: C5_12  and  C6_13
REMARK    9  A    between atoms: C6_13  and  C7_14
REMARK   10  A    between atoms: C7_14  and  C8_15
REMARK   11  A    between atoms: C8_15  and  C9_16
REMARK   12  A    between atoms: C9_16  and  C10_17
REMARK   13  A    between atoms: C10_17  and  C11_18
REMARK   14  A    between atoms: C11_18  and  C12_19
REMARK   15  A    between atoms: C12_19  and  N3_20
REMARK   16  A    between atoms: C16_24  and  C17_25
REMARK   17  A    between atoms: C17_25  and  C18_26
REMARK   18  A    between atoms: C19_27  and  C20_28
ROOT
HETATM    1  C8  UNL     1      18.943   4.713  53.991  1.00  0.00     0.000 C
ENDROOT
BRANCH   1   2
HETATM    2  C7  UNL     1      19.525   3.822  55.047  1.00  0.00     0.000 C
BRANCH   2   3
HETATM    3  C6  UNL     1      19.534   4.414  56.406  1.00  0.00     0.002 C
BRANCH   3   4
HETATM    4  C5  UNL     1      19.470   5.943  56.337  1.00  0.00     0.026 C
BRANCH   4   5
HETATM    5  C4  UNL     1      19.763   6.523  57.677  1.00  0.00     0.167 C
BRANCH   5   6
HETATM    6  O2  UNL     1      18.916   7.320  58.249  1.00  0.00    -0.389 OA
BRANCH   6   7
HETATM    7  C3  UNL     1      18.559   8.564  58.019  1.00  0.00     0.194 C
BRANCH   7   8
HETATM    8  C2  UNL     1      17.174   8.810  57.531  1.00  0.00     0.202 C
BRANCH   8   9
HETATM    9  O1  UNL     1      16.337   9.344  58.445  1.00  0.00    -0.343 OA
BRANCH   9  10
HETATM   10  C1  UNL     1      15.364  10.212  58.185  1.00  0.00     0.241 C
BRANCH  10  11
HETATM   11  N2  UNL     1      14.347   9.862  57.246  1.00  0.00    -0.297 N
HETATM   12  N1  UNL     1      13.845  10.652  56.455  1.00  0.00    -0.344 N
ATOM     13  H12 UNL     1      14.186  11.613  56.482  1.00  0.00     0.176 HD
ATOM     14  H11 UNL     1      13.119  10.402  55.784  1.00  0.00     0.176 HD
ATOM     15  H2  UNL     1      14.019   8.897  57.232  1.00  0.00     0.187 HD
ENDBRANCH  10  11
ENDBRANCH   9  10
ENDBRANCH   8   9
ENDBRANCH   7   8
ENDBRANCH   6   7
ENDBRANCH   5   6
ENDBRANCH   4   5
ENDBRANCH   3   4
ENDBRANCH   2   3
ENDBRANCH   1   2
BRANCH   1  16
HETATM   16  C9  UNL     1      19.851   4.904  52.814  1.00  0.00     0.000 C
BRANCH  16  17
HETATM   17  C10 UNL     1      21.215   5.422  53.160  1.00  0.00     0.002 C
BRANCH  17  18
HETATM   18  C11 UNL     1      22.266   4.723  52.364  1.00  0.00     0.020 C
BRANCH  18  19
HETATM   19  C12 UNL     1      21.871   3.331  51.918  1.00  0.00     0.128 C
BRANCH  19  20
HETATM   20  N3  UNL     1      22.310   3.078  50.564  1.00  0.00    -0.366 N
HETATM   21  C13 UNL     1      23.257   2.183  50.246  1.00  0.00     0.090 A
HETATM   22  C14 UNL     1      23.660   1.958  48.942  1.00  0.00     0.018 A
HETATM   23  C15 UNL     1      23.084   2.668  47.907  1.00  0.00     0.010 A
HETATM   24  C16 UNL     1      22.113   3.588  48.234  1.00  0.00    -0.039 A
HETATM   25  C21 UNL     1      21.752   3.767  49.553  1.00  0.00     0.097 A
BRANCH  24  26
HETATM   26  C17 UNL     1      21.466   4.375  47.156  1.00  0.00     0.066 C
BRANCH  26  27
HETATM   27  C18 UNL     1      21.929   3.829  45.861  1.00  0.00    -0.025 C
HETATM   28  C19 UNL     1      21.403   4.287  44.741  1.00  0.00    -0.020 C
BRANCH  28  29
HETATM   29  C20 UNL     1      21.821   3.784  43.393  1.00  0.00     0.112 C
HETATM   30  S1  UNL     1      20.423   3.249  42.408  1.00  0.00    -0.094 SA
ENDBRANCH  28  29
ENDBRANCH  26  27
ENDBRANCH  24  26
ENDBRANCH  19  20
ENDBRANCH  18  19
ENDBRANCH  17  18
ENDBRANCH  16  17
ENDBRANCH   1  16
TORSDOF 18
ENDMDL