MODEL 3
REMARK VINA RESULT: -7.177851805      1.428      2.538
REMARK  19 active torsions:
REMARK  status: ('A' for Active; 'I' for Inactive)
REMARK    1  A    between atoms: C2_2  and  C3_3
REMARK    2  A    between atoms: C4_4  and  C5_5
REMARK    3  A    between atoms: C5_5  and  N1_6
REMARK    4  A    between atoms: N1_6  and  C6_7
REMARK    5  A    between atoms: C6_7  and  C7_8
REMARK    6  A    between atoms: C7_8  and  O1_9
REMARK    7  A    between atoms: C7_8  and  C8_11
REMARK    8  A    between atoms: C8_11  and  O2_12
REMARK    9  A    between atoms: O2_12  and  C9_13
REMARK   10  A    between atoms: C9_13  and  C10_14
REMARK   11  A    between atoms: C10_14  and  C11_15
REMARK   12  A    between atoms: C11_15  and  C12_16
REMARK   13  A    between atoms: C12_16  and  C13_17
REMARK   14  A    between atoms: C13_17  and  C14_18
REMARK   15  A    between atoms: C14_18  and  N2_19
REMARK   16  A    between atoms: N2_19  and  C16_21
REMARK   17  A    between atoms: C16_21  and  C17_22
REMARK   18  A    between atoms: C17_22  and  C18_23
REMARK   19  A    between atoms: C18_23  and  N3_24
ROOT
HETATM    1  O2  UNL     1      21.235   7.464  58.686  1.00  0.00    -0.389 OA
ENDROOT
BRANCH   1   2
HETATM    2  C8  UNL     1      20.658   7.977  59.761  1.00  0.00     0.200 C
BRANCH   2   3
HETATM    3  C7  UNL     1      20.215   9.425  59.668  1.00  0.00     0.168 C
BRANCH   3   4
HETATM    4  C6  UNL     1      18.765   9.645  59.562  1.00  0.00     0.271 C
BRANCH   4   5
HETATM    5  N1  UNL     1      18.314  10.263  58.352  1.00  0.00    -0.061 N
HETATM    6  C21 UNL     1      18.485   9.495  57.170  1.00  0.00     0.239 C
HETATM    7  C22 UNL     1      17.089   8.912  57.433  1.00  0.00     0.056 C
HETATM    8  C23 UNL     1      16.853  10.200  58.236  1.00  0.00     0.239 C
BRANCH   5   9
HETATM    9  C5  UNL     1      18.793  11.627  58.285  1.00  0.00     0.265 C
BRANCH   9  10
HETATM   10  C4  UNL     1      18.400  12.507  59.375  1.00  0.00     0.001 C
HETATM   11  C3  UNL     1      18.766  13.777  59.356  1.00  0.00    -0.003 C
BRANCH  11  12
HETATM   12  C2  UNL     1      18.392  14.686  60.429  1.00  0.00    -0.011 C
HETATM   13  C1  UNL     1      18.094  15.928  60.152  1.00  0.00     0.011 C
ENDBRANCH  11  12
ENDBRANCH   9  10
ENDBRANCH   5   9
ENDBRANCH   4   5
ENDBRANCH   3   4
BRANCH   3  14
HETATM   14  O1  UNL     1      20.912  10.115  60.632  1.00  0.00    -0.392 OA
ATOM     15  H1  UNL     1      20.898  11.065  60.606  1.00  0.00     0.210 HD
ENDBRANCH   3  14
ENDBRANCH   2   3
ENDBRANCH   1   2
BRANCH   1  16
HETATM   16  C9  UNL     1      20.988   6.237  58.188  1.00  0.00     0.167 C
BRANCH  16  17
HETATM   17  C10 UNL     1      19.668   6.078  57.479  1.00  0.00     0.026 C
BRANCH  17  18
HETATM   18  C11 UNL     1      19.686   6.064  55.995  1.00  0.00     0.002 C
BRANCH  18  19
HETATM   19  C12 UNL     1      19.465   4.712  55.431  1.00  0.00     0.005 C
BRANCH  19  20
HETATM   20  C13 UNL     1      18.912   4.721  54.032  1.00  0.00     0.044 C
BRANCH  20  21
HETATM   21  C14 UNL     1      19.821   5.008  52.922  1.00  0.00     0.062 C
BRANCH  21  22
HETATM   22  N2  UNL     1      21.043   4.356  52.776  1.00  0.00    -0.378 N
HETATM   23  C15 UNL     1      22.198   4.903  53.303  1.00  0.00     0.154 C
BRANCH  22  24
HETATM   24  C16 UNL     1      20.981   3.173  52.068  1.00  0.00     0.064 C
BRANCH  24  25
HETATM   25  C17 UNL     1      21.955   2.860  50.993  1.00  0.00     0.075 C
BRANCH  25  26
HETATM   26  C18 UNL     1      21.731   3.690  49.764  1.00  0.00     0.276 C
BRANCH  26  27
HETATM   27  N3  UNL     1      22.826   3.600  48.811  1.00  0.00     0.080 N
HETATM   28  C19 UNL     1      22.448   4.013  47.498  1.00  0.00     0.309 C
HETATM   29  C20 UNL     1      23.211   2.196  48.790  1.00  0.00     0.309 C
ENDBRANCH  26  27
ENDBRANCH  25  26
ENDBRANCH  24  25
ENDBRANCH  22  24
ENDBRANCH  21  22
ENDBRANCH  20  21
ENDBRANCH  19  20
ENDBRANCH  18  19
ENDBRANCH  17  18
ENDBRANCH  16  17
ENDBRANCH   1  16
TORSDOF 19
ENDMDL