MODEL 2
REMARK VINA RESULT: -7.648229396      1.859      2.409
REMARK  20 active torsions:
REMARK  status: ('A' for Active; 'I' for Inactive)
REMARK    1  A    between atoms: C2_2  and  C3_3
REMARK    2  A    between atoms: C3_3  and  C4_4
REMARK    3  A    between atoms: C4_4  and  O1_5
REMARK    4  A    between atoms: O1_5  and  C5_6
REMARK    5  A    between atoms: C5_6  and  C6_7
REMARK    6  A    between atoms: C6_7  and  O2_8
REMARK    7  A    between atoms: O2_8  and  C7_9
REMARK    8  A    between atoms: C7_9  and  C8_10
REMARK    9  A    between atoms: C8_10  and  C9_11
REMARK   10  A    between atoms: C9_11  and  C10_12
REMARK   11  A    between atoms: C10_12  and  C11_13
REMARK   12  A    between atoms: C11_13  and  C12_14
REMARK   13  A    between atoms: C12_14  and  C13_15
REMARK   14  A    between atoms: C13_15  and  C14_16
REMARK   15  A    between atoms: C14_16  and  O3_17
REMARK   16  A    between atoms: O3_17  and  C15_18
REMARK   17  A    between atoms: C15_18  and  C17_20
REMARK   18  A    between atoms: C17_20  and  N1_21
REMARK   19  A    between atoms: N1_21  and  O4_22
REMARK   20  A    between atoms: N1_21  and  C18_24
ROOT
HETATM    1  C13 UNL     1      21.087   5.590  53.133  1.00  0.00     0.030 C
ENDROOT
BRANCH   1   2
HETATM    2  C12 UNL     1      19.662   5.086  52.957  1.00  0.00     0.029 C
BRANCH   2   3
HETATM    3  C11 UNL     1      19.089   4.385  54.108  1.00  0.00    -0.031 C
BRANCH   3   4
HETATM    4  C10 UNL     1      19.747   4.243  55.391  1.00  0.00    -0.031 C
BRANCH   4   5
HETATM    5  C9  UNL     1      19.474   5.108  56.555  1.00  0.00     0.029 C
BRANCH   5   6
HETATM    6  C8  UNL     1      19.463   6.567  56.332  1.00  0.00     0.030 C
BRANCH   6   7
HETATM    7  C7  UNL     1      18.455   7.385  57.084  1.00  0.00     0.168 C
BRANCH   7   8
HETATM    8  O2  UNL     1      18.742   8.100  58.138  1.00  0.00    -0.389 OA
BRANCH   8   9
HETATM    9  C6  UNL     1      19.426   9.221  58.280  1.00  0.00     0.193 C
BRANCH   9  10
HETATM   10  C5  UNL     1      19.236  10.208  57.118  1.00  0.00     0.193 C
BRANCH  10  11
HETATM   11  O1  UNL     1      18.979  11.464  57.465  1.00  0.00    -0.389 OA
BRANCH  11  12
HETATM   12  C4  UNL     1      18.387  11.898  58.563  1.00  0.00     0.171 C
BRANCH  12  13
HETATM   13  C3  UNL     1      19.001  12.900  59.462  1.00  0.00     0.052 C
BRANCH  13  14
HETATM   14  C2  UNL     1      18.804  14.304  59.097  1.00  0.00    -0.035 C
HETATM   15  C1  UNL     1      18.436  15.236  60.005  1.00  0.00     0.007 C
ENDBRANCH  13  14
ENDBRANCH  12  13
ENDBRANCH  11  12
ENDBRANCH  10  11
ENDBRANCH   9  10
ENDBRANCH   8   9
ENDBRANCH   7   8
ENDBRANCH   6   7
ENDBRANCH   5   6
ENDBRANCH   4   5
ENDBRANCH   3   4
ENDBRANCH   2   3
ENDBRANCH   1   2
BRANCH   1  16
HETATM   16  C14 UNL     1      22.089   4.706  52.472  1.00  0.00     0.168 C
BRANCH  16  17
HETATM   17  O3  UNL     1      21.561   3.944  51.462  1.00  0.00    -0.385 OA
BRANCH  17  18
HETATM   18  C15 UNL     1      21.922   2.620  51.430  1.00  0.00     0.137 C
HETATM   19  C16 UNL     1      20.943   1.714  52.094  1.00  0.00     0.041 C
BRANCH  18  20
HETATM   20  C17 UNL     1      22.154   2.240  49.999  1.00  0.00     0.181 C
BRANCH  20  21
HETATM   21  N1  UNL     1      23.121   2.988  49.296  1.00  0.00    -0.286 N
BRANCH  21  22
HETATM   22  O4  UNL     1      24.154   3.237  49.912  1.00  0.00    -0.291 OA
ATOM     23  H4  UNL     1      24.729   3.879  49.511  1.00  0.00     0.244 HD
ENDBRANCH  21  22
BRANCH  21  24
HETATM   24  C18 UNL     1      23.036   3.480  47.969  1.00  0.00     0.131 C
HETATM   25  C19 UNL     1      21.690   4.100  47.707  1.00  0.00    -0.004 C
HETATM   26  C20 UNL     1      21.410   4.435  46.463  1.00  0.00    -0.029 C
HETATM   27  C21 UNL     1      22.452   4.166  45.437  1.00  0.00     0.027 C
HETATM   28  C22 UNL     1      23.035   2.785  45.567  1.00  0.00     0.006 C
HETATM   29  C23 UNL     1      23.099   2.300  46.986  1.00  0.00     0.031 C
ENDBRANCH  21  24
ENDBRANCH  20  21
ENDBRANCH  18  20
ENDBRANCH  17  18
ENDBRANCH  16  17
ENDBRANCH   1  16
TORSDOF 20
ENDMDL