MODEL 2
REMARK VINA RESULT: -7.332997964      1.189      1.446
REMARK  18 active torsions:
REMARK  status: ('A' for Active; 'I' for Inactive)
REMARK    1  A    between atoms: C2_2  and  C3_3
REMARK    2  A    between atoms: C3_3  and  C4_4
REMARK    3  A    between atoms: C3_3  and  N3_21
REMARK    4  A    between atoms: N1_8  and  C8_9
REMARK    5  A    between atoms: C8_9  and  C9_10
REMARK    6  A    between atoms: C9_10  and  N2_11
REMARK    7  A    between atoms: N2_11  and  C10_12
REMARK    8  A    between atoms: N2_11  and  C11_14
REMARK    9  A    between atoms: C11_14  and  C13_16
REMARK   10  A    between atoms: C13_16  and  C14_17
REMARK   11  A    between atoms: C14_17  and  C15_18
REMARK   12  A    between atoms: C15_18  and  C16_19
REMARK   13  A    between atoms: N3_21  and  C18_22
REMARK   14  A    between atoms: N3_21  and  N4_27
REMARK   15  A    between atoms: C18_22  and  C19_23
REMARK   16  A    between atoms: C19_23  and  C20_24
REMARK   17  A    between atoms: C20_24  and  C21_25
REMARK   18  A    between atoms: N4_27  and  C23_29
ROOT
HETATM    1  C4  UNL     1      18.877  10.502  57.985  1.00  0.00     0.251 C
HETATM    2  C5  UNL     1      17.647  11.111  57.454  1.00  0.00     0.040 C
HETATM    3  C6  UNL     1      16.643   9.961  57.453  1.00  0.00     0.032 C
HETATM    4  C7  UNL     1      17.085   9.221  58.661  1.00  0.00     0.273 C
HETATM    5  N1  UNL     1      18.544   9.207  58.632  1.00  0.00     0.100 N
ENDROOT
BRANCH   1   6
HETATM    6  C3  UNL     1      19.521  11.396  59.017  1.00  0.00     0.162 C
BRANCH   6   7
HETATM    7  C2  UNL     1      18.626  12.643  58.988  1.00  0.00    -0.008 C
HETATM    8  C1  UNL     1      19.101  13.854  59.025  1.00  0.00     0.009 C
ENDBRANCH   6   7
BRANCH   6   9
HETATM    9  N3  UNL     1      19.461  10.959  60.344  1.00  0.00    -0.295 N
BRANCH   9  10
HETATM   10  C18 UNL     1      18.622  11.482  61.306  1.00  0.00     0.084 C
BRANCH  10  11
HETATM   11  C19 UNL     1      17.372  10.719  61.662  1.00  0.00     0.046 C
BRANCH  11  12
HETATM   12  C20 UNL     1      16.105  11.496  61.388  1.00  0.00     0.005 C
BRANCH  12  13
HETATM   13  C21 UNL     1      16.245  12.879  61.941  1.00  0.00    -0.004 C
HETATM   14  C22 UNL     1      15.474  13.885  61.143  1.00  0.00     0.005 C
ENDBRANCH  12  13
ENDBRANCH  11  12
ENDBRANCH  10  11
ENDBRANCH   9  10
BRANCH   9  15
HETATM   15  N4  UNL     1      20.602  10.307  60.774  1.00  0.00    -0.275 N
ATOM     16  H4  UNL     1      21.494  10.675  60.443  1.00  0.00     0.189 HD
BRANCH  15  17
HETATM   17  C23 UNL     1      20.655   9.192  61.620  1.00  0.00     0.368 C
HETATM   18  O2  UNL     1      20.792   9.238  62.867  1.00  0.00    -0.282 OA
ENDBRANCH  15  17
ENDBRANCH   9  15
ENDBRANCH   6   9
ENDBRANCH   1   6
BRANCH   5  19
HETATM   19  C8  UNL     1      18.949   8.120  57.780  1.00  0.00     0.318 C
BRANCH  19  20
HETATM   20  C9  UNL     1      20.263   7.514  57.889  1.00  0.00     0.102 C
BRANCH  20  21
HETATM   21  N2  UNL     1      20.455   6.107  57.815  1.00  0.00    -0.310 N
BRANCH  21  22
HETATM   22  C10 UNL     1      21.229   5.504  58.871  1.00  0.00     0.359 C
HETATM   23  O1  UNL     1      20.927   5.439  60.060  1.00  0.00    -0.283 OA
ENDBRANCH  21  22
BRANCH  21  24
HETATM   24  C11 UNL     1      19.831   5.339  56.790  1.00  0.00    -0.008 C
HETATM   25  C12 UNL     1      20.047   3.863  57.053  1.00  0.00     0.064 C
BRANCH  24  26
HETATM   26  C13 UNL     1      19.886   5.710  55.375  1.00  0.00     0.052 C
BRANCH  26  27
HETATM   27  C14 UNL     1      19.127   4.961  54.357  1.00  0.00     0.006 C
BRANCH  27  28
HETATM   28  C15 UNL     1      19.929   5.088  53.046  1.00  0.00     0.000 C
BRANCH  28  29
HETATM   29  C16 UNL     1      21.355   5.445  53.327  1.00  0.00    -0.005 C
HETATM   30  C17 UNL     1      22.222   4.496  52.527  1.00  0.00     0.005 C
ENDBRANCH  28  29
ENDBRANCH  27  28
ENDBRANCH  26  27
ENDBRANCH  24  26
ENDBRANCH  21  24
ENDBRANCH  20  21
ENDBRANCH  19  20
ENDBRANCH   5  19
TORSDOF 18
ENDMDL