MODEL 4
REMARK VINA RESULT: -7.706401721      4.801     11.848
REMARK  18 active torsions:
REMARK  status: ('A' for Active; 'I' for Inactive)
REMARK    1  A    between atoms: C2_2  and  C3_3
REMARK    2  A    between atoms: C4_4  and  C5_5
REMARK    3  A    between atoms: C5_5  and  C6_6
REMARK    4  A    between atoms: C6_6  and  C7_7
REMARK    5  A    between atoms: C7_7  and  O1_8
REMARK    6  A    between atoms: O1_8  and  C8_9
REMARK    7  A    between atoms: C8_9  and  C9_10
REMARK    8  A    between atoms: C9_10  and  O2_11
REMARK    9  A    between atoms: O2_11  and  C10_12
REMARK   10  A    between atoms: C10_12  and  C11_13
REMARK   11  A    between atoms: C11_13  and  O3_14
REMARK   12  A    between atoms: O3_14  and  C12_15
REMARK   13  A    between atoms: C12_15  and  C13_16
REMARK   14  A    between atoms: C13_16  and  N1_17
REMARK   15  A    between atoms: C16_20  and  C17_21
REMARK   16  A    between atoms: C17_21  and  C18_22
REMARK   17  A    between atoms: C18_22  and  C19_23
REMARK   18  A    between atoms: C23_27  and  O4_28
ROOT
HETATM    1  C12 UNL     1      20.214   6.584  57.186  1.00  0.00     0.196 C
ENDROOT
BRANCH   1   2
HETATM    2  O3  UNL     1      19.959   6.315  58.523  1.00  0.00    -0.387 OA
BRANCH   2   3
HETATM    3  C11 UNL     1      21.010   5.790  59.227  1.00  0.00     0.193 C
BRANCH   3   4
HETATM    4  C10 UNL     1      21.517   6.923  60.141  1.00  0.00     0.193 C
BRANCH   4   5
HETATM    5  O2  UNL     1      20.442   7.764  60.330  1.00  0.00    -0.387 OA
BRANCH   5   6
HETATM    6  C9  UNL     1      20.606   8.734  61.301  1.00  0.00     0.193 C
BRANCH   6   7
HETATM    7  C8  UNL     1      19.653   9.892  61.074  1.00  0.00     0.193 C
BRANCH   7   8
HETATM    8  O1  UNL     1      18.358   9.419  61.173  1.00  0.00    -0.389 OA
BRANCH   8   9
HETATM    9  C7  UNL     1      17.426  10.413  61.106  1.00  0.00     0.171 C
BRANCH   9  10
HETATM   10  C6  UNL     1      16.050   9.758  60.831  1.00  0.00     0.053 C
BRANCH  10  11
HETATM   11  C5  UNL     1      15.422  10.525  59.730  1.00  0.00    -0.025 C
BRANCH  11  12
HETATM   12  C4  UNL     1      15.516  10.147  58.328  1.00  0.00    -0.008 C
HETATM   13  C3  UNL     1      16.612  10.232  57.415  1.00  0.00    -0.027 C
BRANCH  13  14
HETATM   14  C2  UNL     1      17.894   9.533  57.475  1.00  0.00     0.022 C
HETATM   15  C1  UNL     1      19.151  10.177  57.060  1.00  0.00     0.009 C
ENDBRANCH  13  14
ENDBRANCH  11  12
ENDBRANCH  10  11
ENDBRANCH   9  10
ENDBRANCH   8   9
ENDBRANCH   7   8
ENDBRANCH   6   7
ENDBRANCH   5   6
ENDBRANCH   4   5
ENDBRANCH   3   4
ENDBRANCH   2   3
ENDBRANCH   1   2
BRANCH   1  16
HETATM   16  C13 UNL     1      19.085   6.254  56.282  1.00  0.00     0.266 C
BRANCH  16  17
HETATM   17  N1  UNL     1      19.408   5.194  55.431  1.00  0.00    -0.037 N
HETATM   18  C14 UNL     1      19.515   3.851  55.944  1.00  0.00     0.242 C
HETATM   19  C15 UNL     1      19.864   3.117  54.630  1.00  0.00     0.043 C
HETATM   20  C16 UNL     1      19.913   4.297  53.723  1.00  0.00     0.038 C
HETATM   21  C22 UNL     1      18.713   5.099  54.150  1.00  0.00     0.254 C
HETATM   22  C23 UNL     1      20.628   5.320  54.616  1.00  0.00     0.333 C
BRANCH  20  23
HETATM   23  C17 UNL     1      20.297   4.197  52.346  1.00  0.00     0.016 C
BRANCH  23  24
HETATM   24  C18 UNL     1      20.976   2.857  52.088  1.00  0.00     0.005 C
BRANCH  24  25
HETATM   25  C19 UNL     1      21.691   2.862  50.770  1.00  0.00    -0.014 A
HETATM   26  C20 UNL     1      22.931   3.637  50.587  1.00  0.00     0.005 A
HETATM   27  C21 UNL     1      23.019   2.163  50.746  1.00  0.00     0.005 A
ENDBRANCH  24  25
ENDBRANCH  23  24
ENDBRANCH  20  23
BRANCH  22  28
HETATM   28  O4  UNL     1      21.743   4.715  55.175  1.00  0.00    -0.369 OA
ATOM     29  H4  UNL     1      21.672   3.770  55.247  1.00  0.00     0.212 HD
ENDBRANCH  22  28
ENDBRANCH  16  17
ENDBRANCH   1  16
TORSDOF 18
ENDMDL