MODEL 5
REMARK VINA RESULT: -6.667395452      2.603      2.808
REMARK  3 active torsions:
REMARK  status: ('A' for Active; 'I' for Inactive)
REMARK    1  A    between atoms: C2_2  and  N1_3
REMARK       I    between atoms: N1_3  and  C3_5
REMARK       I    between atoms: C3_5  and  N5_19
REMARK       I    between atoms: N2_6  and  C4_8
REMARK       I    between atoms: C4_8  and  N3_10
REMARK    2  A    between atoms: N3_10  and  N4_12
REMARK       I    between atoms: N4_12  and  C5_14
REMARK    3  A    between atoms: C5_14  and  C6_16
ROOT
HETATM    1  N1  UNL     1      20.548  66.209   7.116  1.00  0.00    -0.226 N
ATOM      2  H1  UNL     1      19.811  65.836   7.713  1.00  0.00     0.177 HD
HETATM    3  C3  UNL     1      21.869  65.669   7.209  1.00  0.00     0.679 C
HETATM    4  N2  UNL     1      22.643  66.200   8.042  1.00  0.00    -0.140 N
ATOM      5  H2  UNL     1      22.229  66.970   8.566  1.00  0.00     0.189 HD
HETATM    6  C4  UNL     1      23.968  65.926   8.379  1.00  0.00     0.353 C
HETATM    7  O1  UNL     1      24.784  65.378   7.619  1.00  0.00    -0.245 OA
HETATM    8  N3  UNL     1      24.395  66.306   9.678  1.00  0.00    -0.248 N
ATOM      9  H3  UNL     1      23.754  66.757  10.332  1.00  0.00     0.192 HD
HETATM   10  N5  UNL     1      22.271  64.589   6.391  1.00  0.00    -0.227 N
HETATM   11  C9  UNL     1      22.337  64.764   4.939  1.00  0.00     0.168 C
HETATM   12  C10 UNL     1      22.628  63.282   6.904  1.00  0.00     0.168 C
ENDROOT
BRANCH   8  13
HETATM   13  N4  UNL     1      25.724  66.042  10.033  1.00  0.00    -0.266 N
HETATM   14  C5  UNL     1      26.235  66.751  11.164  1.00  0.00     0.240 C
HETATM   15  O2  UNL     1      25.528  67.569  11.806  1.00  0.00    -0.271 OA
ATOM     16  H4  UNL     1      26.298  65.379   9.512  1.00  0.00     0.190 HD
BRANCH  14  17
HETATM   17  C6  UNL     1      27.636  66.489  11.561  1.00  0.00     0.080 A
HETATM   18  C7  UNL     1      28.331  65.490  10.670  1.00  0.00     0.015 A
HETATM   19  C8  UNL     1      28.777  66.925  10.704  1.00  0.00     0.015 A
ENDBRANCH  14  17
ENDBRANCH   8  13
BRANCH   1  20
HETATM   20  C2  UNL     1      20.241  67.281   6.181  1.00  0.00     0.133 C
HETATM   21  C1  UNL     1      18.840  67.168   5.661  1.00  0.00     0.027 C
ENDBRANCH   1  20
TORSDOF 3
ENDMDL