MODEL 5
REMARK VINA RESULT: -6.035173822      1.289      2.726
REMARK  5 active torsions:
REMARK  status: ('A' for Active; 'I' for Inactive)
REMARK    1  A    between atoms: C2_2  and  N1_3
REMARK    2  A    between atoms: C8_9  and  N2_10
REMARK    3  A    between atoms: N2_10  and  C9_12
REMARK    4  A    between atoms: C9_12  and  N3_14
REMARK    5  A    between atoms: N3_14  and  N4_16
ROOT
HETATM    1  N1  UNL     1      22.994  65.610   7.919  1.00  0.00    -0.067 N
HETATM    2  C3  UNL     1      22.766  64.504   8.831  1.00  0.00     0.238 C
HETATM    3  C4  UNL     1      23.641  64.528  10.039  1.00  0.00     0.034 C
HETATM    4  C5  UNL     1      24.601  65.651  10.098  1.00  0.00     0.011 C
HETATM    5  C6  UNL     1      23.849  66.935   9.822  1.00  0.00     0.034 C
HETATM    6  C7  UNL     1      22.931  66.836   8.655  1.00  0.00     0.238 C
HETATM    7  C8  UNL     1      25.756  65.592   9.115  1.00  0.00     0.089 C
HETATM    8  C10 UNL     1      25.259  64.667   8.011  1.00  0.00     0.053 C
HETATM    9  C11 UNL     1      24.277  65.462   7.210  1.00  0.00     0.239 C
ENDROOT
BRANCH   7  10
HETATM   10  N2  UNL     1      26.957  65.113   9.726  1.00  0.00    -0.361 N
ATOM     11  H2  UNL     1      27.117  64.109   9.641  1.00  0.00     0.162 HD
BRANCH  10  12
HETATM   12  C9  UNL     1      27.934  65.812  10.418  1.00  0.00     0.186 C
HETATM   13  S1  UNL     1      29.521  65.331  10.231  1.00  0.00    -0.040 SA
BRANCH  12  14
HETATM   14  N3  UNL     1      27.749  66.900  11.275  1.00  0.00    -0.283 N
ATOM     15  H3  UNL     1      27.999  67.818  10.907  1.00  0.00     0.188 HD
BRANCH  14  16
HETATM   16  N4  UNL     1      27.263  66.866  12.571  1.00  0.00    -0.343 N
ATOM     17  H42 UNL     1      27.973  66.828  13.303  1.00  0.00     0.176 HD
ATOM     18  H41 UNL     1      26.285  66.874  12.860  1.00  0.00     0.176 HD
ENDBRANCH  14  16
ENDBRANCH  12  14
ENDBRANCH  10  12
ENDBRANCH   7  10
BRANCH   1  19
HETATM   19  C2  UNL     1      22.008  65.586   6.891  1.00  0.00     0.233 C
HETATM   20  C1  UNL     1      22.335  66.392   5.671  1.00  0.00     0.035 C
ENDBRANCH   1  19
TORSDOF 5
ENDMDL