MODEL 5
REMARK VINA RESULT: -6.312615392      2.862      3.730
REMARK  5 active torsions:
REMARK  status: ('A' for Active; 'I' for Inactive)
REMARK    1  A    between atoms: O1_1  and  C1_3
REMARK    2  A    between atoms: C3_11  and  C4_12
REMARK    3  A    between atoms: C4_12  and  C5_13
REMARK    4  A    between atoms: C5_13  and  C6_14
REMARK    5  A    between atoms: C6_14  and  N3_15
ROOT
HETATM    1  C1  UNL     1      26.198  67.201  11.873  1.00  0.00     0.351 C
HETATM    2  N1  UNL     1      27.484  66.800  12.461  1.00  0.00    -0.023 N
ATOM      3  H11 UNL     1      27.385  66.166  13.254  1.00  0.00     0.282 HD
ATOM      4  H12 UNL     1      27.953  67.556  12.960  1.00  0.00     0.282 HD
HETATM    5  C2  UNL     1      28.264  66.254  11.394  1.00  0.00     0.466 C
HETATM    6  N2  UNL     1      27.403  66.187  10.222  1.00  0.00    -0.043 N
ATOM      7  H21 UNL     1      27.602  65.411   9.590  1.00  0.00     0.279 HD
ATOM      8  H22 UNL     1      27.561  66.922   9.533  1.00  0.00     0.279 HD
HETATM    9  C3  UNL     1      26.100  66.173  10.790  1.00  0.00     0.244 C
ENDROOT
BRANCH   9  10
HETATM   10  C4  UNL     1      24.978  66.368   9.839  1.00  0.00     0.050 C
BRANCH  10  11
HETATM   11  C5  UNL     1      24.798  65.328   8.845  1.00  0.00     0.107 C
BRANCH  11  12
HETATM   12  C6  UNL     1      23.844  64.446   9.094  1.00  0.00    -0.062 C
BRANCH  12  13
HETATM   13  N3  UNL     1      22.882  63.697   9.404  1.00  0.00    -0.295 N
HETATM   14  C7  UNL     1      21.868  63.087   8.622  1.00  0.00     0.115 C
HETATM   15  C8  UNL     1      20.564  63.786   8.808  1.00  0.00     0.028 C
HETATM   16  C11 UNL     1      22.062  61.836   9.492  1.00  0.00     0.112 C
HETATM   17  C9  UNL     1      19.811  63.429  10.049  1.00  0.00     0.013 C
HETATM   18  C10 UNL     1      20.662  63.632  11.312  1.00  0.00     0.086 C
HETATM   19  S1  UNL     1      22.289  63.035  10.843  1.00  0.00    -0.115 SA
ENDBRANCH  12  13
ENDBRANCH  11  12
ENDBRANCH  10  11
ENDBRANCH   9  10
BRANCH   1  20
HETATM   20  O1  UNL     1      26.365  68.486  11.401  1.00  0.00    -0.368 OA
ATOM     21  H1  UNL     1      25.507  68.788  11.128  1.00  0.00     0.212 HD
ENDBRANCH   1  20
TORSDOF 5
ENDMDL