MODEL 5
REMARK VINA RESULT: -6.691334147      0.423      1.508
REMARK  6 active torsions:
REMARK  status: ('A' for Active; 'I' for Inactive)
REMARK    1  A    between atoms: C3_3  and  N1_6
REMARK    2  A    between atoms: N1_6  and  C6_8
REMARK    3  A    between atoms: C7_11  and  N3_12
REMARK    4  A    between atoms: C9_17  and  N5_18
REMARK    5  A    between atoms: N5_18  and  C10_20
REMARK    6  A    between atoms: C10_20  and  C11_21
ROOT
HETATM    1  C1  UNL     1      21.519  63.029   5.281  1.00  0.00     0.015 C
HETATM    2  C2  UNL     1      22.345  63.114   6.154  1.00  0.00    -0.086 C
HETATM    3  C3  UNL     1      23.384  63.210   7.220  1.00  0.00     0.103 C
HETATM    4  C4  UNL     1      22.717  62.764   8.501  1.00  0.00     0.053 C
HETATM    5  C5  UNL     1      24.474  62.245   6.846  1.00  0.00     0.053 C
ENDROOT
BRANCH   3   6
HETATM    6  N1  UNL     1      23.787  64.552   7.355  1.00  0.00    -0.206 N
ATOM      7  H1  UNL     1      24.064  64.971   6.467  1.00  0.00     0.179 HD
BRANCH   6   8
HETATM    8  C6  UNL     1      23.884  65.341   8.309  1.00  0.00     0.708 A
HETATM    9  N2  UNL     1      22.986  66.311   8.504  1.00  0.00    -0.021 N
HETATM   10  C7  UNL     1      23.095  67.177   9.555  1.00  0.00     0.706 A
ATOM     11  H2  UNL     1      22.204  66.407   7.856  1.00  0.00     0.203 HD
HETATM   12  N4  UNL     1      24.125  67.042  10.398  1.00  0.00    -0.022 N
HETATM   13  C9  UNL     1      25.029  66.086  10.221  1.00  0.00     0.707 A
ATOM     14  H4  UNL     1      24.218  67.683  11.186  1.00  0.00     0.203 HD
HETATM   15  N6  UNL     1      24.903  65.235   9.173  1.00  0.00    -0.021 N
ATOM     16  H6  UNL     1      25.598  64.500   9.039  1.00  0.00     0.203 HD
BRANCH  10  17
HETATM   17  N3  UNL     1      22.245  68.103   9.747  1.00  0.00    -0.229 N
HETATM   18  C8  UNL     1      21.389  68.612   8.707  1.00  0.00     0.165 C
ATOM     19  H3  UNL     1      22.166  68.503  10.681  1.00  0.00     0.177 HD
ENDBRANCH  10  17
BRANCH  13  20
HETATM   20  N5  UNL     1      26.000  65.985  11.045  1.00  0.00    -0.222 N
ATOM     21  H5  UNL     1      26.182  65.098  11.513  1.00  0.00     0.178 HD
BRANCH  20  22
HETATM   22  C10 UNL     1      26.839  67.128  11.312  1.00  0.00     0.164 C
BRANCH  22  23
HETATM   23  C11 UNL     1      28.265  66.829  10.989  1.00  0.00    -0.017 C
HETATM   24  C12 UNL     1      28.590  65.593  10.673  1.00  0.00     0.008 C
ENDBRANCH  22  23
ENDBRANCH  20  22
ENDBRANCH  13  20
ENDBRANCH   6   8
ENDBRANCH   3   6
TORSDOF 6
ENDMDL