MODEL 5
REMARK VINA RESULT: -6.591797728      2.882      5.107
REMARK  4 active torsions:
REMARK  status: ('A' for Active; 'I' for Inactive)
REMARK    1  A    between atoms: C3_5  and  N2_6
REMARK    2  A    between atoms: C3_5  and  C8_12
REMARK    3  A    between atoms: N2_6  and  C4_8
REMARK    4  A    between atoms: C10_14  and  C11_15
ROOT
HETATM    1  C1  UNL     1      20.964  64.722   5.595  1.00  0.00     0.123 C
HETATM    2  C2  UNL     1      21.987  65.116   6.150  1.00  0.00    -0.074 C
HETATM    3  N1  UNL     1      23.144  65.588   6.763  1.00  0.00    -0.314 N
ATOM      4  H1  UNL     1      23.860  66.024   6.183  1.00  0.00     0.176 HD
HETATM    5  C3  UNL     1      23.348  65.498   8.031  1.00  0.00     0.108 C
ENDROOT
BRANCH   5   6
HETATM    6  N2  UNL     1      22.327  64.884   8.801  1.00  0.00    -0.369 N
ATOM      7  H2  UNL     1      21.530  65.443   9.105  1.00  0.00     0.161 HD
BRANCH   6   8
HETATM    8  C4  UNL     1      22.387  63.511   9.159  1.00  0.00     0.020 C
HETATM    9  C5  UNL     1      23.262  62.661   8.263  1.00  0.00     0.037 C
HETATM   10  C6  UNL     1      22.887  63.368  10.574  1.00  0.00     0.037 C
HETATM   11  C7  UNL     1      20.968  62.903   9.106  1.00  0.00     0.037 C
ENDBRANCH   6   8
ENDBRANCH   5   6
BRANCH   5  12
HETATM   12  C8  UNL     1      24.607  66.060   8.575  1.00  0.00     0.156 C
HETATM   13  C9  UNL     1      25.680  65.025   8.418  1.00  0.00     0.062 C
HETATM   14  C10 UNL     1      26.742  65.055   9.457  1.00  0.00     0.110 C
HETATM   15  N3  UNL     1      26.744  66.187  10.319  1.00  0.00    -0.335 N
HETATM   16  C13 UNL     1      25.512  66.741  10.751  1.00  0.00     0.317 C
ATOM     17  H3  UNL     1      27.626  66.597  10.624  1.00  0.00     0.164 HD
HETATM   18  O1  UNL     1      25.401  67.449  11.781  1.00  0.00    -0.247 OA
HETATM   19  N4  UNL     1      24.376  66.448   9.936  1.00  0.00    -0.332 N
ATOM     20  H4  UNL     1      23.430  66.513  10.311  1.00  0.00     0.165 HD
BRANCH  14  21
HETATM   21  C11 UNL     1      28.101  64.891   8.827  1.00  0.00    -0.012 C
HETATM   22  C12 UNL     1      29.182  64.859   9.596  1.00  0.00     0.009 C
ENDBRANCH  14  21
ENDBRANCH   5  12
TORSDOF 4
ENDMDL