MODEL 1
REMARK VINA RESULT: -7.330185757      0.000      0.000
REMARK  2 active torsions:
REMARK  status: ('A' for Active; 'I' for Inactive)
REMARK       I    between atoms: N1_3  and  C3_5
REMARK       I    between atoms: C3_5  and  N3_9
REMARK    1  A    between atoms: C7_13  and  C8_14
REMARK       I    between atoms: C8_14  and  N4_16
REMARK    2  A    between atoms: N4_16  and  C9_18
ROOT
HETATM    1  C1  UNL     1      16.782  67.175   8.883  1.00  0.00     0.037 C
HETATM    2  C2  UNL     1      17.836  67.703   9.172  1.00  0.00     0.015 C
HETATM    3  N1  UNL     1      19.057  68.313   9.488  1.00  0.00    -0.150 N
ATOM      4  H1  UNL     1      19.340  68.362  10.467  1.00  0.00     0.195 HD
HETATM    5  C3  UNL     1      19.916  68.867   8.504  1.00  0.00     0.682 C
HETATM    6  N2  UNL     1      20.884  69.636   8.902  1.00  0.00    -0.234 N
ATOM      7  H21 UNL     1      21.502  70.034   8.194  1.00  0.00     0.174 HD
ATOM      8  H22 UNL     1      20.975  69.796   9.905  1.00  0.00     0.174 HD
HETATM    9  N3  UNL     1      19.792  68.647   7.126  1.00  0.00    -0.204 N
HETATM   10  C4  UNL     1      18.966  69.393   6.211  1.00  0.00     0.142 C
HETATM   11  C5  UNL     1      18.451  68.311   5.288  1.00  0.00     0.023 C
HETATM   12  C6  UNL     1      19.281  67.076   5.564  1.00  0.00     0.037 C
HETATM   13  C7  UNL     1      20.446  67.655   6.336  1.00  0.00     0.194 C
ENDROOT
BRANCH  13  14
HETATM   14  C8  UNL     1      21.237  66.666   7.046  1.00  0.00     0.241 C
HETATM   15  O1  UNL     1      20.671  65.632   7.476  1.00  0.00    -0.271 OA
HETATM   16  N4  UNL     1      22.627  66.768   7.305  1.00  0.00    -0.355 N
ATOM     17  H4  UNL     1      23.111  67.599   6.967  1.00  0.00     0.162 HD
BRANCH  16  18
HETATM   18  C9  UNL     1      23.396  65.793   8.003  1.00  0.00     0.084 C
HETATM   19  C10 UNL     1      24.245  66.373   9.112  1.00  0.00     0.025 C
HETATM   20  C11 UNL     1      25.489  65.512   9.198  1.00  0.00     0.002 C
HETATM   21  C12 UNL     1      25.273  64.388   8.184  1.00  0.00     0.002 C
HETATM   22  C13 UNL     1      24.421  65.097   7.151  1.00  0.00     0.025 C
ENDBRANCH  16  18
ENDBRANCH  13  14
TORSDOF 2
ENDMDL