MODEL 4
REMARK VINA RESULT: -7.624286111      3.456      5.830
REMARK  2 active torsions:
REMARK  status: ('A' for Active; 'I' for Inactive)
REMARK       I    between atoms: N2_6  and  C4_8
REMARK       I    between atoms: C4_8  and  N4_12
REMARK    1  A    between atoms: N4_12  and  C6_14
REMARK    2  A    between atoms: C6_14  and  C7_15
ROOT
HETATM    1  C7  UNL     1      27.199  64.467   2.232  1.00  0.00     0.144 C
HETATM    2  C8  UNL     1      28.449  64.896   2.905  1.00  0.00     0.060 C
HETATM    3  N5  UNL     1      29.424  65.241   3.428  1.00  0.00    -0.197 NA
ENDROOT
BRANCH   1   4
HETATM    4  C6  UNL     1      26.139  64.372   3.322  1.00  0.00     0.152 C
BRANCH   4   5
HETATM    5  N4  UNL     1      26.664  64.535   4.639  1.00  0.00    -0.225 N
HETATM    6  C4  UNL     1      26.094  63.903   5.790  1.00  0.00     0.675 C
HETATM    7  N2  UNL     1      25.351  64.619   6.696  1.00  0.00    -0.176 N
HETATM    8  N3  UNL     1      26.297  62.612   5.942  1.00  0.00    -0.231 N
HETATM    9  C3  UNL     1      25.409  65.137   7.801  1.00  0.00     0.130 A
ATOM     10  H2  UNL     1      24.420  64.774   6.309  1.00  0.00     0.186 HD
HETATM   11  N1  UNL     1      24.216  65.808   8.271  1.00  0.00    -0.328 N
HETATM   12  C9  UNL     1      26.562  65.132   8.672  1.00  0.00     0.005 A
HETATM   13  C2  UNL     1      24.191  66.430   9.534  1.00  0.00     0.097 A
ATOM     14  H1  UNL     1      23.385  65.829   7.682  1.00  0.00     0.169 HD
HETATM   15  C1  UNL     1      23.097  67.059   9.993  1.00  0.00     0.063 C
HETATM   16  N6  UNL     1      25.360  66.383  10.333  1.00  0.00    -0.346 N
HETATM   17  C11 UNL     1      26.517  65.726   9.864  1.00  0.00     0.016 A
ATOM     18  H6  UNL     1      25.366  66.826  11.252  1.00  0.00     0.167 HD
HETATM   19  C12 UNL     1      27.727  65.702  10.742  1.00  0.00     0.069 C
HETATM   20  C10 UNL     1      27.863  64.472   8.306  1.00  0.00     0.054 C
HETATM   21  C5  UNL     1      27.075  61.841   5.002  1.00  0.00     0.165 C
ATOM     22  H3  UNL     1      25.891  62.140   6.750  1.00  0.00     0.177 HD
ATOM     23  H4  UNL     1      27.484  65.129   4.766  1.00  0.00     0.177 HD
ENDBRANCH   4   5
ENDBRANCH   1   4
TORSDOF 2
ENDMDL