MODEL 4
REMARK VINA RESULT: -6.558311461     10.092     11.357
REMARK  3 active torsions:
REMARK  status: ('A' for Active; 'I' for Inactive)
REMARK    1  A    between atoms: C2_2  and  N1_3
REMARK       I    between atoms: N1_3  and  C3_5
REMARK       I    between atoms: C3_5  and  N2_7
REMARK       I    between atoms: C4_9  and  N3_10
REMARK       I    between atoms: C4_9  and  N5_16
REMARK    2  A    between atoms: C5_12  and  C6_13
REMARK    3  A    between atoms: N5_16  and  C7_18
ROOT
HETATM    1  N1  UNL     1      28.400  65.905   1.762  1.00  0.00    -0.343 N
ATOM      2  H1  UNL     1      28.150  66.420   0.917  1.00  0.00     0.164 HD
HETATM    3  C3  UNL     1      29.613  66.170   2.412  1.00  0.00     0.334 C
HETATM    4  O1  UNL     1      29.919  65.542   3.448  1.00  0.00    -0.247 OA
HETATM    5  N2  UNL     1      30.496  67.146   1.907  1.00  0.00    -0.141 N
ATOM      6  H2  UNL     1      30.150  68.071   1.654  1.00  0.00     0.189 HD
HETATM    7  C4  UNL     1      31.741  66.858   1.769  1.00  0.00     0.682 C
HETATM    8  N3  UNL     1      32.572  67.891   1.254  1.00  0.00    -0.197 N
ATOM      9  H3  UNL     1      33.317  67.681   0.590  1.00  0.00     0.183 HD
HETATM   10  C5  UNL     1      32.360  69.101   1.648  1.00  0.00     0.176 C
HETATM   11  N5  UNL     1      32.212  65.590   2.115  1.00  0.00    -0.218 N
ATOM     12  H5  UNL     1      31.687  64.756   1.850  1.00  0.00     0.178 HD
ENDROOT
BRANCH  11  13
HETATM   13  C7  UNL     1      33.452  65.469   2.854  1.00  0.00     0.036 C
HETATM   14  C8  UNL     1      33.398  64.147   3.593  1.00  0.00     0.038 C
HETATM   15  C9  UNL     1      34.635  65.491   1.884  1.00  0.00     0.038 C
HETATM   16  C10 UNL     1      33.672  66.579   3.834  1.00  0.00     0.038 C
ENDBRANCH  11  13
BRANCH  10  17
HETATM   17  C6  UNL     1      33.183  70.196   1.150  1.00  0.00     0.270 C
HETATM   18  N4  UNL     1      34.586  70.194   1.318  1.00  0.00    -0.057 NA
HETATM   19  O2  UNL     1      32.647  71.150   0.568  1.00  0.00    -0.270 OA
ENDBRANCH  10  17
BRANCH   1  20
HETATM   20  C2  UNL     1      27.489  64.888   2.295  1.00  0.00     0.120 C
HETATM   21  C1  UNL     1      26.245  65.528   2.846  1.00  0.00     0.026 C
ENDBRANCH   1  20
TORSDOF 3
ENDMDL