MODEL 1
REMARK VINA RESULT: -7.657243604      0.000      0.000
REMARK  2 active torsions:
REMARK  status: ('A' for Active; 'I' for Inactive)
REMARK       I    between atoms: C3_3  and  N1_5
REMARK    1  A    between atoms: N1_5  and  C4_7
REMARK    2  A    between atoms: C12_18  and  C13_19
ROOT
HETATM    1  C1  UNL     1      20.645  69.504   8.425  1.00  0.00     0.022 C
HETATM    2  C2  UNL     1      21.132  68.545   8.963  1.00  0.00    -0.017 C
HETATM    3  C3  UNL     1      21.730  67.384   9.603  1.00  0.00     0.296 C
HETATM    4  O1  UNL     1      21.349  67.162  10.778  1.00  0.00    -0.258 OA
HETATM    5  N1  UNL     1      22.673  66.575   8.935  1.00  0.00    -0.339 N
ATOM      6  H1  UNL     1      22.940  66.809   7.979  1.00  0.00     0.164 HD
ENDROOT
BRANCH   5   7
HETATM    7  C4  UNL     1      23.257  65.445   9.560  1.00  0.00     0.159 C
HETATM    8  C5  UNL     1      24.637  65.125   9.139  1.00  0.00    -0.011 C
HETATM    9  C6  UNL     1      25.799  65.581   9.524  1.00  0.00    -0.003 C
HETATM   10  C10 UNL     1      24.464  64.084   8.093  1.00  0.00     0.215 C
HETATM   11  C7  UNL     1      27.084  65.106   8.952  1.00  0.00     0.059 C
HETATM   12  C8  UNL     1      25.818  66.589  10.551  1.00  0.00    -0.082 C
HETATM   13  C9  UNL     1      25.857  67.442  11.421  1.00  0.00     0.017 C
HETATM   14  C11 UNL     1      23.981  64.617   6.783  1.00  0.00     0.045 C
HETATM   15  N2  UNL     1      23.490  63.222   8.753  1.00  0.00    -0.051 N
HETATM   16  C12 UNL     1      22.525  64.151   9.306  1.00  0.00     0.313 C
ATOM     17  H22 UNL     1      23.086  62.505   8.150  1.00  0.00     0.279 HD
ATOM     18  H21 UNL     1      23.891  62.578   9.434  1.00  0.00     0.279 HD
BRANCH  16  19
HETATM   19  C13 UNL     1      21.979  63.566  10.552  1.00  0.00     0.207 C
HETATM   20  O2  UNL     1      20.803  63.819  10.915  1.00  0.00    -0.646 OA
HETATM   21  O3  UNL     1      22.716  62.722  11.376  1.00  0.00    -0.646 OA
ENDBRANCH  16  19
ENDBRANCH   5   7
TORSDOF 2
ENDMDL