MODEL 5
REMARK VINA RESULT: -7.618297175      2.851      3.626
REMARK  13 active torsions:
REMARK  status: ('A' for Active; 'I' for Inactive)
REMARK    1  A    between atoms: C2_2  and  C3_3
REMARK    2  A    between atoms: C3_3  and  C4_4
REMARK    3  A    between atoms: C4_4  and  C5_5
REMARK    4  A    between atoms: C5_5  and  C6_6
REMARK    5  A    between atoms: C6_6  and  C7_7
REMARK    6  A    between atoms: C7_7  and  C8_8
REMARK    7  A    between atoms: C8_8  and  C9_9
REMARK    8  A    between atoms: C9_9  and  N1_11
REMARK    9  A    between atoms: N1_11  and  C11_13
REMARK   10  A    between atoms: C11_13  and  C12_14
REMARK   11  A    between atoms: C12_14  and  N2_15
REMARK   12  A    between atoms: N2_15  and  C13_17
REMARK   13  A    between atoms: C16_20  and  N3_21
ROOT
HETATM    1  C11 UNL     1      28.689   7.447  14.263  1.00  0.00     0.075 C
ENDROOT
BRANCH   1   2
HETATM    2  N1  UNL     1      29.821   7.209  13.492  1.00  0.00    -0.396 N
ATOM      3  H1  UNL     1      29.851   7.568  12.538  1.00  0.00     0.159 HD
BRANCH   2   4
HETATM    4  C9  UNL     1      30.924   6.492  13.980  1.00  0.00     0.076 C
HETATM    5  C10 UNL     1      31.401   6.857  15.349  1.00  0.00     0.032 C
BRANCH   4   6
HETATM    6  C8  UNL     1      30.683   4.988  13.960  1.00  0.00     0.024 C
BRANCH   6   7
HETATM    7  C7  UNL     1      31.340   4.301  12.804  1.00  0.00     0.002 C
BRANCH   7   8
HETATM    8  C6  UNL     1      32.786   4.699  12.627  1.00  0.00     0.000 C
BRANCH   8   9
HETATM    9  C5  UNL     1      33.565   3.706  11.793  1.00  0.00     0.000 C
BRANCH   9  10
HETATM   10  C4  UNL     1      35.038   4.012  11.744  1.00  0.00     0.004 C
BRANCH  10  11
HETATM   11  C3  UNL     1      35.759   2.835  11.160  1.00  0.00     0.026 C
BRANCH  11  12
HETATM   12  C2  UNL     1      37.171   2.809  11.588  1.00  0.00    -0.037 C
HETATM   13  C1  UNL     1      38.096   3.363  10.825  1.00  0.00     0.007 C
ENDBRANCH  11  12
ENDBRANCH  10  11
ENDBRANCH   9  10
ENDBRANCH   8   9
ENDBRANCH   7   8
ENDBRANCH   6   7
ENDBRANCH   4   6
ENDBRANCH   2   4
ENDBRANCH   1   2
BRANCH   1  14
HETATM   14  C12 UNL     1      28.146   8.840  14.344  1.00  0.00     0.164 C
BRANCH  14  15
HETATM   15  N2  UNL     1      26.699   8.830  14.060  1.00  0.00    -0.385 N
ATOM     16  H2  UNL     1      26.340   8.474  13.175  1.00  0.00     0.160 HD
BRANCH  15  17
HETATM   17  C13 UNL     1      25.824   9.329  15.052  1.00  0.00     0.028 A
HETATM   18  C14 UNL     1      26.243   9.568  16.339  1.00  0.00     0.031 A
HETATM   19  C15 UNL     1      25.401  10.053  17.314  1.00  0.00     0.038 A
HETATM   20  C16 UNL     1      24.062  10.327  17.018  1.00  0.00     0.103 A
HETATM   21  C17 UNL     1      23.620  10.095  15.728  1.00  0.00     0.038 A
HETATM   22  C18 UNL     1      24.485   9.608  14.774  1.00  0.00     0.031 A
BRANCH  20  23
HETATM   23  N3  UNL     1      23.214  10.825  18.027  1.00  0.00    -0.116 N
HETATM   24  O1  UNL     1      22.652  10.055  18.815  1.00  0.00    -0.532 OA
HETATM   25  O2  UNL     1      23.010  12.170  18.133  1.00  0.00    -0.532 OA
ENDBRANCH  20  23
ENDBRANCH  15  17
ENDBRANCH  14  15
ENDBRANCH   1  14
TORSDOF 13
ENDMDL