MODEL 4
REMARK VINA RESULT: -6.300925537      3.896      6.320
REMARK  14 active torsions:
REMARK  status: ('A' for Active; 'I' for Inactive)
REMARK    1  A    between atoms: C2_2  and  C3_3
REMARK    2  A    between atoms: C3_3  and  C4_4
REMARK    3  A    between atoms: C4_4  and  C5_5
REMARK    4  A    between atoms: C4_4  and  C8_8
REMARK    5  A    between atoms: C4_4  and  C12_16
REMARK    6  A    between atoms: C5_5  and  C6_6
REMARK    7  A    between atoms: C8_8  and  C9_9
REMARK    8  A    between atoms: C9_9  and  C10_10
REMARK    9  A    between atoms: C10_10  and  C11_11
REMARK   10  A    between atoms: C11_11  and  N1_12
REMARK   11  A    between atoms: C12_16  and  C13_17
REMARK   12  A    between atoms: C13_17  and  O1_18
REMARK   13  A    between atoms: O1_18  and  N2_19
REMARK   14  A    between atoms: N2_19  and  C14_21
ROOT
HETATM    1  C4  UNL     1      31.823   5.515  14.430  1.00  0.00    -0.038 C
ENDROOT
BRANCH   1   2
HETATM    2  C3  UNL     1      32.050   6.958  14.597  1.00  0.00     0.009 C
BRANCH   2   3
HETATM    3  C2  UNL     1      32.048   7.589  15.916  1.00  0.00    -0.004 C
HETATM    4  C1  UNL     1      31.382   8.975  15.748  1.00  0.00     0.005 C
ENDBRANCH   2   3
ENDBRANCH   1   2
BRANCH   1   5
HETATM    5  C5  UNL     1      32.254   4.651  15.573  1.00  0.00     0.009 C
BRANCH   5   6
HETATM    6  C6  UNL     1      33.576   3.989  15.388  1.00  0.00    -0.004 C
HETATM    7  C7  UNL     1      33.973   3.242  16.653  1.00  0.00     0.005 C
ENDBRANCH   5   6
ENDBRANCH   1   5
BRANCH   1   8
HETATM    8  C8  UNL     1      32.834   5.206  13.229  1.00  0.00     0.010 C
BRANCH   8   9
HETATM    9  C9  UNL     1      32.262   4.279  12.254  1.00  0.00     0.002 C
BRANCH   9  10
HETATM   10  C10 UNL     1      33.172   3.150  11.865  1.00  0.00     0.027 C
BRANCH  10  11
HETATM   11  C11 UNL     1      34.571   3.494  11.490  1.00  0.00     0.229 C
BRANCH  11  12
HETATM   12  N1  UNL     1      35.455   2.439  11.165  1.00  0.00    -0.079 N
ATOM     13  H13 UNL     1      36.115   2.310  11.931  1.00  0.00     0.274 HD
ATOM     14  H12 UNL     1      34.945   1.556  11.197  1.00  0.00     0.274 HD
ATOM     15  H11 UNL     1      35.970   2.494  10.287  1.00  0.00     0.274 HD
ENDBRANCH  11  12
ENDBRANCH  10  11
ENDBRANCH   9  10
ENDBRANCH   8   9
ENDBRANCH   1   8
BRANCH   1  16
HETATM   16  C12 UNL     1      30.513   5.142  13.874  1.00  0.00     0.038 C
BRANCH  16  17
HETATM   17  C13 UNL     1      29.307   5.944  14.198  1.00  0.00     0.202 C
BRANCH  17  18
HETATM   18  O1  UNL     1      29.039   6.712  12.982  1.00  0.00    -0.278 OA
BRANCH  18  19
HETATM   19  N2  UNL     1      28.913   8.054  13.127  1.00  0.00    -0.244 N
ATOM     20  H2  UNL     1      29.663   8.618  13.528  1.00  0.00     0.196 HD
BRANCH  19  21
HETATM   21  C14 UNL     1      27.783   8.599  12.729  1.00  0.00     0.168 A
HETATM   22  N3  UNL     1      26.658   8.779  13.420  1.00  0.00    -0.345 N
HETATM   23  C15 UNL     1      25.642   9.345  12.834  1.00  0.00     0.097 A
ATOM     24  H3  UNL     1      26.594   8.477  14.391  1.00  0.00     0.167 HD
HETATM   25  C16 UNL     1      25.788   9.728  11.526  1.00  0.00     0.070 A
HETATM   26  S1  UNL     1      27.393   9.253  11.195  1.00  0.00    -0.063 SA
ENDBRANCH  19  21
ENDBRANCH  18  19
ENDBRANCH  17  18
ENDBRANCH  16  17
ENDBRANCH   1  16
TORSDOF 14
ENDMDL