MODEL 3
REMARK VINA RESULT: -7.119134385      1.798      2.485
REMARK  15 active torsions:
REMARK  status: ('A' for Active; 'I' for Inactive)
REMARK    1  A    between atoms: C2_2  and  O1_3
REMARK    2  A    between atoms: C2_2  and  C3_5
REMARK    3  A    between atoms: C3_5  and  C4_6
REMARK    4  A    between atoms: C4_6  and  C5_7
REMARK    5  A    between atoms: C5_7  and  C6_8
REMARK    6  A    between atoms: C7_9  and  C8_10
REMARK    7  A    between atoms: C9_11  and  C11_13
REMARK    8  A    between atoms: C11_13  and  C12_14
REMARK    9  A    between atoms: C12_14  and  C13_15
REMARK   10  A    between atoms: C13_15  and  O2_16
REMARK   11  A    between atoms: C13_15  and  C14_18
REMARK   12  A    between atoms: C14_18  and  C15_19
REMARK   13  A    between atoms: C15_19  and  C16_20
REMARK   14  A    between atoms: C16_20  and  C17_21
REMARK   15  A    between atoms: C17_21  and  C18_22
ROOT
HETATM    1  C8  UNL     1      31.068   6.343  14.676  1.00  0.00     0.002 C
HETATM    2  C9  UNL     1      31.191   7.546  15.180  1.00  0.00    -0.084 C
HETATM    3  C10 UNL     1      32.524   8.028  15.591  1.00  0.00     0.043 C
ENDROOT
BRANCH   2   4
HETATM    4  C11 UNL     1      30.017   8.423  15.341  1.00  0.00     0.036 C
BRANCH   4   5
HETATM    5  C12 UNL     1      28.835   7.748  14.655  1.00  0.00     0.036 C
BRANCH   5   6
HETATM    6  C13 UNL     1      28.193   8.718  13.651  1.00  0.00     0.118 C
BRANCH   6   7
HETATM    7  O2  UNL     1      28.351   8.086  12.393  1.00  0.00    -0.396 OA
ATOM      8  H2  UNL     1      28.717   8.758  11.832  1.00  0.00     0.210 HD
ENDBRANCH   6   7
BRANCH   6   9
HETATM    9  C14 UNL     1      26.737   8.849  13.913  1.00  0.00     0.032 C
BRANCH   9  10
HETATM   10  C15 UNL     1      26.270   8.638  15.292  1.00  0.00     0.003 C
BRANCH  10  11
HETATM   11  C16 UNL     1      26.250   9.795  16.212  1.00  0.00     0.007 C
BRANCH  11  12
HETATM   12  C17 UNL     1      26.776   9.321  17.576  1.00  0.00     0.077 C
BRANCH  12  13
HETATM   13  C18 UNL     1      25.792   9.554  18.649  1.00  0.00     0.123 C
HETATM   14  C19 UNL     1      24.520  10.255  18.336  1.00  0.00     0.091 C
HETATM   15  O3  UNL     1      25.990   9.190  19.788  1.00  0.00    -0.298 OA
ENDBRANCH  12  13
ENDBRANCH  11  12
ENDBRANCH  10  11
ENDBRANCH   9  10
ENDBRANCH   6   9
ENDBRANCH   5   6
ENDBRANCH   4   5
ENDBRANCH   2   4
BRANCH   1  16
HETATM   16  C7  UNL     1      32.256   5.465  14.516  1.00  0.00    -0.004 C
HETATM   17  C6  UNL     1      32.469   4.831  13.400  1.00  0.00    -0.027 C
BRANCH  17  18
HETATM   18  C5  UNL     1      33.593   3.950  13.147  1.00  0.00     0.027 C
BRANCH  18  19
HETATM   19  C4  UNL     1      34.082   3.893  11.748  1.00  0.00     0.010 C
BRANCH  19  20
HETATM   20  C3  UNL     1      35.459   4.392  11.499  1.00  0.00     0.063 C
BRANCH  20  21
HETATM   21  C2  UNL     1      36.373   3.234  11.212  1.00  0.00     0.034 C
HETATM   22  C1  UNL     1      37.674   3.433  11.097  1.00  0.00     0.045 C
BRANCH  21  23
HETATM   23  O1  UNL     1      35.815   1.988  11.079  1.00  0.00    -0.366 OA
ATOM     24  H1  UNL     1      35.037   1.840  10.555  1.00  0.00     0.217 HD
ENDBRANCH  21  23
ENDBRANCH  20  21
ENDBRANCH  19  20
ENDBRANCH  18  19
ENDBRANCH  17  18
ENDBRANCH   1  16
TORSDOF 15
ENDMDL