MODEL 2
REMARK VINA RESULT: -7.281137526      0.549      1.331
REMARK  14 active torsions:
REMARK  status: ('A' for Active; 'I' for Inactive)
REMARK    1  A    between atoms: C2_2  and  C3_3
REMARK    2  A    between atoms: C3_3  and  C4_4
REMARK    3  A    between atoms: C4_4  and  C5_5
REMARK    4  A    between atoms: C5_5  and  C6_6
REMARK    5  A    between atoms: C6_6  and  O1_7
REMARK    6  A    between atoms: C6_6  and  C7_9
REMARK    7  A    between atoms: C7_9  and  C8_10
REMARK    8  A    between atoms: C8_10  and  S1_11
REMARK    9  A    between atoms: S1_11  and  C9_12
REMARK   10  A    between atoms: C9_12  and  C10_13
REMARK   11  A    between atoms: C10_13  and  C11_14
REMARK   12  A    between atoms: C13_17  and  C14_18
REMARK   13  A    between atoms: C14_18  and  C15_19
REMARK   14  A    between atoms: C17_21  and  O3_22
ROOT
HETATM    1  C9  UNL     1      30.726   8.844  15.702  1.00  0.00     0.080 C
ENDROOT
BRANCH   1   2
HETATM    2  S1  UNL     1      32.228   7.848  15.473  1.00  0.00    -0.169 SA
BRANCH   2   3
HETATM    3  C8  UNL     1      31.735   6.142  15.093  1.00  0.00     0.076 C
BRANCH   3   4
HETATM    4  C7  UNL     1      32.009   5.803  13.623  1.00  0.00     0.042 C
BRANCH   4   5
HETATM    5  C6  UNL     1      31.143   4.602  13.311  1.00  0.00     0.118 C
BRANCH   5   6
HETATM    6  C5  UNL     1      31.663   3.774  12.193  1.00  0.00     0.032 C
BRANCH   6   7
HETATM    7  C4  UNL     1      33.023   3.227  12.277  1.00  0.00     0.006 C
BRANCH   7   8
HETATM    8  C3  UNL     1      34.092   3.669  11.370  1.00  0.00     0.026 C
BRANCH   8   9
HETATM    9  C2  UNL     1      35.404   4.013  11.911  1.00  0.00    -0.037 C
HETATM   10  C1  UNL     1      36.554   3.442  11.553  1.00  0.00     0.007 C
ENDBRANCH   8   9
ENDBRANCH   7   8
ENDBRANCH   6   7
ENDBRANCH   5   6
BRANCH   5  11
HETATM   11  O1  UNL     1      29.881   5.106  12.871  1.00  0.00    -0.396 OA
ATOM     12  H1  UNL     1      29.508   4.427  12.320  1.00  0.00     0.210 HD
ENDBRANCH   5  11
ENDBRANCH   4   5
ENDBRANCH   3   4
ENDBRANCH   2   3
ENDBRANCH   1   2
BRANCH   1  13
HETATM   13  C10 UNL     1      29.523   7.894  15.829  1.00  0.00     0.078 C
BRANCH  13  14
HETATM   14  C11 UNL     1      28.432   8.342  14.916  1.00  0.00     0.086 A
HETATM   15  O2  UNL     1      27.207   8.720  15.164  1.00  0.00    -0.324 OA
HETATM   16  C12 UNL     1      26.577   9.034  14.049  1.00  0.00     0.152 A
HETATM   17  C13 UNL     1      27.417   8.863  12.975  1.00  0.00    -0.000 A
HETATM   18  C17 UNL     1      28.617   8.415  13.536  1.00  0.00     0.103 A
BRANCH  17  19
HETATM   19  C14 UNL     1      27.076   9.112  11.583  1.00  0.00     0.043 C
BRANCH  19  20
HETATM   20  C15 UNL     1      25.618   9.218  11.277  1.00  0.00     0.000 C
HETATM   21  C16 UNL     1      25.246  10.626  10.953  1.00  0.00     0.005 C
ENDBRANCH  19  20
ENDBRANCH  17  19
BRANCH  18  22
HETATM   22  O3  UNL     1      29.723   8.125  12.778  1.00  0.00    -0.358 OA
ATOM     23  H3  UNL     1      30.180   8.656  12.137  1.00  0.00     0.217 HD
ENDBRANCH  18  22
ENDBRANCH  13  14
ENDBRANCH   1  13
TORSDOF 14
ENDMDL