MODEL 4
REMARK VINA RESULT: -6.676677369      1.397      3.729
REMARK  12 active torsions:
REMARK  status: ('A' for Active; 'I' for Inactive)
REMARK    1  A    between atoms: C2_2  and  C3_3
REMARK    2  A    between atoms: C4_4  and  C5_5
REMARK    3  A    between atoms: C5_5  and  C6_6
REMARK    4  A    between atoms: C5_5  and  N1_10
REMARK    5  A    between atoms: C6_6  and  C7_7
REMARK    6  A    between atoms: C7_7  and  C8_8
REMARK    7  A    between atoms: N1_10  and  C10_12
REMARK    8  A    between atoms: C10_12  and  C11_13
REMARK    9  A    between atoms: C13_16  and  N2_17
REMARK   10  A    between atoms: N2_17  and  C14_19
REMARK   11  A    between atoms: C14_19  and  C15_20
REMARK   12  A    between atoms: C15_20  and  O1_21
ROOT
HETATM    1  C10 UNL     1      29.243   8.457  13.171  1.00  0.00     0.154 C
ENDROOT
BRANCH   1   2
HETATM    2  N1  UNL     1      29.279   7.044  13.439  1.00  0.00    -0.410 N
ATOM      3  H1  UNL     1      28.805   6.365  12.843  1.00  0.00     0.154 HD
BRANCH   2   4
HETATM    4  C5  UNL     1      30.023   6.654  14.600  1.00  0.00     0.099 C
BRANCH   4   5
HETATM    5  C4  UNL     1      31.175   7.595  14.725  1.00  0.00    -0.006 C
HETATM    6  C3  UNL     1      31.355   8.398  15.740  1.00  0.00    -0.029 C
BRANCH   6   7
HETATM    7  C2  UNL     1      30.462   8.514  16.924  1.00  0.00     0.022 C
HETATM    8  C1  UNL     1      31.226   8.990  18.149  1.00  0.00     0.009 C
ENDBRANCH   6   7
ENDBRANCH   4   5
BRANCH   4   9
HETATM    9  C6  UNL     1      30.463   5.234  14.465  1.00  0.00     0.029 C
BRANCH   9  10
HETATM   10  C7  UNL     1      31.659   5.177  13.550  1.00  0.00     0.002 C
BRANCH  10  11
HETATM   11  C8  UNL     1      31.388   4.065  12.544  1.00  0.00    -0.004 C
HETATM   12  C9  UNL     1      32.736   3.579  12.064  1.00  0.00     0.005 C
ENDBRANCH  10  11
ENDBRANCH   9  10
ENDBRANCH   4   9
ENDBRANCH   2   4
ENDBRANCH   1   2
BRANCH   1  13
HETATM   13  C11 UNL     1      27.770   8.770  12.978  1.00  0.00    -0.032 A
HETATM   14  C12 UNL     1      27.290   9.064  11.737  1.00  0.00     0.060 A
HETATM   15  S1  UNL     1      25.632   9.338  12.018  1.00  0.00    -0.084 SA
HETATM   16  C13 UNL     1      25.590   9.072  13.700  1.00  0.00     0.070 A
HETATM   17  C17 UNL     1      26.890   8.774  14.002  1.00  0.00     0.046 A
BRANCH  16  18
HETATM   18  N2  UNL     1      24.466   9.141  14.603  1.00  0.00    -0.382 N
ATOM     19  H2  UNL     1      23.543   9.385  14.247  1.00  0.00     0.160 HD
BRANCH  18  20
HETATM   20  C14 UNL     1      24.641   8.868  15.990  1.00  0.00     0.146 C
BRANCH  20  21
HETATM   21  C15 UNL     1      24.445  10.040  16.902  1.00  0.00     0.186 C
BRANCH  21  22
HETATM   22  O1  UNL     1      24.459   9.655  18.236  1.00  0.00    -0.394 OA
HETATM   23  C16 UNL     1      25.761   9.636  18.710  1.00  0.00     0.201 C
ENDBRANCH  21  22
ENDBRANCH  20  21
ENDBRANCH  18  20
ENDBRANCH  16  18
ENDBRANCH   1  13
TORSDOF 12
ENDMDL