MODEL 4
REMARK VINA RESULT: -7.044924595      2.564      8.415
REMARK  14 active torsions:
REMARK  status: ('A' for Active; 'I' for Inactive)
REMARK    1  A    between atoms: C2_2  and  C3_3
REMARK    2  A    between atoms: C3_3  and  C4_4
REMARK    3  A    between atoms: C4_4  and  C5_5
REMARK    4  A    between atoms: C5_5  and  O1_6
REMARK    5  A    between atoms: O1_6  and  C6_7
REMARK    6  A    between atoms: C6_7  and  C8_9
REMARK    7  A    between atoms: C10_11  and  O2_12
REMARK    8  A    between atoms: N1_14  and  C11_15
REMARK    9  A    between atoms: C11_15  and  C12_16
REMARK   10  A    between atoms: C12_16  and  O3_17
REMARK   11  A    between atoms: O3_17  and  C13_18
REMARK   12  A    between atoms: C13_18  and  C14_19
REMARK   13  A    between atoms: C14_19  and  O4_20
REMARK   14  A    between atoms: C14_19  and  C15_22
ROOT
HETATM    1  C8  UNL     1      31.826   5.306  13.947  1.00  0.00    -0.010 A
HETATM    2  C9  UNL     1      32.235   5.945  15.091  1.00  0.00     0.067 A
HETATM    3  C10 UNL     1      31.230   6.798  15.480  1.00  0.00     0.142 A
HETATM    4  N1  UNL     1      30.222   6.690  14.599  1.00  0.00    -0.335 N
HETATM    5  C17 UNL     1      30.576   5.784  13.662  1.00  0.00     0.103 A
ENDROOT
BRANCH   4   6
HETATM    6  C11 UNL     1      28.958   7.435  14.655  1.00  0.00     0.156 C
BRANCH   6   7
HETATM    7  C12 UNL     1      28.780   8.307  13.455  1.00  0.00     0.188 C
BRANCH   7   8
HETATM    8  O3  UNL     1      27.525   8.186  12.939  1.00  0.00    -0.387 OA
BRANCH   8   9
HETATM    9  C13 UNL     1      26.533   8.844  13.626  1.00  0.00     0.199 C
BRANCH   9  10
HETATM   10  C14 UNL     1      25.427   9.333  12.702  1.00  0.00     0.141 C
BRANCH  10  11
HETATM   11  O4  UNL     1      24.489   8.285  12.567  1.00  0.00    -0.393 OA
ATOM     12  H4  UNL     1      23.677   8.572  12.969  1.00  0.00     0.210 HD
ENDBRANCH  10  11
BRANCH  10  13
HETATM   13  C15 UNL     1      25.931   9.629  11.324  1.00  0.00     0.029 C
HETATM   14  C16 UNL     1      25.028  10.614  10.625  1.00  0.00     0.007 C
ENDBRANCH  10  13
ENDBRANCH   9  10
ENDBRANCH   8   9
ENDBRANCH   7   8
ENDBRANCH   6   7
ENDBRANCH   4   6
BRANCH   3  15
HETATM   15  O2  UNL     1      31.208   7.654  16.594  1.00  0.00    -0.346 OA
ATOM     16  H2  UNL     1      30.717   8.460  16.700  1.00  0.00     0.219 HD
ENDBRANCH   3  15
BRANCH   1  17
HETATM   17  C6  UNL     1      32.530   4.278  13.107  1.00  0.00     0.151 C
HETATM   18  C7  UNL     1      31.538   3.733  12.068  1.00  0.00     0.045 C
BRANCH  17  19
HETATM   19  O1  UNL     1      33.665   4.735  12.568  1.00  0.00    -0.382 OA
BRANCH  19  20
HETATM   20  C5  UNL     1      34.358   4.131  11.610  1.00  0.00     0.168 C
BRANCH  20  21
HETATM   21  C4  UNL     1      35.803   4.314  11.413  1.00  0.00     0.026 C
BRANCH  21  22
HETATM   22  C3  UNL     1      36.733   3.186  11.640  1.00  0.00     0.002 C
BRANCH  22  23
HETATM   23  C2  UNL     1      37.984   3.420  10.749  1.00  0.00    -0.004 C
HETATM   24  C1  UNL     1      37.875   4.741  10.037  1.00  0.00     0.005 C
ENDBRANCH  22  23
ENDBRANCH  21  22
ENDBRANCH  20  21
ENDBRANCH  19  20
ENDBRANCH  17  19
ENDBRANCH   1  17
TORSDOF 14
ENDMDL