MODEL 4
REMARK VINA RESULT: -6.775719555      3.022     10.424
REMARK  14 active torsions:
REMARK  status: ('A' for Active; 'I' for Inactive)
REMARK    1  A    between atoms: C2_2  and  C3_3
REMARK    2  A    between atoms: C3_3  and  C4_4
REMARK    3  A    between atoms: C4_4  and  N1_5
REMARK    4  A    between atoms: N1_5  and  C5_7
REMARK    5  A    between atoms: C5_7  and  C6_8
REMARK    6  A    between atoms: C6_8  and  S1_9
REMARK    7  A    between atoms: S1_9  and  C7_10
REMARK    8  A    between atoms: C7_10  and  C8_11
REMARK    9  A    between atoms: C8_11  and  C9_12
REMARK   10  A    between atoms: C9_12  and  C10_13
REMARK   11  A    between atoms: C10_13  and  C11_14
REMARK   12  A    between atoms: C11_14  and  N2_15
REMARK   13  A    between atoms: N2_15  and  C12_18
REMARK   14  A    between atoms: C12_18  and  C13_19
ROOT
HETATM    1  C10 UNL     1      26.966   8.843  11.100  1.00  0.00     0.027 C
ENDROOT
BRANCH   1   2
HETATM    2  C9  UNL     1      27.997   9.189  12.106  1.00  0.00     0.002 C
BRANCH   2   3
HETATM    3  C8  UNL     1      28.564   8.104  12.916  1.00  0.00     0.010 C
BRANCH   3   4
HETATM    4  C7  UNL     1      29.414   8.389  14.085  1.00  0.00     0.074 C
BRANCH   4   5
HETATM    5  S1  UNL     1      30.467   7.067  14.649  1.00  0.00    -0.167 SA
BRANCH   5   6
HETATM    6  C6  UNL     1      30.040   5.450  14.014  1.00  0.00     0.094 C
BRANCH   6   7
HETATM    7  C5  UNL     1      31.357   4.667  13.804  1.00  0.00     0.139 C
BRANCH   7   8
HETATM    8  N1  UNL     1      31.430   4.483  12.370  1.00  0.00    -0.356 N
ATOM      9  H1  UNL     1      30.660   4.723  11.747  1.00  0.00     0.169 HD
BRANCH   8  10
HETATM   10  C4  UNL     1      32.544   3.992  11.939  1.00  0.00    -0.046 C
BRANCH  10  11
HETATM   11  C3  UNL     1      33.734   3.484  11.778  1.00  0.00     0.073 C
BRANCH  11  12
HETATM   12  C2  UNL     1      34.869   4.382  11.856  1.00  0.00    -0.001 C
HETATM   13  C1  UNL     1      36.042   3.888  11.496  1.00  0.00     0.012 C
ENDBRANCH  11  12
ENDBRANCH  10  11
ENDBRANCH   8  10
ENDBRANCH   7   8
ENDBRANCH   6   7
ENDBRANCH   5   6
ENDBRANCH   4   5
ENDBRANCH   3   4
ENDBRANCH   2   3
ENDBRANCH   1   2
BRANCH   1  14
HETATM   14  C11 UNL     1      25.584   9.297  11.479  1.00  0.00     0.232 C
BRANCH  14  15
HETATM   15  N2  UNL     1      25.513   9.796  12.820  1.00  0.00    -0.071 N
ATOM     16  H22 UNL     1      26.440   9.873  13.238  1.00  0.00     0.277 HD
ATOM     17  H21 UNL     1      25.249  10.781  12.836  1.00  0.00     0.277 HD
BRANCH  15  18
HETATM   18  C12 UNL     1      24.619   8.991  13.648  1.00  0.00     0.270 C
BRANCH  18  19
HETATM   19  C13 UNL     1      24.976   9.130  15.089  1.00  0.00    -0.033 A
HETATM   20  C14 UNL     1      26.140   8.582  15.603  1.00  0.00     0.011 A
HETATM   21  C15 UNL     1      26.494   8.699  16.939  1.00  0.00     0.027 A
HETATM   22  C16 UNL     1      25.657   9.389  17.802  1.00  0.00     0.046 A
HETATM   23  N3  UNL     1      26.037   9.499  19.172  1.00  0.00    -0.102 NA
HETATM   24  C17 UNL     1      24.489   9.948  17.328  1.00  0.00     0.027 A
HETATM   25  C18 UNL     1      24.170   9.807  15.978  1.00  0.00     0.011 A
ENDBRANCH  18  19
ENDBRANCH  15  18
ENDBRANCH  14  15
ENDBRANCH   1  14
TORSDOF 14
ENDMDL