MODEL 5
REMARK VINA RESULT: -7.389817212      2.346      3.427
REMARK  13 active torsions:
REMARK  status: ('A' for Active; 'I' for Inactive)
REMARK    1  A    between atoms: N1_2  and  C2_4
REMARK    2  A    between atoms: C2_4  and  C3_5
REMARK    3  A    between atoms: C2_4  and  C14_16
REMARK    4  A    between atoms: C3_5  and  C4_6
REMARK    5  A    between atoms: C4_6  and  C5_7
REMARK    6  A    between atoms: C5_7  and  C6_8
REMARK    7  A    between atoms: C6_8  and  C7_9
REMARK    8  A    between atoms: C7_9  and  C8_10
REMARK    9  A    between atoms: C14_16  and  C15_17
REMARK   10  A    between atoms: C15_17  and  C16_18
REMARK   11  A    between atoms: C16_18  and  O1_19
REMARK   12  A    between atoms: O1_19  and  N2_20
REMARK   13  A    between atoms: N3_22  and  O2_24
ROOT
HETATM    1  C2  UNL     1      31.374   5.750  15.074  1.00  0.00     0.080 C
ENDROOT
BRANCH   1   2
HETATM    2  N1  UNL     1      31.811   6.827  15.842  1.00  0.00    -0.403 N
HETATM    3  C1  UNL     1      32.389   7.980  15.484  1.00  0.00     0.112 C
ATOM      4  H1  UNL     1      31.666   6.719  16.846  1.00  0.00     0.158 HD
ENDBRANCH   1   2
BRANCH   1   5
HETATM    5  C3  UNL     1      32.455   5.010  14.304  1.00  0.00     0.025 C
BRANCH   5   6
HETATM    6  C4  UNL     1      32.266   4.951  12.841  1.00  0.00     0.002 C
BRANCH   6   7
HETATM    7  C5  UNL     1      32.324   3.714  12.085  1.00  0.00     0.000 C
BRANCH   7   8
HETATM    8  C6  UNL     1      33.731   3.119  12.193  1.00  0.00     0.000 C
BRANCH   8   9
HETATM    9  C7  UNL     1      34.511   3.597  11.052  1.00  0.00     0.004 C
BRANCH   9  10
HETATM   10  C8  UNL     1      35.774   4.287  11.451  1.00  0.00    -0.014 C
HETATM   11  C9  UNL     1      36.175   5.530  10.776  1.00  0.00     0.004 C
HETATM   12  C10 UNL     1      37.009   5.212   9.526  1.00  0.00     0.000 C
HETATM   13  C11 UNL     1      38.075   4.208   9.816  1.00  0.00     0.000 C
HETATM   14  C12 UNL     1      37.452   2.915  10.336  1.00  0.00     0.000 C
HETATM   15  C13 UNL     1      36.900   3.299  11.710  1.00  0.00     0.004 C
ENDBRANCH   9  10
ENDBRANCH   8   9
ENDBRANCH   7   8
ENDBRANCH   6   7
ENDBRANCH   5   6
ENDBRANCH   1   5
BRANCH   1  16
HETATM   16  C14 UNL     1      30.642   6.518  13.840  1.00  0.00     0.027 C
BRANCH  16  17
HETATM   17  C15 UNL     1      29.175   6.531  14.001  1.00  0.00     0.031 C
BRANCH  17  18
HETATM   18  C16 UNL     1      28.770   7.997  14.281  1.00  0.00     0.203 C
BRANCH  18  19
HETATM   19  O1  UNL     1      28.653   7.824  15.749  1.00  0.00    -0.264 OA
BRANCH  19  20
HETATM   20  N2  UNL     1      28.751   8.863  16.494  1.00  0.00    -0.188 N
HETATM   21  N3  UNL     1      29.271   9.266  17.502  1.00  0.00    -0.188 N
ATOM     22  H3  UNL     1      29.123  10.218  17.839  1.00  0.00     0.218 HD
ATOM     23  H2  UNL     1      28.192   9.613  16.089  1.00  0.00     0.218 HD
BRANCH  21  24
HETATM   24  O2  UNL     1      30.099   8.349  18.197  1.00  0.00    -0.268 OA
HETATM   25  C17 UNL     1      31.290   9.047  18.645  1.00  0.00     0.239 C
ENDBRANCH  21  24
ENDBRANCH  19  20
ENDBRANCH  18  19
ENDBRANCH  17  18
ENDBRANCH  16  17
ENDBRANCH   1  16
TORSDOF 13
ENDMDL