MODEL 5
REMARK VINA RESULT: -7.083999368      1.630      2.238
REMARK  14 active torsions:
REMARK  status: ('A' for Active; 'I' for Inactive)
REMARK    1  A    between atoms: O1_2  and  C2_3
REMARK    2  A    between atoms: C2_3  and  C3_4
REMARK    3  A    between atoms: C3_4  and  C4_5
REMARK    4  A    between atoms: C4_5  and  N1_6
REMARK    5  A    between atoms: N1_6  and  C5_9
REMARK    6  A    between atoms: C5_9  and  C6_10
REMARK    7  A    between atoms: C6_10  and  C7_11
REMARK    8  A    between atoms: C7_11  and  C8_12
REMARK    9  A    between atoms: C8_12  and  C9_13
REMARK   10  A    between atoms: C9_13  and  C10_14
REMARK   11  A    between atoms: C12_16  and  O2_17
REMARK   12  A    between atoms: C13_20  and  C14_21
REMARK   13  A    between atoms: C14_21  and  C15_22
REMARK   14  A    between atoms: C15_22  and  C16_23
ROOT
HETATM    1  C9  UNL     1      29.326   7.019  14.186  1.00  0.00     0.041 C
ENDROOT
BRANCH   1   2
HETATM    2  C8  UNL     1      28.850   7.894  13.093  1.00  0.00     0.005 C
BRANCH   2   3
HETATM    3  C7  UNL     1      27.728   8.803  13.391  1.00  0.00     0.002 C
BRANCH   3   4
HETATM    4  C6  UNL     1      26.877   9.086  12.155  1.00  0.00     0.027 C
BRANCH   4   5
HETATM    5  C5  UNL     1      25.415   9.177  12.452  1.00  0.00     0.232 C
BRANCH   5   6
HETATM    6  N1  UNL     1      25.191   8.895  13.845  1.00  0.00    -0.075 N
ATOM      7  H12 UNL     1      26.069   8.689  14.324  1.00  0.00     0.277 HD
ATOM      8  H11 UNL     1      24.724   7.997  13.967  1.00  0.00     0.277 HD
BRANCH   6   9
HETATM    9  C4  UNL     1      24.468   9.953  14.516  1.00  0.00     0.234 C
BRANCH   9  10
HETATM   10  C3  UNL     1      25.209  10.215  15.843  1.00  0.00     0.054 C
BRANCH  10  11
HETATM   11  C2  UNL     1      25.133   8.992  16.718  1.00  0.00     0.168 C
BRANCH  11  12
HETATM   12  O1  UNL     1      26.299   8.284  16.630  1.00  0.00    -0.396 OA
HETATM   13  C1  UNL     1      27.419   8.897  17.135  1.00  0.00     0.201 C
ENDBRANCH  11  12
ENDBRANCH  10  11
ENDBRANCH   9  10
ENDBRANCH   6   9
ENDBRANCH   5   6
ENDBRANCH   4   5
ENDBRANCH   3   4
ENDBRANCH   2   3
ENDBRANCH   1   2
BRANCH   1  14
HETATM   14  C10 UNL     1      30.560   7.421  14.872  1.00  0.00    -0.024 A
HETATM   15  C11 UNL     1      30.798   8.701  15.393  1.00  0.00     0.073 A
HETATM   16  C12 UNL     1      32.022   8.626  16.027  1.00  0.00     0.183 A
HETATM   17  O3  UNL     1      32.479   7.428  15.901  1.00  0.00    -0.292 OA
HETATM   18  C13 UNL     1      31.629   6.660  15.206  1.00  0.00     0.062 A
BRANCH  16  19
HETATM   19  O2  UNL     1      32.622   9.710  16.683  1.00  0.00    -0.341 OA
ATOM     20  H2  UNL     1      33.082   9.633  17.511  1.00  0.00     0.220 HD
ENDBRANCH  16  19
BRANCH  18  21
HETATM   21  C14 UNL     1      31.973   5.245  14.939  1.00  0.00     0.066 C
BRANCH  21  22
HETATM   22  C15 UNL     1      32.726   5.233  13.619  1.00  0.00     0.010 C
BRANCH  22  23
HETATM   23  C16 UNL     1      32.696   3.919  12.912  1.00  0.00    -0.022 C
HETATM   24  C17 UNL     1      31.420   3.744  12.136  1.00  0.00     0.009 C
HETATM   25  C18 UNL     1      33.884   3.917  11.953  1.00  0.00     0.009 C
ENDBRANCH  22  23
ENDBRANCH  21  22
ENDBRANCH  18  21
ENDBRANCH   1  14
TORSDOF 14
ENDMDL