MODEL 5
REMARK VINA RESULT: -5.387440402      6.514      7.604
REMARK  5 active torsions:
REMARK  status: ('A' for Active; 'I' for Inactive)
REMARK    1  A    between atoms: C2_2  and  C3_3
REMARK    2  A    between atoms: C3_3  and  C4_4
REMARK    3  A    between atoms: C4_4  and  C5_5
REMARK    4  A    between atoms: C9_12  and  C10_13
REMARK    5  A    between atoms: C10_13  and  N2_14
ROOT
HETATM    1  N2  UNL     1      14.948 -11.113  24.975  1.00  0.00    -0.304 N
HETATM    2  C11 UNL     1      16.362 -10.992  25.446  1.00  0.00     0.168 C
HETATM    3  C12 UNL     1      14.129 -11.802  25.814  1.00  0.00     0.183 C
HETATM    4  N3  UNL     1      13.446 -12.418  26.549  1.00  0.00    -0.172 NA
ENDROOT
BRANCH   1   5
HETATM    5  C10 UNL     1      14.681 -10.540  23.734  1.00  0.00     0.082 C
BRANCH   5   6
HETATM    6  C9  UNL     1      15.662 -10.184  22.717  1.00  0.00     0.060 C
HETATM    7  C4  UNL     1      15.955 -10.996  21.543  1.00  0.00    -0.007 C
HETATM    8  C7  UNL     1      16.602  -9.864  20.646  1.00  0.00     0.242 C
HETATM    9  N1  UNL     1      15.495  -8.936  20.684  1.00  0.00    -0.074 N
HETATM   10  C8  UNL     1      15.059  -8.902  22.046  1.00  0.00     0.243 C
ATOM     11  H12 UNL     1      15.722  -8.017  20.305  1.00  0.00     0.277 HD
ATOM     12  H11 UNL     1      14.751  -9.162  20.023  1.00  0.00     0.277 HD
BRANCH   7  13
HETATM   13  C3  UNL     1      14.728 -11.368  20.776  1.00  0.00     0.011 C
BRANCH  13  14
HETATM   14  C2  UNL     1      14.519 -12.763  20.370  1.00  0.00    -0.004 C
HETATM   15  C1  UNL     1      14.461 -12.874  18.827  1.00  0.00     0.005 C
ENDBRANCH  13  14
ENDBRANCH   7  13
BRANCH   7  16
HETATM   16  C5  UNL     1      16.984 -12.057  21.542  1.00  0.00     0.007 C
HETATM   17  C6  UNL     1      18.258 -11.775  20.844  1.00  0.00     0.006 C
ENDBRANCH   7  16
ENDBRANCH   5   6
ENDBRANCH   1   5
TORSDOF 5
ENDMDL