MODEL 2
REMARK VINA RESULT: -5.780321782      1.736      2.138
REMARK  5 active torsions:
REMARK  status: ('A' for Active; 'I' for Inactive)
REMARK    1  A    between atoms: C4_4  and  C5_5
REMARK    2  A    between atoms: C5_5  and  C6_6
REMARK    3  A    between atoms: C6_6  and  N1_7
REMARK    4  A    between atoms: N1_7  and  C7_9
REMARK    5  A    between atoms: C7_9  and  C8_10
ROOT
HETATM    1  C6  UNL     1      12.231  -9.878  23.553  1.00  0.00     0.058 C
ENDROOT
BRANCH   1   2
HETATM    2  C5  UNL     1      11.350 -10.766  22.722  1.00  0.00     0.076 C
BRANCH   2   3
HETATM    3  C4  UNL     1      10.000 -10.094  22.436  1.00  0.00     0.126 C
HETATM    4  C3  UNL     1       9.088 -11.009  21.712  1.00  0.00     0.032 C
HETATM    5  C2  UNL     1       8.825 -10.718  20.283  1.00  0.00     0.004 C
HETATM    6  C1  UNL     1       8.870  -9.201  20.046  1.00  0.00     0.026 C
HETATM    7  C11 UNL     1      10.267  -8.798  20.515  1.00  0.00     0.168 C
HETATM    8  O3  UNL     1      10.261  -8.876  21.880  1.00  0.00    -0.386 OA
ENDBRANCH   2   3
ENDBRANCH   1   2
BRANCH   1   9
HETATM    9  N1  UNL     1      13.163  -9.119  22.819  1.00  0.00    -0.397 N
ATOM     10  H1  UNL     1      13.405  -8.173  23.113  1.00  0.00     0.158 HD
BRANCH   9  11
HETATM   11  C7  UNL     1      13.754  -9.686  21.673  1.00  0.00     0.179 C
BRANCH  11  12
HETATM   12  C8  UNL     1      15.132  -9.026  21.500  1.00  0.00     0.277 C
HETATM   13  O1  UNL     1      15.872  -9.785  20.638  1.00  0.00    -0.358 OA
HETATM   14  C9  UNL     1      17.078 -10.099  21.238  1.00  0.00     0.197 C
HETATM   15  C10 UNL     1      17.116  -9.177  22.439  1.00  0.00     0.197 C
HETATM   16  O2  UNL     1      15.760  -8.931  22.720  1.00  0.00    -0.358 OA
ENDBRANCH  11  12
ENDBRANCH   9  11
ENDBRANCH   1   9
TORSDOF 5
ENDMDL