MODEL 3
REMARK VINA RESULT: -5.097883150      2.804      5.800
REMARK  5 active torsions:
REMARK  status: ('A' for Active; 'I' for Inactive)
REMARK    1  A    between atoms: O1_2  and  C2_3
REMARK    2  A    between atoms: C2_3  and  C3_4
REMARK    3  A    between atoms: C3_4  and  N1_5
REMARK    4  A    between atoms: N1_5  and  C4_8
REMARK    5  A    between atoms: C4_8  and  C5_9
ROOT
HETATM    1  C5  UNL     1      10.311  -9.493  21.848  1.00  0.00     0.018 C
HETATM    2  C6  UNL     1       9.904  -9.422  23.285  1.00  0.00     0.037 C
HETATM    3  C7  UNL     1       8.443  -9.219  23.523  1.00  0.00     0.272 C
HETATM    4  N2  UNL     1       7.619  -9.424  22.356  1.00  0.00     0.084 N
HETATM    5  C8  UNL     1       6.246  -9.579  22.785  1.00  0.00     0.309 C
HETATM    6  C9  UNL     1       8.080 -10.649  21.722  1.00  0.00     0.276 C
HETATM    7  C10 UNL     1       9.340 -10.198  20.965  1.00  0.00     0.015 C
HETATM    8  C11 UNL     1       8.852  -9.250  19.893  1.00  0.00     0.012 C
ENDROOT
BRANCH   1   9
HETATM    9  C4  UNL     1      11.690 -10.131  21.726  1.00  0.00     0.237 C
BRANCH   9  10
HETATM   10  N1  UNL     1      12.702  -9.093  21.691  1.00  0.00    -0.073 N
ATOM     11  H12 UNL     1      12.284  -8.173  21.822  1.00  0.00     0.277 HD
ATOM     12  H11 UNL     1      13.070  -8.976  20.747  1.00  0.00     0.277 HD
BRANCH  10  13
HETATM   13  C3  UNL     1      13.762  -9.310  22.627  1.00  0.00     0.258 C
BRANCH  13  14
HETATM   14  C2  UNL     1      13.490 -10.406  23.606  1.00  0.00     0.194 C
BRANCH  14  15
HETATM   15  O1  UNL     1      13.743 -10.049  24.922  1.00  0.00    -0.394 OA
HETATM   16  C1  UNL     1      14.438 -10.992  25.642  1.00  0.00     0.201 C
ENDBRANCH  14  15
ENDBRANCH  13  14
ENDBRANCH  10  13
ENDBRANCH   9  10
ENDBRANCH   1   9
TORSDOF 5
ENDMDL