MODEL 4
REMARK VINA RESULT: -5.740246065      1.571      1.863
REMARK  5 active torsions:
REMARK  status: ('A' for Active; 'I' for Inactive)
REMARK    1  A    between atoms: C3_3  and  C4_4
REMARK    2  A    between atoms: C4_4  and  C5_5
REMARK    3  A    between atoms: C5_5  and  O1_6
REMARK    4  A    between atoms: O1_6  and  C6_7
REMARK    5  A    between atoms: C6_7  and  C7_8
ROOT
HETATM    1  C4  UNL     1      12.706 -12.068  22.344  1.00  0.00     0.031 C
ENDROOT
BRANCH   1   2
HETATM    2  C3  UNL     1      13.421 -11.667  21.088  1.00  0.00    -0.009 C
HETATM    3  C2  UNL     1      14.420 -10.564  21.327  1.00  0.00     0.032 C
HETATM    4  C1  UNL     1      15.794 -10.901  20.827  1.00  0.00     0.232 C
HETATM    5  N1  UNL     1      15.806 -11.455  19.507  1.00  0.00    -0.075 N
HETATM    6  C12 UNL     1      14.845 -12.493  19.295  1.00  0.00     0.232 C
ATOM      7  H12 UNL     1      15.695 -10.717  18.811  1.00  0.00     0.277 HD
ATOM      8  H11 UNL     1      16.742 -11.781  19.267  1.00  0.00     0.277 HD
HETATM    9  C11 UNL     1      14.192 -12.873  20.595  1.00  0.00     0.032 C
ENDBRANCH   1   2
BRANCH   1  10
HETATM   10  C5  UNL     1      12.874 -11.041  23.449  1.00  0.00     0.168 C
BRANCH  10  11
HETATM   11  O1  UNL     1      11.687 -10.443  23.789  1.00  0.00    -0.391 OA
BRANCH  11  12
HETATM   12  C6  UNL     1      10.591 -10.915  23.092  1.00  0.00     0.174 C
BRANCH  12  13
HETATM   13  C7  UNL     1       9.639  -9.838  22.648  1.00  0.00     0.035 C
HETATM   14  C8  UNL     1       8.501 -10.437  21.804  1.00  0.00     0.035 C
HETATM   15  C9  UNL     1       7.468  -9.340  22.000  1.00  0.00     0.168 C
HETATM   16  O2  UNL     1       7.674  -8.785  23.229  1.00  0.00    -0.391 OA
HETATM   17  C10 UNL     1       8.806  -9.308  23.796  1.00  0.00     0.174 C
ENDBRANCH  12  13
ENDBRANCH  11  12
ENDBRANCH  10  11
ENDBRANCH   1  10
TORSDOF 5
ENDMDL