MODEL 1
REMARK VINA RESULT: -5.359875726      0.000      0.000
REMARK  5 active torsions:
REMARK  status: ('A' for Active; 'I' for Inactive)
REMARK    1  A    between atoms: O1_2  and  C2_3
REMARK    2  A    between atoms: C2_3  and  C3_4
REMARK    3  A    between atoms: C3_4  and  C4_5
REMARK    4  A    between atoms: C4_5  and  N1_6
REMARK    5  A    between atoms: C8_13  and  C9_14
ROOT
HETATM    1  N1  UNL     1       9.509  -9.393  22.049  1.00  0.00     0.120 N
HETATM    2  C5  UNL     1      10.413  -9.285  20.918  1.00  0.00     0.277 C
HETATM    3  C6  UNL     1      10.106 -10.345  19.860  1.00  0.00     0.058 C
HETATM    4  C7  UNL     1       8.767  -9.965  19.264  1.00  0.00     0.236 C
HETATM    5  N2  UNL     1       8.095  -9.128  20.206  1.00  0.00    -0.043 N
ATOM      6  H21 UNL     1       7.125  -8.958  19.935  1.00  0.00     0.279 HD
ATOM      7  H22 UNL     1       8.435  -8.167  20.167  1.00  0.00     0.279 HD
HETATM    8  C8  UNL     1       8.191  -9.677  21.541  1.00  0.00     0.423 C
ENDROOT
BRANCH   1   9
HETATM    9  C4  UNL     1      10.026 -10.478  22.866  1.00  0.00     0.277 C
BRANCH   9  10
HETATM   10  C3  UNL     1      11.471 -10.317  23.232  1.00  0.00     0.056 C
BRANCH  10  11
HETATM   11  C2  UNL     1      12.079 -11.723  23.205  1.00  0.00     0.168 C
BRANCH  11  12
HETATM   12  O1  UNL     1      12.589 -12.052  24.453  1.00  0.00    -0.396 OA
HETATM   13  C1  UNL     1      13.721 -11.250  24.647  1.00  0.00     0.201 C
ENDBRANCH  11  12
ENDBRANCH  10  11
ENDBRANCH   9  10
ENDBRANCH   1   9
BRANCH   8  14
HETATM   14  C9  UNL     1       7.099  -9.083  22.365  1.00  0.00     0.051 A
HETATM   15  C10 UNL     1       6.996  -9.251  23.814  1.00  0.00     0.013 A
HETATM   16  C11 UNL     1       6.119 -10.089  22.955  1.00  0.00    -0.010 A
HETATM   17  C12 UNL     1       4.645  -9.764  22.866  1.00  0.00     0.010 C
ENDBRANCH   8  14
TORSDOF 5
ENDMDL