MODEL 3
REMARK VINA RESULT: -5.359619240      1.596      1.872
REMARK  5 active torsions:
REMARK  status: ('A' for Active; 'I' for Inactive)
REMARK    1  A    between atoms: N1_2  and  C3_4
REMARK    2  A    between atoms: C3_4  and  C4_5
REMARK    3  A    between atoms: C4_5  and  C5_6
REMARK    4  A    between atoms: C5_6  and  O1_7
REMARK    5  A    between atoms: O1_7  and  C6_8
ROOT
HETATM    1  C6  UNL     1      10.832 -10.179  22.956  1.00  0.00     0.216 C
HETATM    2  C7  UNL     1      10.759 -11.331  22.046  1.00  0.00     0.053 C
HETATM    3  C8  UNL     1       9.301 -11.522  21.650  1.00  0.00     0.004 C
HETATM    4  C9  UNL     1       8.972 -10.772  20.405  1.00  0.00     0.002 C
HETATM    5  C10 UNL     1       9.237  -9.309  20.474  1.00  0.00     0.019 C
HETATM    6  C11 UNL     1      10.623  -8.922  20.884  1.00  0.00     0.116 C
HETATM    7  N2  UNL     1      10.869  -8.892  22.281  1.00  0.00    -0.397 N
ATOM      8  H2  UNL     1      11.060  -8.023  22.780  1.00  0.00     0.155 HD
ENDROOT
BRANCH   1   9
HETATM    9  O1  UNL     1      11.881 -10.254  23.856  1.00  0.00    -0.367 OA
BRANCH   9  10
HETATM   10  C5  UNL     1      12.928  -9.413  23.612  1.00  0.00     0.172 C
BRANCH  10  11
HETATM   11  C4  UNL     1      14.100  -9.987  22.878  1.00  0.00     0.056 C
BRANCH  11  12
HETATM   12  C3  UNL     1      14.550  -9.029  21.812  1.00  0.00     0.273 C
BRANCH  12  13
HETATM   13  N1  UNL     1      15.900  -9.289  21.367  1.00  0.00     0.080 N
HETATM   14  C1  UNL     1      16.897  -9.235  22.377  1.00  0.00     0.309 C
HETATM   15  C2  UNL     1      16.052 -10.430  20.529  1.00  0.00     0.309 C
ENDBRANCH  12  13
ENDBRANCH  11  12
ENDBRANCH  10  11
ENDBRANCH   9  10
ENDBRANCH   1   9
TORSDOF 5
ENDMDL