MODEL 3
REMARK VINA RESULT: -5.701011192      2.371      6.824
REMARK  5 active torsions:
REMARK  status: ('A' for Active; 'I' for Inactive)
REMARK    1  A    between atoms: C4_4  and  C5_5
REMARK    2  A    between atoms: C5_5  and  N1_6
REMARK    3  A    between atoms: N1_6  and  C6_9
REMARK    4  A    between atoms: C6_9  and  C7_10
REMARK    5  A    between atoms: C7_10  and  N2_11
ROOT
HETATM    1  N1  UNL     1      13.008  -8.643  21.677  1.00  0.00    -0.071 N
ATOM      2  H11 UNL     1      13.442  -9.018  20.834  1.00  0.00     0.277 HD
ATOM      3  H12 UNL     1      13.414  -7.707  21.677  1.00  0.00     0.277 HD
ENDROOT
BRANCH   1   4
HETATM    4  C5  UNL     1      13.430  -9.377  22.833  1.00  0.00     0.264 C
BRANCH   4   5
HETATM    5  C4  UNL     1      14.823  -9.918  22.555  1.00  0.00     0.147 C
HETATM    6  C3  UNL     1      14.913 -10.730  21.308  1.00  0.00     0.034 C
HETATM    7  C2  UNL     1      16.081 -10.339  20.454  1.00  0.00     0.004 C
HETATM    8  C1  UNL     1      17.273 -10.071  21.316  1.00  0.00     0.026 C
HETATM    9  C12 UNL     1      17.011  -9.222  22.516  1.00  0.00     0.168 C
HETATM   10  O1  UNL     1      15.686  -8.809  22.506  1.00  0.00    -0.384 OA
ENDBRANCH   4   5
ENDBRANCH   1   4
BRANCH   1  11
HETATM   11  C6  UNL     1      11.579  -8.575  21.525  1.00  0.00     0.252 C
BRANCH  11  12
HETATM   12  C7  UNL     1      10.974  -9.957  21.266  1.00  0.00     0.149 C
BRANCH  12  13
HETATM   13  N2  UNL     1       9.612  -9.859  21.164  1.00  0.00    -0.392 N
HETATM   14  C8  UNL     1       8.923  -9.931  19.946  1.00  0.00     0.122 C
HETATM   15  C9  UNL     1       7.759  -8.977  20.264  1.00  0.00     0.025 C
HETATM   16  C10 UNL     1       7.397  -9.481  21.660  1.00  0.00     0.046 C
HETATM   17  C11 UNL     1       8.756  -9.808  22.264  1.00  0.00     0.058 C
ENDBRANCH  12  13
ENDBRANCH  11  12
ENDBRANCH   1  11
TORSDOF 5
ENDMDL