MODEL 1
REMARK VINA RESULT: -5.301029731      0.000      0.000
REMARK  1 active torsions:
REMARK  status: ('A' for Active; 'I' for Inactive)
REMARK    1  A    between atoms: C4_11  and  N4_12
ROOT
HETATM    1  C1  UNL     1      35.401  26.327 -42.064  1.00  0.00     0.197 C
HETATM    2  N1  UNL     1      34.856  27.381 -42.905  1.00  0.00    -0.126 N
HETATM    3  N2  UNL     1      34.421  28.505 -42.369  1.00  0.00    -0.246 N
ATOM      4  H2  UNL     1      34.464  28.646 -41.360  1.00  0.00     0.191 HD
HETATM    5  C2  UNL     1      33.922  29.463 -43.170  1.00  0.00     0.329 A
HETATM    6  O1  UNL     1      33.518  30.522 -42.621  1.00  0.00    -0.261 OA
HETATM    7  C3  UNL     1      33.864  29.273 -44.536  1.00  0.00     0.329 A
HETATM    8  O2  UNL     1      33.390  30.183 -45.292  1.00  0.00    -0.261 OA
HETATM    9  N3  UNL     1      34.321  28.106 -45.031  1.00  0.00    -0.150 N
ATOM     10  H3  UNL     1      34.287  27.947 -46.038  1.00  0.00     0.188 HD
HETATM   11  C4  UNL     1      34.817  27.155 -44.241  1.00  0.00     0.695 A
ENDROOT
BRANCH  11  12
HETATM   12  N4  UNL     1      35.248  26.040 -44.760  1.00  0.00    -0.233 N
ATOM     13  H42 UNL     1      36.088  26.041 -45.339  1.00  0.00     0.174 HD
ATOM     14  H41 UNL     1      34.767  25.155 -44.604  1.00  0.00     0.174 HD
ENDBRANCH  11  12
TORSDOF 1
ENDMDL