MODEL 5
REMARK VINA RESULT: -4.386319157      0.986      1.077
REMARK  2 active torsions:
REMARK  status: ('A' for Active; 'I' for Inactive)
REMARK    1  A    between atoms: C3_9  and  N5_10
REMARK    2  A    between atoms: N5_10  and  N6_12
ROOT
HETATM    1  C1  UNL     1      36.672  29.649 -43.460  1.00  0.00     0.199 C
HETATM    2  N1  UNL     1      35.344  30.268 -43.522  1.00  0.00    -0.110 N
HETATM    3  N2  UNL     1      34.374  30.192 -42.628  1.00  0.00    -0.210 N
ATOM      4  H2  UNL     1      34.436  29.674 -41.752  1.00  0.00     0.211 HD
HETATM    5  N3  UNL     1      33.314  30.875 -43.015  1.00  0.00    -0.209 N
HETATM    6  C2  UNL     1      32.103  30.956 -42.213  1.00  0.00     0.202 C
HETATM    7  N4  UNL     1      33.591  31.405 -44.177  1.00  0.00    -0.112 N
ATOM      8  H4  UNL     1      32.968  31.991 -44.733  1.00  0.00     0.207 HD
HETATM    9  C3  UNL     1      34.848  31.041 -44.510  1.00  0.00     0.729 A
ENDROOT
BRANCH   9  10
HETATM   10  N5  UNL     1      35.495  31.350 -45.569  1.00  0.00    -0.136 N
ATOM     11  H5  UNL     1      35.401  30.743 -46.383  1.00  0.00     0.205 HD
BRANCH  10  12
HETATM   12  N6  UNL     1      36.318  32.460 -45.674  1.00  0.00    -0.331 N
ATOM     13  H62 UNL     1      37.274  32.362 -45.331  1.00  0.00     0.177 HD
ATOM     14  H61 UNL     1      36.021  33.352 -46.070  1.00  0.00     0.177 HD
ENDBRANCH  10  12
ENDBRANCH   9  10
TORSDOF 2
ENDMDL