MODEL 1
REMARK VINA RESULT: -4.798570991      0.000      0.000
REMARK  0 active torsions:
REMARK  status: ('A' for Active; 'I' for Inactive)
ROOT
HETATM    1  C1  UNL     1      32.297  29.058 -40.835  1.00  0.00     0.164 C
HETATM    2  N1  UNL     1      32.817  29.554 -42.101  1.00  0.00    -0.269 N
HETATM    3  C2  UNL     1      32.664  30.831 -42.490  1.00  0.00     0.328 A
HETATM    4  O1  UNL     1      32.056  31.643 -41.753  1.00  0.00    -0.246 OA
HETATM    5  N2  UNL     1      33.156  31.257 -43.664  1.00  0.00    -0.317 N
ATOM      6  H2  UNL     1      33.022  32.234 -43.926  1.00  0.00     0.170 HD
HETATM    7  C3  UNL     1      33.818  30.448 -44.506  1.00  0.00     0.125 A
HETATM    8  C4  UNL     1      33.986  29.129 -44.126  1.00  0.00     0.130 A
HETATM    9  N3  UNL     1      34.655  28.173 -44.902  1.00  0.00    -0.095 NA
HETATM   10  C5  UNL     1      33.471  28.698 -42.903  1.00  0.00     0.276 A
HETATM   11  O2  UNL     1      33.603  27.513 -42.522  1.00  0.00    -0.266 OA
ENDROOT
TORSDOF 0
ENDMDL