MODEL 1
REMARK VINA RESULT: -5.630219794      0.000      0.000
REMARK  0 active torsions:
REMARK  status: ('A' for Active; 'I' for Inactive)
ROOT
HETATM    1  O1  UNL     1      34.811  27.718 -39.567  1.00  0.00    -0.245 OA
HETATM    2  C1  UNL     1      34.897  27.288 -40.769  1.00  0.00     0.354 A
HETATM    3  N1  UNL     1      35.170  26.064 -41.193  1.00  0.00    -0.137 N
ATOM      4  H1  UNL     1      35.358  25.254 -40.602  1.00  0.00     0.189 HD
HETATM    5  C2  UNL     1      35.155  26.075 -42.539  1.00  0.00     0.726 A
HETATM    6  N2  UNL     1      35.305  25.357 -43.674  1.00  0.00    -0.126 N
ATOM      7  H2  UNL     1      35.529  24.362 -43.703  1.00  0.00     0.206 HD
HETATM    8  N3  UNL     1      35.125  26.113 -44.740  1.00  0.00    -0.235 N
ATOM      9  H3  UNL     1      35.184  25.818 -45.714  1.00  0.00     0.192 HD
HETATM   10  C3  UNL     1      34.851  27.345 -44.288  1.00  0.00     0.375 A
HETATM   11  O2  UNL     1      34.612  28.373 -44.969  1.00  0.00    -0.243 OA
HETATM   12  N4  UNL     1      34.867  27.331 -42.922  1.00  0.00    -0.025 N
HETATM   13  N5  UNL     1      34.709  28.074 -41.839  1.00  0.00    -0.225 N
ATOM     14  H5  UNL     1      34.484  29.069 -41.822  1.00  0.00     0.193 HD
ENDROOT
TORSDOF 0
ENDMDL