MODEL 2
REMARK VINA RESULT: -5.645573880      1.842      3.031
REMARK  1 active torsions:
REMARK  status: ('A' for Active; 'I' for Inactive)
REMARK    1  A    between atoms: C2_9  and  N5_10
REMARK       I    between atoms: N5_10  and  C3_12
ROOT
HETATM    1  C1  UNL     1      35.428  27.804 -43.472  1.00  0.00     0.199 C
HETATM    2  N1  UNL     1      34.673  28.845 -44.149  1.00  0.00    -0.111 N
HETATM    3  N2  UNL     1      33.612  28.735 -44.898  1.00  0.00    -0.211 N
ATOM      4  H2  UNL     1      33.140  27.860 -45.125  1.00  0.00     0.210 HD
HETATM    5  N3  UNL     1      33.241  29.931 -45.318  1.00  0.00    -0.213 N
ATOM      6  H3  UNL     1      32.442  30.133 -45.918  1.00  0.00     0.210 HD
HETATM    7  N4  UNL     1      34.073  30.809 -44.833  1.00  0.00    -0.115 N
ATOM      8  H4  UNL     1      34.040  31.817 -44.985  1.00  0.00     0.207 HD
HETATM    9  C2  UNL     1      34.982  30.146 -44.094  1.00  0.00     0.718 A
ENDROOT
BRANCH   9  10
HETATM   10  N5  UNL     1      35.997  30.641 -43.428  1.00  0.00    -0.161 N
HETATM   11  C3  UNL     1      36.951  31.389 -44.174  1.00  0.00     0.200 C
HETATM   12  N6  UNL     1      37.521  32.392 -43.645  1.00  0.00    -0.373 N
HETATM   13  N7  UNL     1      37.235  30.989 -45.489  1.00  0.00    -0.063 NA
ATOM     14  H62 UNL     1      37.314  32.682 -42.690  1.00  0.00     0.158 HD
ATOM     15  H61 UNL     1      38.205  32.928 -44.180  1.00  0.00     0.158 HD
ATOM     16  H5  UNL     1      36.099  30.497 -42.424  1.00  0.00     0.187 HD
ENDBRANCH   9  10
TORSDOF 1
ENDMDL