MODEL 2
REMARK VINA RESULT: -5.180191880      3.159      5.037
REMARK  1 active torsions:
REMARK  status: ('A' for Active; 'I' for Inactive)
REMARK    1  A    between atoms: C4_5  and  N2_6
ROOT
HETATM    1  N1  UNL     1      33.606  30.100 -45.045  1.00  0.00    -0.190 NA
HETATM    2  C1  UNL     1      33.864  29.112 -44.490  1.00  0.00     0.118 C
HETATM    3  C2  UNL     1      34.197  27.896 -43.783  1.00  0.00     0.121 A
HETATM    4  C3  UNL     1      35.512  27.535 -43.563  1.00  0.00     0.089 A
HETATM    5  C4  UNL     1      35.847  26.378 -42.890  1.00  0.00     0.105 A
HETATM    6  N3  UNL     1      34.831  25.613 -42.456  1.00  0.00    -0.295 N
ATOM      7  H3  UNL     1      35.051  24.752 -41.956  1.00  0.00     0.172 HD
HETATM    8  C5  UNL     1      33.533  25.929 -42.651  1.00  0.00     0.326 A
HETATM    9  O1  UNL     1      32.602  25.180 -42.227  1.00  0.00    -0.247 OA
HETATM   10  N4  UNL     1      33.237  27.065 -43.311  1.00  0.00    -0.300 N
ATOM     11  H4  UNL     1      32.258  27.308 -43.460  1.00  0.00     0.171 HD
ENDROOT
BRANCH   5  12
HETATM   12  N2  UNL     1      37.095  26.042 -42.684  1.00  0.00    -0.385 N
ATOM     13  H22 UNL     1      37.862  26.509 -43.170  1.00  0.00     0.157 HD
ATOM     14  H21 UNL     1      37.348  25.301 -42.030  1.00  0.00     0.157 HD
ENDBRANCH   5  12
TORSDOF 1
ENDMDL