MODEL 3
REMARK VINA RESULT: -5.006061683      2.723      3.116
REMARK  3 active torsions:
REMARK  status: ('A' for Active; 'I' for Inactive)
REMARK    1  A    between atoms: C4_8  and  N4_9
REMARK    2  A    between atoms: N4_9  and  N5_10
REMARK    3  A    between atoms: N4_9  and  O1_13
ROOT
HETATM    1  C1  UNL     1      34.937  27.515 -41.111  1.00  0.00     0.179 C
HETATM    2  N1  UNL     1      34.600  28.263 -42.329  1.00  0.00    -0.281 N
HETATM    3  N2  UNL     1      33.898  29.360 -42.311  1.00  0.00    -0.285 N
ATOM      4  H2  UNL     1      33.523  29.797 -41.469  1.00  0.00     0.188 HD
HETATM    5  C2  UNL     1      33.738  29.833 -43.556  1.00  0.00     0.134 A
HETATM    6  N3  UNL     1      33.034  31.000 -43.903  1.00  0.00    -0.081 NA
HETATM    7  C3  UNL     1      34.408  28.935 -44.378  1.00  0.00     0.094 A
HETATM    8  C4  UNL     1      34.947  27.950 -43.600  1.00  0.00     0.148 A
ENDROOT
BRANCH   8   9
HETATM    9  N4  UNL     1      35.717  26.805 -43.943  1.00  0.00    -0.059 NA
BRANCH   9  10
HETATM   10  N5  UNL     1      35.115  26.028 -44.934  1.00  0.00    -0.335 NA
ATOM     11  H52 UNL     1      34.614  26.622 -45.595  1.00  0.00     0.173 HD
ATOM     12  H51 UNL     1      34.523  25.292 -44.551  1.00  0.00     0.173 HD
ENDBRANCH   9  10
BRANCH   9  13
HETATM   13  O1  UNL     1      36.979  27.127 -44.301  1.00  0.00    -0.288 OA
ATOM     14  H1  UNL     1      37.570  27.148 -43.557  1.00  0.00     0.239 HD
ENDBRANCH   9  13
ENDBRANCH   8   9
TORSDOF 3
ENDMDL