MODEL 1
REMARK VINA RESULT: -5.617086219      0.000      0.000
REMARK  0 active torsions:
REMARK  status: ('A' for Active; 'I' for Inactive)
ROOT
HETATM    1  O1  UNL     1      34.758  28.728 -44.951  1.00  0.00    -0.265 OA
HETATM    2  C1  UNL     1      34.495  27.886 -44.065  1.00  0.00     0.278 A
HETATM    3  N1  UNL     1      33.209  27.751 -43.632  1.00  0.00    -0.318 N
ATOM      4  H1  UNL     1      32.469  28.331 -44.027  1.00  0.00     0.169 HD
HETATM    5  C2  UNL     1      32.927  26.848 -42.683  1.00  0.00     0.185 A
HETATM    6  N2  UNL     1      33.911  26.070 -42.151  1.00  0.00    -0.335 N
ATOM      7  H2  UNL     1      33.676  25.389 -41.429  1.00  0.00     0.168 HD
HETATM    8  C3  UNL     1      35.187  26.186 -42.564  1.00  0.00     0.156 A
HETATM    9  N3  UNL     1      36.359  25.578 -42.241  1.00  0.00    -0.269 N
ATOM     10  H3  UNL     1      36.461  24.843 -41.542  1.00  0.00     0.190 HD
HETATM   11  N4  UNL     1      37.338  26.074 -42.957  1.00  0.00    -0.240 N
ATOM     12  H4  UNL     1      38.316  25.788 -42.906  1.00  0.00     0.208 HD
HETATM   13  N5  UNL     1      36.847  27.007 -43.756  1.00  0.00    -0.278 N
ATOM     14  H5  UNL     1      37.387  27.560 -44.423  1.00  0.00     0.189 HD
HETATM   15  C4  UNL     1      35.511  27.112 -43.546  1.00  0.00     0.163 A
ENDROOT
TORSDOF 0
ENDMDL