MODEL 5
REMARK VINA RESULT: -4.230689345      2.965      3.371
REMARK  1 active torsions:
REMARK  status: ('A' for Active; 'I' for Inactive)
REMARK    1  A    between atoms: N1_1  and  N2_4
ROOT
HETATM    1  N2  UNL     1      35.098  26.357 -43.533  1.00  0.00    -0.171 N
HETATM    2  N3  UNL     1      34.810  27.086 -44.600  1.00  0.00    -0.228 N
ATOM      3  H3  UNL     1      34.675  26.725 -45.545  1.00  0.00     0.194 HD
HETATM    4  C1  UNL     1      34.724  28.386 -44.236  1.00  0.00     0.342 A
HETATM    5  O1  UNL     1      34.458  29.331 -45.046  1.00  0.00    -0.245 OA
HETATM    6  N4  UNL     1      34.963  28.452 -42.921  1.00  0.00    -0.281 N
ATOM      7  H4  UNL     1      34.969  29.297 -42.350  1.00  0.00     0.173 HD
HETATM    8  C2  UNL     1      35.195  27.199 -42.491  1.00  0.00     0.217 A
HETATM    9  S1  UNL     1      35.539  26.737 -40.953  1.00  0.00    -0.037 SA
ENDROOT
BRANCH   1  10
HETATM   10  N1  UNL     1      35.271  24.950 -43.506  1.00  0.00    -0.321 N
ATOM     11  H12 UNL     1      35.775  24.384 -44.188  1.00  0.00     0.179 HD
ATOM     12  H11 UNL     1      34.912  24.314 -42.794  1.00  0.00     0.179 HD
ENDBRANCH   1  10
TORSDOF 1
ENDMDL