MODEL 2
REMARK VINA RESULT: -4.767544497      2.328      2.862
REMARK  1 active torsions:
REMARK  status: ('A' for Active; 'I' for Inactive)
REMARK       I    between atoms: C1_2  and  N2_4
REMARK    1  A    between atoms: N2_4  and  N3_6
ROOT
HETATM    1  N3  UNL     1      36.285  30.980 -44.147  1.00  0.00    -0.121 N
HETATM    2  N4  UNL     1      37.364  30.228 -44.355  1.00  0.00     0.009 NA
HETATM    3  N5  UNL     1      37.856  31.038 -45.285  1.00  0.00    -0.231 N
ATOM      4  H5  UNL     1      38.685  31.061 -45.880  1.00  0.00     0.189 HD
HETATM    5  C2  UNL     1      36.773  31.814 -45.090  1.00  0.00     0.372 A
HETATM    6  O2  UNL     1      36.358  32.913 -45.597  1.00  0.00    -0.242 OA
ENDROOT
BRANCH   1   7
HETATM    7  N2  UNL     1      35.166  30.917 -43.319  1.00  0.00    -0.230 N
HETATM    8  C1  UNL     1      33.894  30.616 -43.849  1.00  0.00     0.348 C
HETATM    9  N1  UNL     1      32.771  30.558 -42.990  1.00  0.00    -0.038 NA
HETATM   10  O1  UNL     1      33.761  30.398 -45.085  1.00  0.00    -0.249 OA
ATOM     11  H2  UNL     1      35.267  31.091 -42.319  1.00  0.00     0.193 HD
ENDBRANCH   1   7
TORSDOF 1
ENDMDL