MODEL 5
REMARK VINA RESULT: -5.777030840      2.756      3.923
REMARK  2 active torsions:
REMARK  status: ('A' for Active; 'I' for Inactive)
REMARK    1  A    between atoms: N2_3  and  C2_5
REMARK    2  A    between atoms: C3_8  and  N4_9
ROOT
HETATM    1  N1  UNL     1      21.616   3.128   4.422  1.00  0.00    -0.171 NA
HETATM    2  C1  UNL     1      22.560   3.224   5.110  1.00  0.00     0.196 C
HETATM    3  N2  UNL     1      23.695   3.354   5.915  1.00  0.00    -0.124 N
ATOM      4  H2  UNL     1      24.595   3.539   5.474  1.00  0.00     0.197 HD
ENDROOT
BRANCH   3   5
HETATM    5  C2  UNL     1      23.632   3.234   7.330  1.00  0.00     0.720 A
HETATM    6  N3  UNL     1      22.809   2.424   8.006  1.00  0.00    -0.019 N
HETATM    7  C3  UNL     1      23.012   2.561   9.338  1.00  0.00     0.705 A
ATOM      8  H3  UNL     1      22.128   1.795   7.581  1.00  0.00     0.203 HD
HETATM    9  N5  UNL     1      23.980   3.477   9.475  1.00  0.00    -0.118 N
HETATM   10  N6  UNL     1      24.351   3.879   8.260  1.00  0.00    -0.117 N
ATOM     11  H5  UNL     1      24.368   3.809  10.359  1.00  0.00     0.206 HD
ATOM     12  H6  UNL     1      25.074   4.573   8.067  1.00  0.00     0.206 HD
BRANCH   7  13
HETATM   13  N4  UNL     1      22.430   1.967  10.319  1.00  0.00    -0.233 N
ATOM     14  H42 UNL     1      21.506   1.538  10.266  1.00  0.00     0.174 HD
ATOM     15  H41 UNL     1      22.757   1.820  11.273  1.00  0.00     0.174 HD
ENDBRANCH   7  13
ENDBRANCH   3   5
TORSDOF 2
ENDMDL