MODEL 1
REMARK VINA RESULT: -5.255946931      0.000      0.000
REMARK  3 active torsions:
REMARK  status: ('A' for Active; 'I' for Inactive)
REMARK    1  A    between atoms: N1_1  and  N2_4
REMARK    2  A    between atoms: N2_4  and  N3_6
REMARK    3  A    between atoms: N3_6  and  C1_8
ROOT
HETATM    1  N3  UNL     1      23.304   2.680  10.056  1.00  0.00    -0.265 N
ATOM      2  H3  UNL     1      23.483   2.233  10.954  1.00  0.00     0.190 HD
ENDROOT
BRANCH   1   3
HETATM    3  N2  UNL     1      23.846   3.916   9.846  1.00  0.00    -0.247 N
ATOM      4  H2  UNL     1      23.303   4.750  10.064  1.00  0.00     0.207 HD
BRANCH   3   5
HETATM    5  N1  UNL     1      25.131   4.044   9.337  1.00  0.00    -0.331 N
ATOM      6  H12 UNL     1      25.550   3.248   8.857  1.00  0.00     0.178 HD
ATOM      7  H11 UNL     1      25.645   4.919   9.442  1.00  0.00     0.178 HD
ENDBRANCH   3   5
ENDBRANCH   1   3
BRANCH   1   8
HETATM    8  C1  UNL     1      22.577   2.032   9.195  1.00  0.00     0.164 A
HETATM    9  N4  UNL     1      22.236   0.749   9.127  1.00  0.00    -0.345 N
HETATM   10  C2  UNL     1      21.484   0.347   8.145  1.00  0.00     0.097 A
ATOM     11  H4  UNL     1      22.559   0.090   9.835  1.00  0.00     0.167 HD
HETATM   12  C3  UNL     1      21.082   1.281   7.223  1.00  0.00     0.070 A
HETATM   13  S1  UNL     1      21.815   2.702   7.828  1.00  0.00    -0.063 SA
ENDBRANCH   1   8
TORSDOF 3
ENDMDL