MODEL 1
REMARK VINA RESULT: -5.818504841      0.000      0.000
REMARK  2 active torsions:
REMARK  status: ('A' for Active; 'I' for Inactive)
REMARK    1  A    between atoms: C1_4  and  C2_5
REMARK    2  A    between atoms: C4_11  and  N4_12
ROOT
HETATM    1  C2  UNL     1      21.638   2.329   7.470  1.00  0.00     0.076 A
HETATM    2  N2  UNL     1      21.073   1.563   8.419  1.00  0.00    -0.350 N
ATOM      3  H2  UNL     1      20.237   1.024   8.192  1.00  0.00     0.166 HD
HETATM    4  C3  UNL     1      21.592   1.489   9.680  1.00  0.00     0.182 A
HETATM    5  N3  UNL     1      22.690   2.186  10.013  1.00  0.00    -0.337 N
ATOM      6  H3  UNL     1      23.064   2.119  10.959  1.00  0.00     0.168 HD
HETATM    7  C4  UNL     1      23.300   2.970   9.109  1.00  0.00     0.126 A
HETATM    8  C5  UNL     1      22.776   3.047   7.827  1.00  0.00     0.117 A
HETATM    9  N5  UNL     1      23.360   3.846   6.829  1.00  0.00    -0.096 NA
ENDROOT
BRANCH   1  10
HETATM   10  C1  UNL     1      21.080   2.403   6.128  1.00  0.00     0.112 C
HETATM   11  N1  UNL     1      21.786   2.100   5.094  1.00  0.00    -0.406 N
ATOM     12  H12 UNL     1      22.752   1.806   5.236  1.00  0.00     0.155 HD
ATOM     13  H11 UNL     1      21.394   2.152   4.154  1.00  0.00     0.155 HD
ENDBRANCH   1  10
BRANCH   7  14
HETATM   14  N4  UNL     1      24.355   3.652   9.397  1.00  0.00    -0.384 N
ATOM     15  H42 UNL     1      24.647   3.727  10.371  1.00  0.00     0.157 HD
ATOM     16  H41 UNL     1      24.909   4.120   8.680  1.00  0.00     0.157 HD
ENDBRANCH   7  14
TORSDOF 2
ENDMDL