MODEL 5
REMARK VINA RESULT: -5.421535246     10.644     11.342
REMARK  2 active torsions:
REMARK  status: ('A' for Active; 'I' for Inactive)
REMARK    1  A    between atoms: C2_2  and  N1_3
REMARK    2  A    between atoms: N1_3  and  C3_5
ROOT
HETATM    1  C3  UNL     1      22.304   3.024   8.139  1.00  0.00     0.298 A
HETATM    2  N2  UNL     1      22.156   3.402   9.502  1.00  0.00    -0.092 NA
HETATM    3  N3  UNL     1      23.379   3.865   9.984  1.00  0.00    -0.274 N
ATOM      4  H3  UNL     1      23.545   4.199  10.933  1.00  0.00     0.185 HD
HETATM    5  C4  UNL     1      24.276   3.808   9.046  1.00  0.00     0.202 A
HETATM    6  N4  UNL     1      25.651   4.194   9.152  1.00  0.00    -0.062 NA
HETATM    7  N5  UNL     1      23.718   3.295   7.844  1.00  0.00    -0.328 N
ATOM      8  H5  UNL     1      24.200   3.146   6.958  1.00  0.00     0.165 HD
ENDROOT
BRANCH   1   9
HETATM    9  N1  UNL     1      22.069   1.653   7.860  1.00  0.00    -0.388 N
ATOM     10  H1  UNL     1      22.159   1.270   6.919  1.00  0.00     0.156 HD
BRANCH   9  11
HETATM   11  C2  UNL     1      21.700   0.843   8.971  1.00  0.00     0.112 C
HETATM   12  C1  UNL     1      20.234   0.450   8.795  1.00  0.00     0.026 C
ENDBRANCH   9  11
ENDBRANCH   1   9
TORSDOF 2
ENDMDL