MODEL 5
REMARK VINA RESULT: -5.298349143      3.338      4.436
REMARK  4 active torsions:
REMARK  status: ('A' for Active; 'I' for Inactive)
REMARK    1  A    between atoms: N1_1  and  C1_4
REMARK    2  A    between atoms: C3_8  and  C4_9
REMARK    3  A    between atoms: C4_9  and  N3_10
REMARK    4  A    between atoms: N3_10  and  N4_11
ROOT
HETATM    1  C1  UNL     1      22.121   2.764   4.708  1.00  0.00     0.114 A
HETATM    2  C2  UNL     1      21.293   2.461   5.753  1.00  0.00     0.136 A
HETATM    3  N2  UNL     1      21.663   2.630   7.055  1.00  0.00    -0.363 N
ATOM      4  H2  UNL     1      21.014   2.390   7.804  1.00  0.00     0.165 HD
HETATM    5  C3  UNL     1      22.874   3.110   7.353  1.00  0.00     0.041 A
HETATM    6  C5  UNL     1      23.729   3.428   6.302  1.00  0.00     0.116 A
HETATM    7  N5  UNL     1      23.337   3.251   5.006  1.00  0.00    -0.350 N
ATOM      8  H5  UNL     1      23.978   3.493   4.250  1.00  0.00     0.166 HD
ENDROOT
BRANCH   5   9
HETATM    9  C4  UNL     1      23.323   3.221   8.767  1.00  0.00     0.192 C
BRANCH   9  10
HETATM   10  N3  UNL     1      22.184   2.988   9.650  1.00  0.00    -0.142 NA
BRANCH  10  11
HETATM   11  N4  UNL     1      22.375   1.765  10.406  1.00  0.00    -0.348 N
ATOM     12  H42 UNL     1      21.753   1.451  11.151  1.00  0.00     0.172 HD
ATOM     13  H41 UNL     1      23.211   1.278  10.085  1.00  0.00     0.172 HD
ENDBRANCH  10  11
ENDBRANCH   9  10
ENDBRANCH   5   9
BRANCH   1  14
HETATM   14  N1  UNL     1      21.757   2.582   3.457  1.00  0.00    -0.384 N
ATOM     15  H12 UNL     1      21.166   1.792   3.195  1.00  0.00     0.157 HD
ATOM     16  H11 UNL     1      22.041   3.219   2.713  1.00  0.00     0.157 HD
ENDBRANCH   1  14
TORSDOF 4
ENDMDL