MODEL 1
REMARK VINA RESULT: -6.079966675      0.000      0.000
REMARK  3 active torsions:
REMARK  status: ('A' for Active; 'I' for Inactive)
REMARK    1  A    between atoms: C4_5  and  C5_6
REMARK    2  A    between atoms: C5_6  and  N2_7
REMARK    3  A    between atoms: C5_6  and  N3_11
ROOT
HETATM    1  C5  UNL     1      23.017   2.823   9.217  1.00  0.00     0.427 C
ENDROOT
BRANCH   1   2
HETATM    2  C4  UNL     1      21.824   1.909   9.126  1.00  0.00     0.068 A
HETATM    3  C3  UNL     1      21.651   0.820   8.300  1.00  0.00     0.032 A
HETATM    4  C2  UNL     1      20.406   0.281   8.559  1.00  0.00     0.047 A
HETATM    5  C1  UNL     1      19.811   1.058   9.564  1.00  0.00     0.116 A
HETATM    6  N1  UNL     1      18.526   0.830  10.111  1.00  0.00    -0.083 NA
HETATM    7  N4  UNL     1      20.710   2.008   9.854  1.00  0.00    -0.345 N
ATOM      8  H4  UNL     1      20.558   2.732  10.557  1.00  0.00     0.167 HD
ENDBRANCH   1   2
BRANCH   1   9
HETATM    9  N2  UNL     1      23.376   3.193   7.865  1.00  0.00    -0.045 N
ATOM     10  H23 UNL     1      24.382   3.293   7.732  1.00  0.00     0.277 HD
ATOM     11  H22 UNL     1      23.228   2.441   7.192  1.00  0.00     0.277 HD
ATOM     12  H21 UNL     1      22.857   4.041   7.635  1.00  0.00     0.277 HD
ENDBRANCH   1   9
BRANCH   1  13
HETATM   13  N3  UNL     1      22.735   3.934  10.067  1.00  0.00    -0.045 N
ATOM     14  H33 UNL     1      22.819   4.821   9.571  1.00  0.00     0.277 HD
ATOM     15  H32 UNL     1      21.744   3.986  10.305  1.00  0.00     0.277 HD
ATOM     16  H31 UNL     1      23.324   3.907  10.899  1.00  0.00     0.277 HD
ENDBRANCH   1  13
TORSDOF 3
ENDMDL