MODEL 2
REMARK VINA RESULT: -5.697856349     10.466     11.757
REMARK  3 active torsions:
REMARK  status: ('A' for Active; 'I' for Inactive)
REMARK    1  A    between atoms: N1_1  and  C1_4
REMARK    2  A    between atoms: C2_7  and  N3_8
REMARK    3  A    between atoms: N4_10  and  N5_12
ROOT
HETATM    1  C1  UNL     1      15.174  -3.863   1.687  1.00  0.00     0.705 A
HETATM    2  N2  UNL     1      16.094  -3.186   0.984  1.00  0.00    -0.019 N
ATOM      3  H2  UNL     1      16.521  -3.490   0.110  1.00  0.00     0.203 HD
HETATM    4  C2  UNL     1      16.358  -2.036   1.632  1.00  0.00     0.727 A
HETATM    5  N6  UNL     1      15.602  -1.987   2.745  1.00  0.00    -0.116 N
ATOM      6  H6  UNL     1      15.580  -1.240   3.438  1.00  0.00     0.206 HD
HETATM    7  N7  UNL     1      14.894  -3.102   2.757  1.00  0.00    -0.117 N
ATOM      8  H7  UNL     1      14.224  -3.352   3.484  1.00  0.00     0.206 HD
ENDROOT
BRANCH   4   9
HETATM    9  N3  UNL     1      17.296  -1.084   1.147  1.00  0.00    -0.116 N
HETATM   10  N4  UNL     1      16.937  -0.084   0.489  1.00  0.00    -0.235 N
ATOM     11  H4  UNL     1      17.632   0.583   0.153  1.00  0.00     0.208 HD
ATOM     12  H3  UNL     1      18.288  -1.220   1.342  1.00  0.00     0.207 HD
BRANCH  10  13
HETATM   13  N5  UNL     1      15.598   0.118   0.216  1.00  0.00    -0.330 N
ATOM     14  H52 UNL     1      14.970   0.370   0.979  1.00  0.00     0.178 HD
ATOM     15  H51 UNL     1      15.251   0.014  -0.737  1.00  0.00     0.178 HD
ENDBRANCH  10  13
ENDBRANCH   4   9
BRANCH   1  16
HETATM   16  N1  UNL     1      14.649  -5.029   1.395  1.00  0.00    -0.233 N
ATOM     17  H12 UNL     1      13.908  -5.508   1.906  1.00  0.00     0.174 HD
ATOM     18  H11 UNL     1      14.893  -5.640   0.616  1.00  0.00     0.174 HD
ENDBRANCH   1  16
TORSDOF 3
ENDMDL