MODEL 3
REMARK VINA RESULT: -5.958937178      9.914     11.148
REMARK  4 active torsions:
REMARK  status: ('A' for Active; 'I' for Inactive)
REMARK    1  A    between atoms: N1_1  and  N2_4
REMARK    2  A    between atoms: N2_4  and  N3_5
REMARK    3  A    between atoms: N3_5  and  C1_7
REMARK    4  A    between atoms: C2_10  and  N5_11
ROOT
HETATM    1  C1  UNL     1      23.139   2.777   8.924  1.00  0.00     0.738 A
HETATM    2  N4  UNL     1      22.281   2.084   8.152  1.00  0.00    -0.018 N
ATOM      3  H4  UNL     1      22.200   2.186   7.140  1.00  0.00     0.203 HD
HETATM    4  C2  UNL     1      21.554   1.248   8.886  1.00  0.00     0.705 A
HETATM    5  N6  UNL     1      21.951   1.404  10.159  1.00  0.00    -0.117 N
ATOM      6  H6  UNL     1      21.584   0.903  10.968  1.00  0.00     0.206 HD
HETATM    7  N7  UNL     1      22.902   2.323  10.173  1.00  0.00    -0.115 N
ATOM      8  H7  UNL     1      23.388   2.643  11.011  1.00  0.00     0.206 HD
ENDROOT
BRANCH   1   9
HETATM    9  N3  UNL     1      24.067   3.754   8.473  1.00  0.00    -0.044 N
ATOM     10  H3  UNL     1      23.879   4.233   7.593  1.00  0.00     0.223 HD
BRANCH   9  11
HETATM   11  N2  UNL     1      25.191   4.077   9.159  1.00  0.00    -0.229 NA
BRANCH  11  12
HETATM   12  N1  UNL     1      26.128   4.357   9.718  1.00  0.00    -0.260 N
ATOM     13  H12 UNL     1      25.464   3.599   9.561  1.00  0.00     0.193 HD
ATOM     14  H11 UNL     1      26.976   4.624  10.218  1.00  0.00     0.193 HD
ENDBRANCH  11  12
ENDBRANCH   9  11
ENDBRANCH   1   9
BRANCH   4  15
HETATM   15  N5  UNL     1      20.619   0.409   8.532  1.00  0.00    -0.233 N
ATOM     16  H52 UNL     1      19.962   0.599   7.775  1.00  0.00     0.174 HD
ATOM     17  H51 UNL     1      20.385  -0.512   8.903  1.00  0.00     0.174 HD
ENDBRANCH   4  15
TORSDOF 4
ENDMDL