MODEL 3
REMARK VINA RESULT: -5.706562278      0.708      1.005
REMARK  2 active torsions:
REMARK  status: ('A' for Active; 'I' for Inactive)
REMARK    1  A    between atoms: N1_2  and  C2_4
REMARK    2  A    between atoms: C3_7  and  N3_8
ROOT
HETATM    1  C2  UNL     1      20.824   2.151   9.449  1.00  0.00     0.707 A
HETATM    2  N2  UNL     1      21.638   2.770   8.749  1.00  0.00    -0.018 N
ATOM      3  H2  UNL     1      21.236   3.297   7.974  1.00  0.00     0.203 HD
HETATM    4  C3  UNL     1      22.901   2.842   8.857  1.00  0.00     0.726 A
HETATM    5  N5  UNL     1      23.097   2.059   9.943  1.00  0.00    -0.116 N
ATOM      6  H5  UNL     1      24.013   1.867  10.349  1.00  0.00     0.206 HD
HETATM    7  N6  UNL     1      22.040   1.604  10.383  1.00  0.00    -0.117 N
ATOM      8  H6  UNL     1      21.944   0.991  11.192  1.00  0.00     0.206 HD
ENDROOT
BRANCH   4   9
HETATM    9  N3  UNL     1      23.935   3.512   8.141  1.00  0.00    -0.137 N
HETATM   10  N4  UNL     1      23.863   3.748   6.911  1.00  0.00    -0.331 N
ATOM     11  H42 UNL     1      23.024   3.442   6.419  1.00  0.00     0.177 HD
ATOM     12  H41 UNL     1      24.604   4.228   6.399  1.00  0.00     0.177 HD
ATOM     13  H3  UNL     1      24.768   3.811   8.649  1.00  0.00     0.205 HD
ENDBRANCH   4   9
BRANCH   1  14
HETATM   14  N1  UNL     1      19.982   1.513  10.172  1.00  0.00    -0.229 N
HETATM   15  C1  UNL     1      18.679   1.904  10.532  1.00  0.00     0.165 C
ATOM     16  H1  UNL     1      20.293   0.609  10.530  1.00  0.00     0.177 HD
ENDBRANCH   1  14
TORSDOF 2
ENDMDL