MODEL 4
REMARK VINA RESULT: -4.904460482      1.718      2.239
REMARK  5 active torsions:
REMARK  status: ('A' for Active; 'I' for Inactive)
REMARK    1  A    between atoms: C4_6  and  C5_7
REMARK    2  A    between atoms: C5_7  and  N2_8
REMARK    3  A    between atoms: C5_7  and  C6_12
REMARK    4  A    between atoms: C6_12  and  N3_13
REMARK    5  A    between atoms: C6_12  and  N4_17
ROOT
HETATM    1  C5  UNL     1       9.903   3.871  21.239  1.00  0.00     0.291 C
ENDROOT
BRANCH   1   2
HETATM    2  C4  UNL     1      10.498   3.458  19.944  1.00  0.00     0.060 A
HETATM    3  C3  UNL     1      11.777   2.964  19.807  1.00  0.00     0.116 A
HETATM    4  N1  UNL     1      11.981   2.699  18.517  1.00  0.00    -0.354 N
HETATM    5  C2  UNL     1      10.876   3.006  17.829  1.00  0.00     0.077 A
ATOM      6  H1  UNL     1      12.840   2.322  18.119  1.00  0.00     0.166 HD
HETATM    7  C1  UNL     1      10.749   2.836  16.358  1.00  0.00     0.089 C
HETATM    8  N5  UNL     1       9.966   3.474  18.714  1.00  0.00    -0.347 N
ATOM      9  H5  UNL     1       9.024   3.790  18.481  1.00  0.00     0.167 HD
ENDBRANCH   1   2
BRANCH   1  10
HETATM   10  N2  UNL     1       8.464   3.686  21.200  1.00  0.00    -0.066 N
ATOM     11  H23 UNL     1       7.977   4.341  21.811  1.00  0.00     0.275 HD
ATOM     12  H22 UNL     1       8.063   3.988  20.312  1.00  0.00     0.275 HD
ATOM     13  H21 UNL     1       8.234   2.716  21.415  1.00  0.00     0.275 HD
ENDBRANCH   1  10
BRANCH   1  14
HETATM   14  C6  UNL     1      10.482   3.033  22.388  1.00  0.00     0.413 C
BRANCH  14  15
HETATM   15  N3  UNL     1       9.491   2.098  22.877  1.00  0.00    -0.048 N
ATOM     16  H33 UNL     1       9.841   1.139  22.880  1.00  0.00     0.276 HD
ATOM     17  H32 UNL     1       9.331   2.203  23.879  1.00  0.00     0.276 HD
ATOM     18  H31 UNL     1       8.627   2.185  22.343  1.00  0.00     0.276 HD
ENDBRANCH  14  15
BRANCH  14  19
HETATM   19  N4  UNL     1      10.957   3.944  23.373  1.00  0.00    -0.048 N
ATOM     20  H43 UNL     1      11.921   4.238  23.213  1.00  0.00     0.276 HD
ATOM     21  H42 UNL     1      10.526   4.866  23.307  1.00  0.00     0.276 HD
ATOM     22  H41 UNL     1      10.820   3.502  24.282  1.00  0.00     0.276 HD
ENDBRANCH  14  19
ENDBRANCH   1  14
TORSDOF 5
ENDMDL