MODEL 3
REMARK VINA RESULT: -4.646179419      2.283      3.510
REMARK  4 active torsions:
REMARK  status: ('A' for Active; 'I' for Inactive)
REMARK    1  A    between atoms: N1_1  and  N2_4
REMARK    2  A    between atoms: N2_4  and  N3_5
REMARK    3  A    between atoms: N3_5  and  O1_6
REMARK    4  A    between atoms: N3_5  and  C1_8
ROOT
HETATM    1  C1  UNL     1       8.685   1.490  21.175  1.00  0.00     0.259 C
HETATM    2  C2  UNL     1       9.202   1.094  19.843  1.00  0.00     0.165 C
HETATM    3  N4  UNL     1       8.213   0.717  18.910  1.00  0.00    -0.415 N
ATOM      4  H4  UNL     1       8.406  -0.008  18.219  1.00  0.00     0.153 HD
HETATM    5  C3  UNL     1       6.972   1.344  18.942  1.00  0.00     0.140 C
HETATM    6  C4  UNL     1       6.988   2.427  20.028  1.00  0.00     0.189 C
HETATM    7  O2  UNL     1       7.322   1.750  21.212  1.00  0.00    -0.364 OA
ENDROOT
BRANCH   1   8
HETATM    8  N3  UNL     1       9.356   2.683  21.668  1.00  0.00    -0.060 NA
BRANCH   8   9
HETATM    9  N2  UNL     1      10.512   2.984  20.972  1.00  0.00    -0.027 NA
BRANCH   9  10
HETATM   10  N1  UNL     1      11.483   3.356  21.932  1.00  0.00    -0.331 N
ATOM     11  H12 UNL     1      11.294   3.771  22.844  1.00  0.00     0.173 HD
ATOM     12  H11 UNL     1      12.394   3.128  21.534  1.00  0.00     0.173 HD
ENDBRANCH   9  10
ENDBRANCH   8   9
BRANCH   8  13
HETATM   13  O1  UNL     1       9.689   2.450  22.967  1.00  0.00    -0.293 OA
ATOM     14  H1  UNL     1      10.071   1.582  23.024  1.00  0.00     0.238 HD
ENDBRANCH   8  13
ENDBRANCH   1   8
TORSDOF 4
ENDMDL