MODEL 4
REMARK VINA RESULT: -5.250704567      1.295      1.295
REMARK  4 active torsions:
REMARK  status: ('A' for Active; 'I' for Inactive)
REMARK    1  A    between atoms: N1_2  and  N2_4
REMARK    2  A    between atoms: N2_4  and  C2_6
REMARK    3  A    between atoms: C5_13  and  N5_14
REMARK    4  A    between atoms: N5_14  and  N6_16
ROOT
HETATM    1  C2  UNL     1       9.630   3.698  20.788  1.00  0.00     0.108 A
HETATM    2  C3  UNL     1       9.790   3.414  19.442  1.00  0.00     0.123 A
HETATM    3  N3  UNL     1      11.019   3.069  19.012  1.00  0.00    -0.360 N
ATOM      4  H3  UNL     1      11.151   2.855  18.024  1.00  0.00     0.166 HD
HETATM    5  C4  UNL     1      12.077   2.995  19.838  1.00  0.00     0.182 A
HETATM    6  N4  UNL     1      11.879   3.283  21.132  1.00  0.00    -0.336 N
ATOM      7  H4  UNL     1      12.682   3.231  21.761  1.00  0.00     0.168 HD
HETATM    8  C5  UNL     1      10.708   3.631  21.650  1.00  0.00     0.150 A
ENDROOT
BRANCH   1   9
HETATM    9  N2  UNL     1       8.302   4.051  21.210  1.00  0.00    -0.301 N
ATOM     10  H2  UNL     1       8.199   4.472  22.134  1.00  0.00     0.186 HD
BRANCH   9  11
HETATM   11  N1  UNL     1       7.179   3.869  20.484  1.00  0.00    -0.340 N
HETATM   12  C1  UNL     1       6.210   4.881  20.483  1.00  0.00     0.167 C
ATOM     13  H1  UNL     1       7.039   3.012  19.947  1.00  0.00     0.179 HD
ENDBRANCH   9  11
ENDBRANCH   1   9
BRANCH   8  14
HETATM   14  N5  UNL     1      10.521   3.912  22.903  1.00  0.00    -0.290 N
ATOM     15  H5  UNL     1       9.570   4.041  23.250  1.00  0.00     0.188 HD
BRANCH  14  16
HETATM   16  N6  UNL     1      11.585   4.040  23.777  1.00  0.00    -0.344 N
ATOM     17  H62 UNL     1      12.376   4.620  23.497  1.00  0.00     0.176 HD
ATOM     18  H61 UNL     1      11.587   3.567  24.682  1.00  0.00     0.176 HD
ENDBRANCH  14  16
ENDBRANCH   8  14
TORSDOF 4
ENDMDL