MODEL 1
REMARK VINA RESULT: -5.976299231      0.000      0.000
REMARK  2 active torsions:
REMARK  status: ('A' for Active; 'I' for Inactive)
REMARK       I    between atoms: N1_1  and  C1_5
REMARK       I    between atoms: C1_5  and  N2_6
REMARK       I    between atoms: C1_5  and  N3_10
REMARK    1  A    between atoms: N3_10  and  N4_12
REMARK    2  A    between atoms: C2_14  and  C3_15
ROOT
HETATM    1  N1  UNL     1      11.667   3.674  21.709  1.00  0.00    -0.032 N
ATOM      2  H11 UNL     1      11.817   2.846  21.131  1.00  0.00     0.279 HD
ATOM      3  H12 UNL     1      12.502   4.256  21.780  1.00  0.00     0.279 HD
ATOM      4  H13 UNL     1      11.057   4.357  21.261  1.00  0.00     0.279 HD
HETATM    5  C1  UNL     1      11.171   3.253  23.011  1.00  0.00     0.494 C
HETATM    6  N2  UNL     1      10.961   4.415  23.822  1.00  0.00    -0.032 N
ATOM      7  H21 UNL     1      10.613   4.120  24.734  1.00  0.00     0.279 HD
ATOM      8  H22 UNL     1      10.350   5.098  23.374  1.00  0.00     0.279 HD
ATOM      9  H23 UNL     1      11.796   4.997  23.893  1.00  0.00     0.279 HD
HETATM   10  N3  UNL     1       9.911   2.542  22.746  1.00  0.00    -0.284 N
ATOM     11  H3  UNL     1       9.030   2.867  23.145  1.00  0.00     0.184 HD
ENDROOT
BRANCH  10  12
HETATM   12  N4  UNL     1       9.957   1.410  21.931  1.00  0.00    -0.311 N
HETATM   13  C2  UNL     1       9.206   1.218  20.921  1.00  0.00     0.137 C
ATOM     14  H4  UNL     1      10.640   0.688  22.161  1.00  0.00     0.185 HD
BRANCH  13  15
HETATM   15  C3  UNL     1       8.211   2.190  20.523  1.00  0.00     0.066 A
HETATM   16  C4  UNL     1       8.353   3.355  19.815  1.00  0.00     0.051 A
HETATM   17  C5  UNL     1       7.123   3.968  19.671  1.00  0.00     0.109 A
HETATM   18  N5  UNL     1       6.254   3.153  20.300  1.00  0.00    -0.311 N
HETATM   19  N6  UNL     1       6.878   2.115  20.800  1.00  0.00    -0.300 N
ATOM     20  H5  UNL     1       5.250   3.320  20.376  1.00  0.00     0.186 HD
ATOM     21  H6  UNL     1       6.432   1.361  21.322  1.00  0.00     0.187 HD
ENDBRANCH  13  15
ENDBRANCH  10  12
TORSDOF 2
ENDMDL