MODEL 4
REMARK VINA RESULT: -4.901940348      2.311      4.822
REMARK  6 active torsions:
REMARK  status: ('A' for Active; 'I' for Inactive)
REMARK    1  A    between atoms: N1_1  and  C1_4
REMARK    2  A    between atoms: N3_8  and  C3_9
REMARK    3  A    between atoms: C3_9  and  C4_10
REMARK    4  A    between atoms: C4_10  and  C5_11
REMARK    5  A    between atoms: C5_11  and  N4_12
REMARK    6  A    between atoms: C5_11  and  N5_16
ROOT
HETATM    1  C3  UNL     1       8.603   1.362  21.204  1.00  0.00     0.173 C
ENDROOT
BRANCH   1   2
HETATM    2  N3  UNL     1       9.739   2.162  21.573  1.00  0.00    -0.233 N
HETATM    3  N2  UNL     1      10.795   2.514  20.827  1.00  0.00    -0.292 N
HETATM    4  C2  UNL     1      11.637   3.270  21.554  1.00  0.00     0.158 A
ATOM      5  H2  UNL     1      10.939   2.248  19.852  1.00  0.00     0.188 HD
HETATM    6  C1  UNL     1      11.045   3.373  22.804  1.00  0.00     0.132 A
HETATM    7  N6  UNL     1       9.888   2.687  22.785  1.00  0.00    -0.268 N
ATOM      8  H6  UNL     1       9.238   2.587  23.565  1.00  0.00     0.190 HD
BRANCH   6   9
HETATM    9  N1  UNL     1      11.566   4.037  23.796  1.00  0.00    -0.383 N
ATOM     10  H12 UNL     1      11.621   3.760  24.776  1.00  0.00     0.157 HD
ATOM     11  H11 UNL     1      11.996   4.956  23.695  1.00  0.00     0.157 HD
ENDBRANCH   6   9
ENDBRANCH   1   2
BRANCH   1  12
HETATM   12  C4  UNL     1       8.446   1.208  19.711  1.00  0.00     0.085 C
BRANCH  12  13
HETATM   13  C5  UNL     1       7.050   1.745  19.371  1.00  0.00     0.379 C
BRANCH  13  14
HETATM   14  N4  UNL     1       6.399   2.300  20.516  1.00  0.00    -0.050 N
ATOM     15  H43 UNL     1       6.994   2.983  20.986  1.00  0.00     0.276 HD
ATOM     16  H42 UNL     1       5.631   2.914  20.245  1.00  0.00     0.276 HD
ATOM     17  H41 UNL     1       6.084   1.576  21.162  1.00  0.00     0.276 HD
ENDBRANCH  13  14
BRANCH  13  18
HETATM   18  N5  UNL     1       6.320   0.660  18.779  1.00  0.00    -0.050 N
ATOM     19  H53 UNL     1       6.337   0.673  17.760  1.00  0.00     0.276 HD
ATOM     20  H52 UNL     1       6.774  -0.245  18.905  1.00  0.00     0.276 HD
ATOM     21  H51 UNL     1       5.376   0.693  19.165  1.00  0.00     0.276 HD
ENDBRANCH  13  18
ENDBRANCH  12  13
ENDBRANCH   1  12
TORSDOF 6
ENDMDL