MODEL 2
REMARK VINA RESULT: -5.199221856      2.552      3.368
REMARK  6 active torsions:
REMARK  status: ('A' for Active; 'I' for Inactive)
REMARK    1  A    between atoms: N1_1  and  C1_4
REMARK    2  A    between atoms: C2_7  and  C3_8
REMARK    3  A    between atoms: C3_8  and  C4_9
REMARK    4  A    between atoms: C4_9  and  N3_10
REMARK    5  A    between atoms: C4_9  and  C5_14
REMARK    6  A    between atoms: C5_14  and  N4_15
ROOT
HETATM    1  C3  UNL     1       9.430   2.415  19.403  1.00  0.00     0.121 C
ENDROOT
BRANCH   1   2
HETATM    2  C2  UNL     1       9.757   2.613  20.840  1.00  0.00     0.164 A
HETATM    3  N2  UNL     1      10.689   3.462  21.351  1.00  0.00    -0.171 N
HETATM    4  C1  UNL     1      10.690   3.357  22.682  1.00  0.00     0.697 A
ATOM      5  H2  UNL     1      11.289   4.080  20.805  1.00  0.00     0.186 HD
HETATM    6  N5  UNL     1       9.758   2.441  22.995  1.00  0.00    -0.090 N
HETATM    7  O1  UNL     1       9.230   2.026  21.883  1.00  0.00    -0.209 OA
ATOM      8  H5  UNL     1       9.510   2.130  23.934  1.00  0.00     0.213 HD
BRANCH   4   9
HETATM    9  N1  UNL     1      11.406   3.970  23.564  1.00  0.00    -0.233 N
ATOM     10  H12 UNL     1      11.854   3.498  24.349  1.00  0.00     0.174 HD
ATOM     11  H11 UNL     1      11.644   4.958  23.645  1.00  0.00     0.174 HD
ENDBRANCH   4   9
ENDBRANCH   1   2
BRANCH   1  12
HETATM   12  C4  UNL     1       9.939   1.076  18.915  1.00  0.00     0.216 C
BRANCH  12  13
HETATM   13  N3  UNL     1      10.637   0.360  19.967  1.00  0.00    -0.073 N
ATOM     14  H33 UNL     1      11.585   0.714  20.094  1.00  0.00     0.274 HD
ATOM     15  H32 UNL     1      10.260   0.586  20.887  1.00  0.00     0.274 HD
ATOM     16  H31 UNL     1      10.634  -0.645  19.798  1.00  0.00     0.274 HD
ENDBRANCH  12  13
BRANCH  12  17
HETATM   17  C5  UNL     1       8.790   0.186  18.486  1.00  0.00     0.262 C
BRANCH  17  18
HETATM   18  N4  UNL     1       9.178  -1.212  18.474  1.00  0.00    -0.077 N
ATOM     19  H43 UNL     1       8.572  -1.764  17.868  1.00  0.00     0.274 HD
ATOM     20  H42 UNL     1      10.061  -1.351  17.982  1.00  0.00     0.274 HD
ATOM     21  H41 UNL     1       9.212  -1.597  19.419  1.00  0.00     0.274 HD
ENDBRANCH  17  18
ENDBRANCH  12  17
ENDBRANCH   1  12
TORSDOF 6
ENDMDL