MODEL 5
REMARK VINA RESULT: -5.506847216      1.776      3.565
REMARK  4 active torsions:
REMARK  status: ('A' for Active; 'I' for Inactive)
REMARK    1  A    between atoms: N1_1  and  C1_4
REMARK    2  A    between atoms: N5_12  and  C3_13
REMARK    3  A    between atoms: C3_13  and  C4_14
REMARK    4  A    between atoms: C4_14  and  N6_15
ROOT
HETATM    1  C1  UNL     1      10.547   3.384  22.731  1.00  0.00     0.679 A
HETATM    2  N2  UNL     1      10.412   2.087  22.405  1.00  0.00    -0.172 N
ATOM      3  H2  UNL     1      10.959   1.323  22.801  1.00  0.00     0.186 HD
HETATM    4  C2  UNL     1       9.444   1.945  21.475  1.00  0.00     0.183 A
HETATM    5  N3  UNL     1       8.755   1.101  20.698  1.00  0.00    -0.267 N
ATOM      6  H3  UNL     1       8.875   0.090  20.655  1.00  0.00     0.190 HD
HETATM    7  N4  UNL     1       7.884   1.817  19.991  1.00  0.00    -0.237 N
ATOM      8  H4  UNL     1       7.227   1.426  19.316  1.00  0.00     0.208 HD
HETATM    9  N5  UNL     1       7.981   3.086  20.278  1.00  0.00    -0.257 N
HETATM   10  C5  UNL     1       8.949   3.202  21.204  1.00  0.00     0.185 A
HETATM   11  N7  UNL     1       9.643   4.039  21.983  1.00  0.00    -0.172 N
ATOM     12  H7  UNL     1       9.504   5.050  22.007  1.00  0.00     0.186 HD
ENDROOT
BRANCH   9  13
HETATM   13  C3  UNL     1       7.217   4.187  19.729  1.00  0.00     0.179 C
BRANCH  13  14
HETATM   14  C4  UNL     1       5.881   4.340  20.419  1.00  0.00     0.251 C
BRANCH  14  15
HETATM   15  N6  UNL     1       6.026   5.486  21.330  1.00  0.00    -0.078 N
ATOM     16  H63 UNL     1       5.515   6.315  21.026  1.00  0.00     0.274 HD
ATOM     17  H62 UNL     1       5.543   5.363  22.220  1.00  0.00     0.274 HD
ATOM     18  H61 UNL     1       7.030   5.640  21.429  1.00  0.00     0.274 HD
ENDBRANCH  14  15
ENDBRANCH  13  14
ENDBRANCH   9  13
BRANCH   1  19
HETATM   19  N1  UNL     1      11.366   3.933  23.584  1.00  0.00    -0.234 N
ATOM     20  H12 UNL     1      11.548   3.598  24.530  1.00  0.00     0.174 HD
ATOM     21  H11 UNL     1      11.950   4.761  23.470  1.00  0.00     0.174 HD
ENDBRANCH   1  19
TORSDOF 4
ENDMDL