MODEL 5
REMARK VINA RESULT: -5.611076536      1.254      1.657
REMARK  2 active torsions:
REMARK  status: ('A' for Active; 'I' for Inactive)
REMARK       I    between atoms: N1_1  and  C1_5
REMARK       I    between atoms: C1_5  and  N2_6
REMARK       I    between atoms: C1_5  and  N3_10
REMARK    1  A    between atoms: N3_10  and  N4_12
REMARK    2  A    between atoms: C2_14  and  C3_15
ROOT
HETATM    1  N1  UNL     1      11.940   3.399  21.589  1.00  0.00    -0.032 N
ATOM      2  H11 UNL     1      12.072   2.861  20.733  1.00  0.00     0.279 HD
ATOM      3  H12 UNL     1      12.552   3.103  22.350  1.00  0.00     0.279 HD
ATOM      4  H13 UNL     1      12.279   4.358  21.518  1.00  0.00     0.279 HD
HETATM    5  C1  UNL     1      10.512   3.312  21.927  1.00  0.00     0.494 C
HETATM    6  N2  UNL     1      10.327   4.069  23.132  1.00  0.00    -0.032 N
ATOM      7  H21 UNL     1       9.336   4.009  23.367  1.00  0.00     0.279 HD
ATOM      8  H22 UNL     1      10.666   5.029  23.061  1.00  0.00     0.279 HD
ATOM      9  H23 UNL     1      10.939   3.773  23.893  1.00  0.00     0.279 HD
HETATM   10  N3  UNL     1      10.219   1.897  22.106  1.00  0.00    -0.284 N
ATOM     11  H3  UNL     1       9.867   1.538  22.993  1.00  0.00     0.184 HD
ENDROOT
BRANCH  10  12
HETATM   12  N4  UNL     1      10.434   1.059  21.029  1.00  0.00    -0.311 N
HETATM   13  C2  UNL     1       9.681   0.999  19.982  1.00  0.00     0.139 C
ATOM     14  H4  UNL     1      11.247   0.443  21.064  1.00  0.00     0.185 HD
BRANCH  13  15
HETATM   15  C3  UNL     1      10.063   0.056  18.950  1.00  0.00     0.083 A
HETATM   16  C4  UNL     1      10.930   0.331  17.920  1.00  0.00     0.141 A
HETATM   17  N5  UNL     1      11.041  -0.791  17.159  1.00  0.00    -0.295 N
HETATM   18  N6  UNL     1      10.266  -1.729  17.707  1.00  0.00    -0.243 N
ATOM     19  H5  UNL     1      11.614  -0.896  16.321  1.00  0.00     0.187 HD
HETATM   20  N7  UNL     1       9.683  -1.222  18.776  1.00  0.00    -0.284 N
ATOM     21  H6  UNL     1      10.144  -2.680  17.357  1.00  0.00     0.208 HD
ATOM     22  H7  UNL     1       9.037  -1.726  19.382  1.00  0.00     0.188 HD
ENDBRANCH  13  15
ENDBRANCH  10  12
TORSDOF 2
ENDMDL