MODEL 2
REMARK VINA RESULT: -4.809484073      2.919      4.415
REMARK  5 active torsions:
REMARK  status: ('A' for Active; 'I' for Inactive)
REMARK    1  A    between atoms: N1_1  and  C1_4
REMARK    2  A    between atoms: N4_10  and  C4_11
REMARK    3  A    between atoms: C4_11  and  C5_12
REMARK    4  A    between atoms: C5_12  and  C6_13
REMARK    5  A    between atoms: C6_13  and  N5_14
ROOT
HETATM    1  C1  UNL     1       7.533   2.872  19.712  1.00  0.00     0.679 A
HETATM    2  N2  UNL     1       6.430   3.107  20.403  1.00  0.00    -0.199 N
ATOM      3  H2  UNL     1       6.274   3.881  21.048  1.00  0.00     0.183 HD
HETATM    4  C2  UNL     1       5.554   2.136  20.097  1.00  0.00     0.152 A
HETATM    5  C3  UNL     1       6.149   1.266  19.176  1.00  0.00     0.150 A
HETATM    6  N3  UNL     1       5.551   0.109  18.601  1.00  0.00    -0.080 NA
HETATM    7  N4  UNL     1       7.372   1.764  18.969  1.00  0.00    -0.169 N
ENDROOT
BRANCH   7   8
HETATM    8  C4  UNL     1       8.386   1.229  18.096  1.00  0.00     0.150 C
BRANCH   8   9
HETATM    9  C5  UNL     1       9.055   0.001  18.662  1.00  0.00     0.048 C
BRANCH   9  10
HETATM   10  C6  UNL     1      10.446   0.437  19.123  1.00  0.00     0.231 C
BRANCH  10  11
HETATM   11  N5  UNL     1      10.463   0.787  20.516  1.00  0.00    -0.079 N
ATOM     12  H53 UNL     1       9.592   0.521  20.976  1.00  0.00     0.274 HD
ATOM     13  H52 UNL     1      11.109   0.195  21.039  1.00  0.00     0.274 HD
ATOM     14  H51 UNL     1      10.670   1.776  20.656  1.00  0.00     0.274 HD
ENDBRANCH  10  11
ENDBRANCH   9  10
ENDBRANCH   8   9
ENDBRANCH   7   8
BRANCH   1  15
HETATM   15  N1  UNL     1       8.602   3.630  19.768  1.00  0.00    -0.234 N
ATOM     16  H12 UNL     1       8.679   4.544  20.214  1.00  0.00     0.174 HD
ATOM     17  H11 UNL     1       9.500   3.373  19.358  1.00  0.00     0.174 HD
ENDBRANCH   1  15
TORSDOF 5
ENDMDL