MODEL 2
REMARK VINA RESULT: -5.204186585      2.356      2.767
REMARK  6 active torsions:
REMARK  status: ('A' for Active; 'I' for Inactive)
REMARK    1  A    between atoms: N1_1  and  C1_4
REMARK    2  A    between atoms: C1_4  and  N2_5
REMARK    3  A    between atoms: N2_5  and  N3_7
REMARK    4  A    between atoms: N3_7  and  C2_9
REMARK    5  A    between atoms: C2_9  and  C3_10
REMARK    6  A    between atoms: C5_16  and  O1_17
ROOT
HETATM    1  C3  UNL     1      -2.929  -2.525  14.500  1.00  0.00     0.101 A
HETATM    2  N4  UNL     1      -3.199  -2.050  15.738  1.00  0.00    -0.348 N
ATOM      3  H4  UNL     1      -3.521  -1.106  15.949  1.00  0.00     0.167 HD
HETATM    4  C4  UNL     1      -2.981  -3.008  16.643  1.00  0.00     0.183 A
HETATM    5  N5  UNL     1      -2.571  -4.093  15.979  1.00  0.00    -0.331 N
ATOM      6  H5  UNL     1      -2.327  -4.986  16.406  1.00  0.00     0.168 HD
HETATM    7  C5  UNL     1      -2.529  -3.828  14.667  1.00  0.00     0.169 A
ENDROOT
BRANCH   1   8
HETATM    8  C2  UNL     1      -3.044  -1.790  13.258  1.00  0.00     0.141 C
BRANCH   8   9
HETATM    9  N3  UNL     1      -4.189  -1.628  12.731  1.00  0.00    -0.309 N
ATOM     10  H3  UNL     1      -4.548  -0.677  12.659  1.00  0.00     0.186 HD
BRANCH   9  11
HETATM   11  N2  UNL     1      -4.990  -2.667  12.245  1.00  0.00    -0.297 N
ATOM     12  H2  UNL     1      -5.963  -2.726  12.544  1.00  0.00     0.187 HD
BRANCH  11  13
HETATM   13  C1  UNL     1      -4.481  -3.643  11.341  1.00  0.00     0.190 C
BRANCH  13  14
HETATM   14  N1  UNL     1      -5.336  -4.418  10.766  1.00  0.00    -0.394 N
ATOM     15  H12 UNL     1      -5.800  -5.157  11.294  1.00  0.00     0.156 HD
ATOM     16  H11 UNL     1      -5.520  -4.256   9.777  1.00  0.00     0.156 HD
ENDBRANCH  13  14
ENDBRANCH  11  13
ENDBRANCH   9  11
ENDBRANCH   8   9
ENDBRANCH   1   8
BRANCH   7  17
HETATM   17  O1  UNL     1      -2.153  -4.714  13.689  1.00  0.00    -0.344 OA
ATOM     18  H1  UNL     1      -1.400  -5.292  13.695  1.00  0.00     0.219 HD
ENDBRANCH   7  17
TORSDOF 6
ENDMDL