MODEL 2
REMARK VINA RESULT: -4.828147880      1.249      1.672
REMARK  6 active torsions:
REMARK  status: ('A' for Active; 'I' for Inactive)
REMARK    1  A    between atoms: N1_2  and  C2_3
REMARK    2  A    between atoms: N1_2  and  C3_10
REMARK    3  A    between atoms: C2_3  and  O1_4
REMARK    4  A    between atoms: C2_3  and  N2_6
REMARK    5  A    between atoms: N2_6  and  N3_7
REMARK    6  A    between atoms: C6_13  and  N4_14
ROOT
HETATM    1  C1  UNL     1      -0.785  -2.847  16.629  1.00  0.00     0.147 C
HETATM    2  N1  UNL     1      -1.661  -1.768  16.474  1.00  0.00    -0.371 N
ENDROOT
BRANCH   2   3
HETATM    3  C2  UNL     1      -2.427  -1.380  17.600  1.00  0.00     0.334 C
BRANCH   3   4
HETATM    4  O1  UNL     1      -2.293   0.002  17.815  1.00  0.00    -0.362 OA
ATOM      5  H1  UNL     1      -2.420   0.199  18.735  1.00  0.00     0.213 HD
ENDBRANCH   3   4
BRANCH   3   6
HETATM    6  N2  UNL     1      -3.831  -1.714  17.423  1.00  0.00    -0.095 NA
BRANCH   6   7
HETATM    7  N3  UNL     1      -4.140  -2.995  17.894  1.00  0.00    -0.344 N
ATOM      8  H32 UNL     1      -3.433  -3.645  18.236  1.00  0.00     0.172 HD
ATOM      9  H31 UNL     1      -5.139  -3.194  17.855  1.00  0.00     0.172 HD
ENDBRANCH   6   7
ENDBRANCH   3   6
ENDBRANCH   2   3
BRANCH   2  10
HETATM   10  C3  UNL     1      -1.884  -1.175  15.246  1.00  0.00     0.113 C
HETATM   11  C4  UNL     1      -1.096  -1.608  14.039  1.00  0.00     0.029 C
HETATM   12  C5  UNL     1      -2.282  -1.077  13.232  1.00  0.00     0.037 C
HETATM   13  C6  UNL     1      -3.128  -1.532  14.438  1.00  0.00     0.206 C
BRANCH  13  14
HETATM   14  N4  UNL     1      -3.424  -2.917  14.293  1.00  0.00    -0.073 N
ATOM     15  H43 UNL     1      -3.802  -3.280  15.168  1.00  0.00     0.274 HD
ATOM     16  H42 UNL     1      -4.231  -3.032  13.680  1.00  0.00     0.274 HD
ATOM     17  H41 UNL     1      -2.665  -3.519  13.974  1.00  0.00     0.274 HD
ENDBRANCH  13  14
ENDBRANCH   2  10
TORSDOF 6
ENDMDL