MODEL 4
REMARK VINA RESULT: -5.216264102      2.781      3.059
REMARK  3 active torsions:
REMARK  status: ('A' for Active; 'I' for Inactive)
REMARK    1  A    between atoms: C2_8  and  C3_9
REMARK    2  A    between atoms: C3_9  and  N4_10
REMARK    3  A    between atoms: N4_10  and  C4_13
ROOT
HETATM    1  N1  UNL     1      -5.221  -4.401  11.096  1.00  0.00    -0.364 N
ATOM      2  H11 UNL     1      -4.909  -5.185  10.524  1.00  0.00     0.159 HD
ATOM      3  H12 UNL     1      -6.208  -4.326  10.851  1.00  0.00     0.159 HD
HETATM    4  C1  UNL     1      -4.510  -3.708  11.905  1.00  0.00     0.230 C
HETATM    5  N2  UNL     1      -4.949  -2.603  12.710  1.00  0.00    -0.267 N
ATOM      6  H2  UNL     1      -5.922  -2.331  12.854  1.00  0.00     0.186 HD
HETATM    7  N3  UNL     1      -3.824  -1.945  13.277  1.00  0.00    -0.103 NA
HETATM    8  C2  UNL     1      -2.785  -2.436  12.445  1.00  0.00     0.270 C
HETATM    9  O1  UNL     1      -3.141  -3.812  12.245  1.00  0.00    -0.296 OA
ENDROOT
BRANCH   8  10
HETATM   10  C3  UNL     1      -1.389  -2.288  12.902  1.00  0.00     0.284 C
BRANCH  10  11
HETATM   11  N4  UNL     1      -1.389  -2.138  14.348  1.00  0.00    -0.067 N
ATOM     12  H42 UNL     1      -2.336  -2.182  14.724  1.00  0.00     0.277 HD
ATOM     13  H41 UNL     1      -0.994  -2.961  14.804  1.00  0.00     0.277 HD
BRANCH  11  14
HETATM   14  C4  UNL     1      -0.709  -0.921  14.777  1.00  0.00     0.186 A
HETATM   15  C5  UNL     1      -1.537   0.096  15.493  1.00  0.00     0.035 A
HETATM   16  C6  UNL     1      -0.931   0.389  14.154  1.00  0.00     0.035 A
ENDBRANCH  11  14
ENDBRANCH  10  11
ENDBRANCH   8  10
TORSDOF 3
ENDMDL