MODEL 1
REMARK VINA RESULT: -5.855958648      0.000      0.000
REMARK  4 active torsions:
REMARK  status: ('A' for Active; 'I' for Inactive)
REMARK    1  A    between atoms: C2_3  and  C3_4
REMARK    2  A    between atoms: C3_4  and  N2_5
REMARK    3  A    between atoms: C3_4  and  C4_9
REMARK    4  A    between atoms: C5_14  and  N5_15
ROOT
HETATM    1  N1  UNL     1      -2.321  -0.324  17.895  1.00  0.00    -0.197 NA
HETATM    2  C1  UNL     1      -2.411  -1.228  17.147  1.00  0.00     0.061 C
HETATM    3  C2  UNL     1      -2.529  -2.355  16.234  1.00  0.00     0.164 C
ENDROOT
BRANCH   3   4
HETATM    4  C3  UNL     1      -2.180  -1.962  14.810  1.00  0.00     0.265 C
BRANCH   4   5
HETATM    5  N2  UNL     1      -1.924  -0.573  14.655  1.00  0.00    -0.067 N
ATOM      6  H23 UNL     1      -1.410  -0.209  15.457  1.00  0.00     0.275 HD
ATOM      7  H22 UNL     1      -1.231  -0.413  13.923  1.00  0.00     0.275 HD
ATOM      8  H21 UNL     1      -2.765  -0.024  14.482  1.00  0.00     0.275 HD
ENDBRANCH   4   5
BRANCH   4   9
HETATM    9  C4  UNL     1      -3.291  -2.338  13.895  1.00  0.00     0.144 A
HETATM   10  N3  UNL     1      -4.461  -1.702  13.706  1.00  0.00    -0.272 N
HETATM   11  N4  UNL     1      -5.174  -2.367  12.801  1.00  0.00    -0.131 N
ATOM     12  H3  UNL     1      -4.755  -0.848  14.181  1.00  0.00     0.189 HD
HETATM   13  C5  UNL     1      -4.431  -3.415  12.437  1.00  0.00     0.691 A
ATOM     14  H4  UNL     1      -6.102  -2.125  12.454  1.00  0.00     0.205 HD
HETATM   15  N6  UNL     1      -3.264  -3.426  13.092  1.00  0.00    -0.176 N
ATOM     16  H6  UNL     1      -2.512  -4.111  13.005  1.00  0.00     0.185 HD
BRANCH  13  17
HETATM   17  N5  UNL     1      -4.786  -4.308  11.565  1.00  0.00    -0.233 N
ATOM     18  H52 UNL     1      -5.440  -4.135  10.803  1.00  0.00     0.174 HD
ATOM     19  H51 UNL     1      -4.450  -5.270  11.548  1.00  0.00     0.174 HD
ENDBRANCH  13  17
ENDBRANCH   4   9
ENDBRANCH   3   4
TORSDOF 4
ENDMDL