MODEL 3
REMARK VINA RESULT: -4.810231457      2.161      4.957
REMARK  3 active torsions:
REMARK  status: ('A' for Active; 'I' for Inactive)
REMARK    1  A    between atoms: C3_6  and  C4_7
REMARK    2  A    between atoms: C4_7  and  N2_8
REMARK    3  A    between atoms: N2_8  and  C5_11
ROOT
HETATM    1  C4  UNL     1      -2.135  -3.611  14.749  1.00  0.00     0.295 C
ENDROOT
BRANCH   1   2
HETATM    2  C3  UNL     1      -2.507  -3.725  16.178  1.00  0.00     0.408 C
HETATM    3  N1  UNL     1      -3.178  -2.499  16.672  1.00  0.00    -0.043 N
HETATM    4  C2  UNL     1      -3.832  -2.911  17.894  1.00  0.00     0.262 C
ATOM      5  H12 UNL     1      -3.803  -2.064  15.993  1.00  0.00     0.279 HD
ATOM      6  H11 UNL     1      -2.556  -1.699  16.782  1.00  0.00     0.279 HD
HETATM    7  C1  UNL     1      -3.757  -4.415  17.895  1.00  0.00     0.262 C
HETATM    8  N4  UNL     1      -3.471  -4.739  16.513  1.00  0.00    -0.043 N
ATOM      9  H42 UNL     1      -3.172  -5.699  16.344  1.00  0.00     0.279 HD
ATOM     10  H41 UNL     1      -4.285  -4.787  15.900  1.00  0.00     0.279 HD
ENDBRANCH   1   2
BRANCH   1  11
HETATM   11  N2  UNL     1      -2.929  -4.363  13.841  1.00  0.00    -0.064 N
ATOM     12  H22 UNL     1      -2.499  -5.267  13.642  1.00  0.00     0.277 HD
ATOM     13  H21 UNL     1      -3.789  -4.682  14.286  1.00  0.00     0.277 HD
BRANCH  11  14
HETATM   14  C5  UNL     1      -3.213  -3.648  12.620  1.00  0.00     0.236 C
HETATM   15  C6  UNL     1      -4.558  -3.737  12.015  1.00  0.00     0.267 C
HETATM   16  N3  UNL     1      -4.957  -2.489  12.647  1.00  0.00    -0.071 N
HETATM   17  C7  UNL     1      -3.574  -2.194  12.834  1.00  0.00     0.267 C
ATOM     18  H32 UNL     1      -5.570  -1.832  12.165  1.00  0.00     0.277 HD
ATOM     19  H31 UNL     1      -5.603  -2.487  13.436  1.00  0.00     0.277 HD
ENDBRANCH  11  14
ENDBRANCH   1  11
TORSDOF 3
ENDMDL