MODEL 3
REMARK VINA RESULT: -4.528347480      1.665      2.157
REMARK  6 active torsions:
REMARK  status: ('A' for Active; 'I' for Inactive)
REMARK    1  A    between atoms: C2_2  and  N1_4
REMARK    2  A    between atoms: N1_4  and  C4_6
REMARK    3  A    between atoms: C4_6  and  N2_7
REMARK    4  A    between atoms: C4_6  and  O1_11
REMARK    5  A    between atoms: C4_6  and  C5_13
REMARK    6  A    between atoms: C5_13  and  N3_15
ROOT
HETATM    1  C4  UNL     1      -3.929  -2.523  13.272  1.00  0.00     0.326 C
ENDROOT
BRANCH   1   2
HETATM    2  N1  UNL     1      -3.410  -2.600  14.566  1.00  0.00    -0.364 N
ATOM      3  H1  UNL     1      -3.732  -1.924  15.258  1.00  0.00     0.158 HD
BRANCH   2   4
HETATM    4  C2  UNL     1      -2.468  -3.559  14.961  1.00  0.00     0.073 C
HETATM    5  C1  UNL     1      -2.780  -4.216  16.280  1.00  0.00     0.031 C
HETATM    6  C3  UNL     1      -1.070  -2.945  15.151  1.00  0.00     0.031 C
ENDBRANCH   2   4
ENDBRANCH   1   2
BRANCH   1   7
HETATM    7  N2  UNL     1      -3.230  -1.402  12.550  1.00  0.00    -0.026 N
ATOM      8  H23 UNL     1      -3.310  -1.478  11.536  1.00  0.00     0.280 HD
ATOM      9  H22 UNL     1      -3.705  -0.507  12.659  1.00  0.00     0.280 HD
ATOM     10  H21 UNL     1      -2.261  -1.374  12.866  1.00  0.00     0.280 HD
ENDBRANCH   1   7
BRANCH   1  11
HETATM   11  O1  UNL     1      -5.276  -2.149  13.171  1.00  0.00    -0.348 OA
ATOM     12  H1  UNL     1      -5.505  -1.611  12.422  1.00  0.00     0.214 HD
ENDBRANCH   1  11
BRANCH   1  13
HETATM   13  C5  UNL     1      -3.659  -3.738  12.464  1.00  0.00     0.264 C
HETATM   14  C6  UNL     1      -2.666  -3.418  11.362  1.00  0.00     0.047 C
BRANCH  13  15
HETATM   15  N3  UNL     1      -4.832  -4.386  11.982  1.00  0.00    -0.069 N
ATOM     16  H33 UNL     1      -4.603  -5.011  11.209  1.00  0.00     0.275 HD
ATOM     17  H32 UNL     1      -5.168  -5.069  12.661  1.00  0.00     0.275 HD
ATOM     18  H31 UNL     1      -5.580  -3.746  11.716  1.00  0.00     0.275 HD
ENDBRANCH  13  15
ENDBRANCH   1  13
TORSDOF 6
ENDMDL