MODEL 3
REMARK VINA RESULT: -5.346017741      1.403      1.406
REMARK  4 active torsions:
REMARK  status: ('A' for Active; 'I' for Inactive)
REMARK    1  A    between atoms: O1_2  and  C2_3
REMARK    2  A    between atoms: C4_5  and  C5_6
REMARK    3  A    between atoms: C5_6  and  N1_7
REMARK    4  A    between atoms: C6_13  and  N3_14
ROOT
HETATM    1  C2  UNL     1      -2.330  -1.084  13.148  1.00  0.00     0.158 A
HETATM    2  C3  UNL     1      -1.953  -1.804  14.265  1.00  0.00     0.083 A
HETATM    3  C4  UNL     1      -2.683  -2.909  14.670  1.00  0.00     0.056 A
HETATM    4  N2  UNL     1      -3.758  -3.224  13.917  1.00  0.00    -0.194 N
ATOM      5  H2  UNL     1      -4.324  -4.032  14.178  1.00  0.00     0.184 HD
HETATM    6  C6  UNL     1      -4.107  -2.509  12.832  1.00  0.00     0.678 A
HETATM    7  N4  UNL     1      -3.403  -1.433  12.432  1.00  0.00    -0.171 N
ATOM      8  H4  UNL     1      -3.681  -0.901  11.607  1.00  0.00     0.186 HD
ENDROOT
BRANCH   3   9
HETATM    9  C5  UNL     1      -2.286  -3.691  15.869  1.00  0.00     0.287 C
BRANCH   9  10
HETATM   10  N1  UNL     1      -3.406  -4.477  16.340  1.00  0.00    -0.074 N
ATOM     11  H13 UNL     1      -4.174  -3.891  16.667  1.00  0.00     0.274 HD
ATOM     12  H12 UNL     1      -3.892  -4.946  15.575  1.00  0.00     0.274 HD
ATOM     13  H11 UNL     1      -3.094  -5.134  17.055  1.00  0.00     0.274 HD
ENDBRANCH   9  10
ENDBRANCH   3   9
BRANCH   1  14
HETATM   14  O1  UNL     1      -1.525   0.020  12.819  1.00  0.00    -0.340 OA
HETATM   15  C1  UNL     1      -0.740   0.627  13.825  1.00  0.00     0.211 C
ENDBRANCH   1  14
BRANCH   6  16
HETATM   16  N3  UNL     1      -5.140  -2.829  12.127  1.00  0.00    -0.234 N
ATOM     17  H32 UNL     1      -5.191  -3.791  11.790  1.00  0.00     0.174 HD
ATOM     18  H31 UNL     1      -5.869  -2.146  11.920  1.00  0.00     0.174 HD
ENDBRANCH   6  16
TORSDOF 4
ENDMDL