MODEL 4
REMARK VINA RESULT: -4.809969524      1.192      1.209
REMARK  5 active torsions:
REMARK  status: ('A' for Active; 'I' for Inactive)
REMARK    1  A    between atoms: C2_2  and  N1_3
REMARK    2  A    between atoms: N1_3  and  C3_5
REMARK    3  A    between atoms: C3_5  and  C4_6
REMARK    4  A    between atoms: C4_6  and  N2_7
REMARK    5  A    between atoms: C4_6  and  N3_11
ROOT
HETATM    1  C3  UNL     1      -3.179  -2.991  12.565  1.00  0.00     0.108 C
HETATM    2  C5  UNL     1      -3.515  -1.629  13.215  1.00  0.00     0.064 C
HETATM    3  C6  UNL     1      -3.040  -1.739  14.648  1.00  0.00     0.235 C
HETATM    4  N4  UNL     1      -2.395  -3.007  14.796  1.00  0.00    -0.073 N
ATOM      5  H41 UNL     1      -2.522  -3.419  15.720  1.00  0.00     0.277 HD
ATOM      6  H42 UNL     1      -1.377  -2.941  14.826  1.00  0.00     0.277 HD
HETATM    7  C7  UNL     1      -2.884  -3.852  13.719  1.00  0.00     0.267 C
ENDROOT
BRANCH   1   8
HETATM    8  N1  UNL     1      -2.276  -2.809  11.529  1.00  0.00    -0.388 N
ATOM      9  H1  UNL     1      -2.638  -2.431  10.653  1.00  0.00     0.159 HD
BRANCH   8  10
HETATM   10  C2  UNL     1      -0.919  -3.101  11.586  1.00  0.00     0.052 C
HETATM   11  C1  UNL     1      -0.221  -3.485  10.306  1.00  0.00     0.054 C
ENDBRANCH   8  10
ENDBRANCH   1   8
BRANCH   1  12
HETATM   12  C4  UNL     1      -4.514  -3.425  11.913  1.00  0.00     0.407 C
BRANCH  12  13
HETATM   13  N2  UNL     1      -5.113  -4.357  12.827  1.00  0.00    -0.048 N
ATOM     14  H23 UNL     1      -5.982  -4.020  13.241  1.00  0.00     0.276 HD
ATOM     15  H22 UNL     1      -5.506  -5.180  12.371  1.00  0.00     0.276 HD
ATOM     16  H21 UNL     1      -4.392  -4.576  13.514  1.00  0.00     0.276 HD
ENDBRANCH  12  13
BRANCH  12  17
HETATM   17  N3  UNL     1      -4.244  -4.105  10.655  1.00  0.00    -0.048 N
ATOM     18  H33 UNL     1      -3.501  -3.651  10.124  1.00  0.00     0.276 HD
ATOM     19  H32 UNL     1      -3.793  -5.009  10.795  1.00  0.00     0.276 HD
ATOM     20  H31 UNL     1      -5.107  -4.184  10.117  1.00  0.00     0.276 HD
ENDBRANCH  12  17
ENDBRANCH   1  12
TORSDOF 5
ENDMDL