MODEL 5
REMARK VINA RESULT: -5.526650821      3.517      4.677
REMARK  3 active torsions:
REMARK  status: ('A' for Active; 'I' for Inactive)
REMARK    1  A    between atoms: C3_6  and  N2_7
REMARK    2  A    between atoms: N2_7  and  N3_9
REMARK    3  A    between atoms: N3_9  and  C4_11
ROOT
HETATM    1  N1  UNL     1      -5.281  -4.389  11.139  1.00  0.00    -0.385 N
ATOM      2  H11 UNL     1      -6.278  -4.327  11.344  1.00  0.00     0.157 HD
ATOM      3  H12 UNL     1      -4.942  -5.112  10.504  1.00  0.00     0.157 HD
HETATM    4  C1  UNL     1      -4.454  -3.556  11.680  1.00  0.00     0.103 A
HETATM    5  C2  UNL     1      -3.121  -3.638  11.406  1.00  0.00     0.097 A
HETATM    6  C3  UNL     1      -2.222  -2.764  11.970  1.00  0.00     0.124 A
HETATM    7  N4  UNL     1      -2.693  -1.822  12.802  1.00  0.00    -0.337 N
ATOM      8  H4  UNL     1      -2.054  -1.157  13.237  1.00  0.00     0.168 HD
HETATM    9  C5  UNL     1      -4.023  -1.757  13.062  1.00  0.00     0.183 A
HETATM   10  N5  UNL     1      -4.896  -2.613  12.508  1.00  0.00    -0.339 N
ATOM     11  H5  UNL     1      -5.891  -2.540  12.721  1.00  0.00     0.168 HD
ENDROOT
BRANCH   6  12
HETATM   12  N2  UNL     1      -0.845  -2.903  11.661  1.00  0.00    -0.283 N
ATOM     13  H2  UNL     1      -0.162  -2.708  12.394  1.00  0.00     0.188 HD
BRANCH  12  14
HETATM   14  N3  UNL     1      -0.378  -3.291  10.416  1.00  0.00    -0.276 N
ATOM     15  H3  UNL     1      -1.026  -3.311   9.627  1.00  0.00     0.189 HD
BRANCH  14  16
HETATM   16  C4  UNL     1       0.974  -3.661  10.205  1.00  0.00     0.368 C
HETATM   17  O1  UNL     1       1.279  -4.794   9.777  1.00  0.00    -0.282 OA
ENDBRANCH  14  16
ENDBRANCH  12  14
ENDBRANCH   6  12
TORSDOF 3
ENDMDL