MODEL 2
REMARK VINA RESULT: -5.418504246      1.667      2.216
REMARK  6 active torsions:
REMARK  status: ('A' for Active; 'I' for Inactive)
REMARK    1  A    between atoms: N1_1  and  C1_5
REMARK    2  A    between atoms: C1_5  and  O1_6
REMARK    3  A    between atoms: C1_5  and  C2_8
REMARK    4  A    between atoms: C2_8  and  N2_9
REMARK    5  A    between atoms: C2_8  and  C3_13
REMARK    6  A    between atoms: C3_13  and  N3_14
ROOT
HETATM    1  C3  UNL     1      -1.940  -2.659  12.827  1.00  0.00     0.317 C
HETATM    2  C4  UNL     1      -0.966  -2.622  13.943  1.00  0.00     0.078 C
HETATM    3  C5  UNL     1      -0.612  -1.150  14.109  1.00  0.00     0.022 A
HETATM    4  C6  UNL     1      -1.641  -0.304  14.772  1.00  0.00     0.040 A
HETATM    5  C7  UNL     1      -1.540  -0.395  13.243  1.00  0.00     0.193 A
HETATM    6  N4  UNL     1      -2.457  -1.314  12.650  1.00  0.00    -0.034 N
ATOM      7  H41 UNL     1      -3.406  -1.209  13.010  1.00  0.00     0.280 HD
ATOM      8  H42 UNL     1      -2.655  -1.095  11.673  1.00  0.00     0.280 HD
ENDROOT
BRANCH   1   9
HETATM    9  C2  UNL     1      -3.110  -3.568  12.975  1.00  0.00     0.303 C
BRANCH   9  10
HETATM   10  C1  UNL     1      -4.336  -3.167  12.239  1.00  0.00     0.351 C
BRANCH  10  11
HETATM   11  N1  UNL     1      -5.002  -4.403  11.807  1.00  0.00    -0.051 N
ATOM     12  H13 UNL     1      -6.007  -4.402  11.986  1.00  0.00     0.277 HD
ATOM     13  H12 UNL     1      -5.050  -4.500  10.793  1.00  0.00     0.277 HD
ATOM     14  H11 UNL     1      -4.514  -5.176  12.261  1.00  0.00     0.277 HD
ENDBRANCH  10  11
BRANCH  10  15
HETATM   15  O1  UNL     1      -5.260  -2.443  12.935  1.00  0.00    -0.368 OA
ATOM     16  H1  UNL     1      -4.786  -1.758  13.393  1.00  0.00     0.212 HD
ENDBRANCH  10  15
ENDBRANCH   9  10
BRANCH   9  17
HETATM   17  N2  UNL     1      -3.381  -3.974  14.347  1.00  0.00    -0.067 N
ATOM     18  H23 UNL     1      -2.603  -3.728  14.961  1.00  0.00     0.275 HD
ATOM     19  H22 UNL     1      -4.109  -3.394  14.763  1.00  0.00     0.275 HD
ATOM     20  H21 UNL     1      -3.611  -4.965  14.429  1.00  0.00     0.275 HD
ENDBRANCH   9  17
ENDBRANCH   1   9
BRANCH   1  21
HETATM   21  N3  UNL     1      -1.225  -3.086  11.620  1.00  0.00    -0.042 N
ATOM     22  H33 UNL     1      -0.772  -3.994  11.720  1.00  0.00     0.277 HD
ATOM     23  H32 UNL     1      -1.846  -3.336  10.851  1.00  0.00     0.277 HD
ATOM     24  H31 UNL     1      -0.575  -2.336  11.384  1.00  0.00     0.277 HD
ENDBRANCH   1  21
TORSDOF 6
ENDMDL