MODEL 1
REMARK VINA RESULT: -5.283439611      0.000      0.000
REMARK  2 active torsions:
REMARK  status: ('A' for Active; 'I' for Inactive)
REMARK    1  A    between atoms: C2_2  and  N1_4
REMARK    2  A    between atoms: N1_4  and  C4_6
ROOT
HETATM    1  C4  UNL     1      -3.454  -2.429  12.359  1.00  0.00     0.242 A
HETATM    2  N2  UNL     1      -2.537  -2.913  11.482  1.00  0.00    -0.262 N
ATOM      3  H2  UNL     1      -1.537  -2.715  11.519  1.00  0.00     0.190 HD
HETATM    4  N3  UNL     1      -3.120  -3.675  10.575  1.00  0.00    -0.262 N
ATOM      5  H3  UNL     1      -2.671  -4.165   9.801  1.00  0.00     0.190 HD
HETATM    6  C5  UNL     1      -4.431  -3.672  10.885  1.00  0.00     0.239 A
HETATM    7  N4  UNL     1      -5.353  -4.303  10.234  1.00  0.00    -0.364 N
ATOM      8  H41 UNL     1      -6.345  -4.301  10.469  1.00  0.00     0.159 HD
ATOM      9  H42 UNL     1      -5.221  -4.884   9.407  1.00  0.00     0.159 HD
HETATM   10  O1  UNL     1      -4.601  -2.920  11.954  1.00  0.00    -0.245 OA
ENDROOT
BRANCH   1  11
HETATM   11  N1  UNL     1      -3.232  -1.576  13.475  1.00  0.00    -0.351 N
ATOM     12  H1  UNL     1      -2.833  -0.651  13.320  1.00  0.00     0.163 HD
BRANCH  11  13
HETATM   13  C2  UNL     1      -3.555  -1.982  14.818  1.00  0.00     0.076 C
HETATM   14  C1  UNL     1      -3.174  -3.449  15.053  1.00  0.00     0.032 C
HETATM   15  C3  UNL     1      -2.798  -1.098  15.778  1.00  0.00     0.032 C
ENDBRANCH  11  13
ENDBRANCH   1  11
TORSDOF 2
ENDMDL