MODEL 1
REMARK VINA RESULT: -5.398062570      0.000      0.000
REMARK  2 active torsions:
REMARK  status: ('A' for Active; 'I' for Inactive)
REMARK    1  A    between atoms: N1_1  and  N2_4
REMARK    2  A    between atoms: N2_4  and  C1_6
ROOT
HETATM    1  C1  UNL     1      -3.532  -1.930  13.901  1.00  0.00     0.049 A
HETATM    2  C2  UNL     1      -3.403  -1.442  15.185  1.00  0.00     0.033 A
HETATM    3  C3  UNL     1      -2.164  -1.515  15.777  1.00  0.00     0.031 A
HETATM    4  C4  UNL     1      -1.084  -2.058  15.110  1.00  0.00     0.070 A
HETATM    5  N3  UNL     1       0.189  -2.118  15.752  1.00  0.00    -0.100 NA
HETATM    6  C5  UNL     1      -1.196  -2.551  13.821  1.00  0.00     0.072 A
HETATM    7  N4  UNL     1      -0.089  -3.113  13.120  1.00  0.00    -0.100 NA
HETATM    8  C6  UNL     1      -2.447  -2.469  13.243  1.00  0.00     0.059 A
ENDROOT
BRANCH   1   9
HETATM    9  N2  UNL     1      -4.799  -1.874  13.250  1.00  0.00    -0.307 N
ATOM     10  H2  UNL     1      -5.529  -1.260  13.612  1.00  0.00     0.186 HD
BRANCH   9  11
HETATM   11  N1  UNL     1      -5.045  -2.656  12.118  1.00  0.00    -0.345 N
ATOM     12  H12 UNL     1      -5.998  -2.718  11.760  1.00  0.00     0.176 HD
ATOM     13  H11 UNL     1      -4.281  -3.155  11.661  1.00  0.00     0.176 HD
ENDBRANCH   9  11
ENDBRANCH   1   9
TORSDOF 2
ENDMDL