MODEL 1
REMARK VINA RESULT: -5.029258586      0.000      0.000
REMARK  3 active torsions:
REMARK  status: ('A' for Active; 'I' for Inactive)
REMARK    1  A    between atoms: C2_2  and  N1_4
REMARK    2  A    between atoms: N1_4  and  N2_5
REMARK    3  A    between atoms: N2_5  and  C4_7
ROOT
HETATM    1  C4  UNL     1      -2.848  -2.215  12.369  1.00  0.00     0.133 A
HETATM    2  C5  UNL     1      -4.047  -1.871  12.973  1.00  0.00     0.138 A
HETATM    3  N3  UNL     1      -5.029  -2.585  12.397  1.00  0.00    -0.358 N
ATOM      4  H3  UNL     1      -6.018  -2.537  12.642  1.00  0.00     0.166 HD
HETATM    5  C6  UNL     1      -4.500  -3.365  11.454  1.00  0.00     0.182 A
HETATM    6  N4  UNL     1      -3.175  -3.135  11.442  1.00  0.00    -0.337 N
ATOM      7  H4  UNL     1      -2.510  -3.593  10.819  1.00  0.00     0.168 HD
ENDROOT
BRANCH   1   8
HETATM    8  N2  UNL     1      -1.556  -1.714  12.657  1.00  0.00    -0.288 N
ATOM      9  H2  UNL     1      -0.850  -2.329  13.062  1.00  0.00     0.184 HD
BRANCH   8  10
HETATM   10  N1  UNL     1      -1.251  -0.397  12.392  1.00  0.00    -0.136 NA
BRANCH  10  11
HETATM   11  C2  UNL     1      -0.555   0.273  13.456  1.00  0.00     0.091 C
HETATM   12  C1  UNL     1      -0.652  -0.635  14.684  1.00  0.00     0.029 C
HETATM   13  C3  UNL     1       0.942   0.394  13.163  1.00  0.00     0.029 C
ENDBRANCH  10  11
ENDBRANCH   8  10
ENDBRANCH   1   8
TORSDOF 3
ENDMDL