MODEL 4
REMARK VINA RESULT: -4.992218486      1.516      1.866
REMARK  3 active torsions:
REMARK  status: ('A' for Active; 'I' for Inactive)
REMARK    1  A    between atoms: N1_2  and  N2_4
REMARK    2  A    between atoms: N2_4  and  N3_6
REMARK    3  A    between atoms: N3_6  and  C2_8
ROOT
HETATM    1  C2  UNL     1      -1.995  -1.610  12.735  1.00  0.00     0.122 A
HETATM    2  C3  UNL     1      -1.051  -0.610  12.869  1.00  0.00     0.053 A
HETATM    3  C4  UNL     1       0.147  -1.079  12.358  1.00  0.00     0.049 A
HETATM    4  C5  UNL     1      -0.131  -2.375  11.926  1.00  0.00     0.117 A
HETATM    5  N4  UNL     1       0.841  -3.225  11.326  1.00  0.00    -0.083 NA
HETATM    6  N5  UNL     1      -1.408  -2.679  12.155  1.00  0.00    -0.330 N
ATOM      7  H5  UNL     1      -1.863  -3.563  11.931  1.00  0.00     0.168 HD
ENDROOT
BRANCH   1   8
HETATM    8  N3  UNL     1      -3.365  -1.526  13.142  1.00  0.00    -0.271 N
ATOM      9  H3  UNL     1      -3.592  -1.457  14.134  1.00  0.00     0.190 HD
BRANCH   8  10
HETATM   10  N2  UNL     1      -4.312  -1.537  12.274  1.00  0.00    -0.246 N
ATOM     11  H2  UNL     1      -4.528  -0.714  11.711  1.00  0.00     0.208 HD
BRANCH  10  12
HETATM   12  N1  UNL     1      -5.026  -2.714  12.135  1.00  0.00    -0.326 N
HETATM   13  C1  UNL     1      -4.649  -3.656  11.118  1.00  0.00     0.169 C
ATOM     14  H1  UNL     1      -5.814  -2.912  12.751  1.00  0.00     0.181 HD
ENDBRANCH  10  12
ENDBRANCH   8  10
ENDBRANCH   1   8
TORSDOF 3
ENDMDL