MODEL 5
REMARK VINA RESULT: -5.243530799      2.282      2.649
REMARK  3 active torsions:
REMARK  status: ('A' for Active; 'I' for Inactive)
REMARK    1  A    between atoms: N1_3  and  N2_5
REMARK    2  A    between atoms: N3_7  and  C3_9
REMARK    3  A    between atoms: C5_15  and  N6_16
ROOT
HETATM    1  C3  UNL     1      -2.953  -2.298  12.413  1.00  0.00     0.111 A
HETATM    2  C4  UNL     1      -3.982  -1.921  13.240  1.00  0.00     0.142 A
HETATM    3  N4  UNL     1      -5.087  -2.535  12.792  1.00  0.00    -0.308 N
ATOM      4  H4  UNL     1      -6.010  -2.440  13.217  1.00  0.00     0.186 HD
HETATM    5  N5  UNL     1      -4.831  -3.268  11.746  1.00  0.00    -0.284 N
ATOM      6  H5  UNL     1      -5.504  -3.831  11.225  1.00  0.00     0.188 HD
HETATM    7  C5  UNL     1      -3.497  -3.147  11.473  1.00  0.00     0.143 A
ENDROOT
BRANCH   1   8
HETATM    8  N3  UNL     1      -1.613  -1.852  12.564  1.00  0.00    -0.281 N
HETATM    9  N2  UNL     1      -1.318  -0.631  12.704  1.00  0.00    -0.243 N
ATOM     10  H2  UNL     1      -2.043   0.087  12.714  1.00  0.00     0.208 HD
ATOM     11  H3  UNL     1      -0.862  -2.543  12.559  1.00  0.00     0.188 HD
BRANCH   9  12
HETATM   12  N1  UNL     1       0.030  -0.293  12.845  1.00  0.00    -0.302 N
HETATM   13  C2  UNL     1       0.853  -0.715  11.949  1.00  0.00     0.077 C
HETATM   14  C1  UNL     1       2.315  -0.396  12.027  1.00  0.00     0.056 C
ATOM     15  H1  UNL     1       0.351   0.270  13.632  1.00  0.00     0.187 HD
ENDBRANCH   9  12
ENDBRANCH   1   8
BRANCH   7  16
HETATM   16  N6  UNL     1      -2.864  -3.724  10.510  1.00  0.00    -0.383 N
ATOM     17  H62 UNL     1      -2.497  -3.268   9.674  1.00  0.00     0.157 HD
ATOM     18  H61 UNL     1      -2.639  -4.717  10.446  1.00  0.00     0.157 HD
ENDBRANCH   7  16
TORSDOF 3
ENDMDL