MODEL 5
REMARK VINA RESULT: -4.799662825      1.150      1.874
REMARK  4 active torsions:
REMARK  status: ('A' for Active; 'I' for Inactive)
REMARK    1  A    between atoms: N1_1  and  N2_4
REMARK    2  A    between atoms: N2_4  and  C1_6
REMARK    3  A    between atoms: C4_9  and  O1_10
REMARK    4  A    between atoms: O1_10  and  N3_11
ROOT
HETATM    1  C1  UNL     1      -3.605  -2.988  12.769  1.00  0.00     0.047 A
HETATM    2  C2  UNL     1      -3.705  -2.231  13.931  1.00  0.00     0.034 A
HETATM    3  C3  UNL     1      -2.665  -1.398  14.315  1.00  0.00     0.041 A
HETATM    4  C4  UNL     1      -1.546  -1.338  13.530  1.00  0.00     0.098 A
HETATM    5  C5  UNL     1      -1.435  -2.088  12.368  1.00  0.00     0.041 A
HETATM    6  C6  UNL     1      -2.476  -2.917  11.990  1.00  0.00     0.034 A
ENDROOT
BRANCH   1   7
HETATM    7  N2  UNL     1      -4.687  -3.826  12.409  1.00  0.00    -0.307 N
ATOM      8  H2  UNL     1      -5.223  -4.256  13.162  1.00  0.00     0.186 HD
BRANCH   7   9
HETATM    9  N1  UNL     1      -5.065  -4.102  11.115  1.00  0.00    -0.345 N
ATOM     10  H12 UNL     1      -5.329  -3.304  10.536  1.00  0.00     0.176 HD
ATOM     11  H11 UNL     1      -5.098  -5.036  10.707  1.00  0.00     0.176 HD
ENDBRANCH   7   9
ENDBRANCH   1   7
BRANCH   4  12
HETATM   12  O1  UNL     1      -0.504  -0.521  13.888  1.00  0.00    -0.245 OA
BRANCH  12  13
HETATM   13  N3  UNL     1      -0.644   0.833  13.821  1.00  0.00    -0.305 N
ATOM     14  H32 UNL     1      -1.557   1.224  13.589  1.00  0.00     0.184 HD
ATOM     15  H31 UNL     1       0.157   1.438  14.000  1.00  0.00     0.184 HD
ENDBRANCH  12  13
ENDBRANCH   4  12
TORSDOF 4
ENDMDL