MODEL 5
REMARK VINA RESULT: -5.228890590      2.071      4.191
REMARK  3 active torsions:
REMARK  status: ('A' for Active; 'I' for Inactive)
REMARK    1  A    between atoms: N2_4  and  N3_6
REMARK    2  A    between atoms: N3_6  and  C2_8
REMARK    3  A    between atoms: C3_14  and  N6_15
ROOT
HETATM    1  C2  UNL     1      -3.171  -2.649  12.008  1.00  0.00     0.189 A
HETATM    2  N4  UNL     1      -3.292  -1.798  13.072  1.00  0.00    -0.221 N
ATOM      3  H4  UNL     1      -2.524  -1.297  13.520  1.00  0.00     0.198 HD
HETATM    4  O1  UNL     1      -4.517  -1.731  13.416  1.00  0.00    -0.153 OA
HETATM    5  N5  UNL     1      -5.279  -2.465  12.682  1.00  0.00    -0.222 N
ATOM      6  H5  UNL     1      -6.290  -2.574  12.767  1.00  0.00     0.198 HD
HETATM    7  C3  UNL     1      -4.461  -3.072  11.766  1.00  0.00     0.169 A
ENDROOT
BRANCH   1   8
HETATM    8  N3  UNL     1      -2.071  -2.946  11.409  1.00  0.00    -0.267 N
ATOM      9  H3  UNL     1      -1.220  -2.860  11.964  1.00  0.00     0.190 HD
BRANCH   8  10
HETATM   10  N2  UNL     1      -1.910  -3.366  10.110  1.00  0.00    -0.246 N
HETATM   11  N1  UNL     1      -0.808  -3.503   9.537  1.00  0.00    -0.326 N
HETATM   12  C1  UNL     1       0.456  -3.228  10.193  1.00  0.00     0.169 C
ATOM     13  H1  UNL     1      -0.796  -3.821   8.568  1.00  0.00     0.181 HD
ATOM     14  H2  UNL     1      -2.751  -3.582   9.575  1.00  0.00     0.208 HD
ENDBRANCH   8  10
ENDBRANCH   1   8
BRANCH   7  15
HETATM   15  N6  UNL     1      -4.878  -3.879  10.870  1.00  0.00    -0.381 N
ATOM     16  H62 UNL     1      -4.360  -4.095  10.019  1.00  0.00     0.157 HD
ATOM     17  H61 UNL     1      -5.746  -4.413  10.851  1.00  0.00     0.157 HD
ENDBRANCH   7  15
TORSDOF 3
ENDMDL