MODEL 3
REMARK VINA RESULT: -4.805448717      1.568      1.608
REMARK  2 active torsions:
REMARK  status: ('A' for Active; 'I' for Inactive)
REMARK    1  A    between atoms: N1_1  and  N2_4
REMARK    2  A    between atoms: N2_4  and  C1_6
ROOT
HETATM    1  C1  UNL     1      -4.012  -3.101  11.926  1.00  0.00     0.713 A
HETATM    2  N3  UNL     1      -4.301  -1.797  12.158  1.00  0.00    -0.128 N
ATOM      3  H3  UNL     1      -5.234  -1.389  12.100  1.00  0.00     0.205 HD
HETATM    4  N4  UNL     1      -3.210  -1.134  12.469  1.00  0.00    -0.261 N
ATOM      5  H4  UNL     1      -3.159  -0.139  12.687  1.00  0.00     0.190 HD
HETATM    6  C2  UNL     1      -2.162  -1.999  12.451  1.00  0.00     0.205 A
HETATM    7  S1  UNL     1      -0.605  -1.632  12.775  1.00  0.00    -0.039 SA
HETATM    8  N5  UNL     1      -2.668  -3.204  12.115  1.00  0.00    -0.162 N
ATOM      9  H5  UNL     1      -2.126  -4.063  12.018  1.00  0.00     0.187 HD
ENDROOT
BRANCH   1  10
HETATM   10  N2  UNL     1      -4.926  -4.133  11.571  1.00  0.00    -0.137 N
ATOM     11  H2  UNL     1      -5.317  -4.756  12.277  1.00  0.00     0.205 HD
BRANCH  10  12
HETATM   12  N1  UNL     1      -5.267  -4.261  10.230  1.00  0.00    -0.331 N
ATOM     13  H12 UNL     1      -6.190  -3.976   9.905  1.00  0.00     0.177 HD
ATOM     14  H11 UNL     1      -4.566  -4.646   9.597  1.00  0.00     0.177 HD
ENDBRANCH  10  12
ENDBRANCH   1  10
TORSDOF 2
ENDMDL