MODEL 5
REMARK VINA RESULT: -5.485462905      1.375      2.814
REMARK  1 active torsions:
REMARK  status: ('A' for Active; 'I' for Inactive)
REMARK    1  A    between atoms: C1_4  and  C2_5
ROOT
HETATM    1  C2  UNL     1      -2.812  -2.058  13.247  1.00  0.00     0.024 A
HETATM    2  C3  UNL     1      -2.017  -2.469  12.199  1.00  0.00     0.046 A
HETATM    3  C4  UNL     1      -0.674  -2.747  12.376  1.00  0.00     0.088 A
HETATM    4  N2  UNL     1       0.168  -3.169  11.316  1.00  0.00    -0.099 NA
HETATM    5  C5  UNL     1      -0.096  -2.618  13.623  1.00  0.00     0.142 A
HETATM    6  N3  UNL     1       1.295  -2.902  13.827  1.00  0.00    -0.081 NA
HETATM    7  N4  UNL     1      -0.887  -2.219  14.632  1.00  0.00    -0.329 N
ATOM      8  H4  UNL     1      -0.475  -2.120  15.560  1.00  0.00     0.168 HD
HETATM    9  C6  UNL     1      -2.200  -1.941  14.483  1.00  0.00     0.111 A
HETATM   10  N5  UNL     1      -2.949  -1.556  15.464  1.00  0.00    -0.385 N
ATOM     11  H51 UNL     1      -2.498  -1.470  16.374  1.00  0.00     0.157 HD
ATOM     12  H52 UNL     1      -3.940  -1.346  15.352  1.00  0.00     0.157 HD
ENDROOT
BRANCH   1  13
HETATM   13  C1  UNL     1      -4.224  -1.769  13.048  1.00  0.00     0.095 C
HETATM   14  N1  UNL     1      -5.001  -2.489  12.323  1.00  0.00    -0.407 N
ATOM     15  H12 UNL     1      -4.589  -3.305  11.869  1.00  0.00     0.155 HD
ATOM     16  H11 UNL     1      -5.990  -2.286  12.184  1.00  0.00     0.155 HD
ENDBRANCH   1  13
TORSDOF 1
ENDMDL