MODEL 4
REMARK VINA RESULT: -5.359228205      1.801      2.301
REMARK  2 active torsions:
REMARK  status: ('A' for Active; 'I' for Inactive)
REMARK    1  A    between atoms: C5_5  and  N1_6
REMARK    2  A    between atoms: N1_6  and  N2_8
ROOT
HETATM    1  C1  UNL     1      -0.722  -0.747  14.798  1.00  0.00     0.068 C
HETATM    2  C2  UNL     1      -1.778  -1.628  14.208  1.00  0.00     0.006 A
HETATM    3  C3  UNL     1      -2.183  -1.416  12.906  1.00  0.00     0.027 A
HETATM    4  C4  UNL     1      -3.158  -2.212  12.326  1.00  0.00     0.036 A
HETATM    5  C5  UNL     1      -3.740  -3.233  13.048  1.00  0.00     0.088 A
HETATM    6  C6  UNL     1      -3.307  -3.421  14.366  1.00  0.00     0.144 A
HETATM    7  N3  UNL     1      -3.913  -4.469  15.088  1.00  0.00    -0.080 NA
HETATM    8  N4  UNL     1      -2.357  -2.626  14.895  1.00  0.00    -0.347 N
ATOM      9  H4  UNL     1      -2.065  -2.789  15.858  1.00  0.00     0.167 HD
ENDROOT
BRANCH   5  10
HETATM   10  N1  UNL     1      -4.742  -4.069  12.489  1.00  0.00    -0.304 N
ATOM     11  H1  UNL     1      -5.270  -4.713  13.077  1.00  0.00     0.186 HD
BRANCH  10  12
HETATM   12  N2  UNL     1      -4.986  -3.992  11.132  1.00  0.00    -0.345 N
ATOM     13  H22 UNL     1      -5.017  -4.845  10.574  1.00  0.00     0.176 HD
ATOM     14  H21 UNL     1      -5.131  -3.073  10.712  1.00  0.00     0.176 HD
ENDBRANCH  10  12
ENDBRANCH   5  10
TORSDOF 2
ENDMDL