MODEL 5
REMARK VINA RESULT: -6.912461540     11.486     15.306
REMARK  16 active torsions:
REMARK  status: ('A' for Active; 'I' for Inactive)
REMARK       I    between atoms: C2_2  and  N1_4
REMARK    1  A    between atoms: N1_4  and  C3_6
REMARK    2  A    between atoms: C3_6  and  C4_7
REMARK    3  A    between atoms: C4_7  and  C5_8
REMARK    4  A    between atoms: C8_11  and  O2_12
REMARK    5  A    between atoms: C8_11  and  N2_14
REMARK    6  A    between atoms: C9_15  and  C10_16
REMARK    7  A    between atoms: C10_16  and  C11_17
REMARK    8  A    between atoms: C18_27  and  C19_28
REMARK    9  A    between atoms: C19_28  and  C20_29
REMARK   10  A    between atoms: C20_29  and  C21_30
REMARK   11  A    between atoms: C21_30  and  N4_31
REMARK   12  A    between atoms: C24_38  and  C25_39
REMARK   13  A    between atoms: C25_39  and  C26_40
REMARK   14  A    between atoms: C26_40  and  C27_41
REMARK   15  A    between atoms: C27_41  and  C28_42
REMARK   16  A    between atoms: C28_42  and  C29_43
ROOT
HETATM    1  N2  UNL     1     -16.074   5.821  -6.740  1.00  0.00    -0.335 N
HETATM    2  C9  UNL     1     -15.968   4.410  -7.228  1.00  0.00     0.179 C
HETATM    3  C17 UNL     1     -16.220   4.394  -8.685  1.00  0.00     0.241 C
HETATM    4  O3  UNL     1     -15.472   3.543  -9.296  1.00  0.00    -0.271 OA
HETATM    5  N3  UNL     1     -17.068   5.082  -9.546  1.00  0.00    -0.348 N
ATOM      6  H3  UNL     1     -17.582   4.504 -10.211  1.00  0.00     0.163 HD
HETATM    7  C18 UNL     1     -17.326   6.515  -9.632  1.00  0.00     0.156 C
HETATM    8  C23 UNL     1     -17.094   7.191  -8.367  1.00  0.00     0.172 C
HETATM    9  O4  UNL     1     -16.707   8.329  -8.271  1.00  0.00    -0.293 OA
HETATM   10  C24 UNL     1     -17.318   6.526  -7.032  1.00  0.00     0.159 C
ENDROOT
BRANCH   1  11
HETATM   11  C8  UNL     1     -15.057   6.404  -6.024  1.00  0.00     0.166 C
HETATM   12  C3  UNL     1     -14.722   7.137  -4.855  1.00  0.00     0.082 C
BRANCH  12  13
HETATM   13  N1  UNL     1     -13.580   6.450  -4.153  1.00  0.00    -0.324 N
HETATM   14  C2  UNL     1     -12.363   7.075  -3.871  1.00  0.00     0.218 C
HETATM   15  C1  UNL     1     -11.299   6.311  -3.172  1.00  0.00     0.117 C
HETATM   16  O1  UNL     1     -12.093   8.270  -4.172  1.00  0.00    -0.274 OA
ATOM     17  H1  UNL     1     -13.703   5.478  -3.868  1.00  0.00     0.169 HD
ENDBRANCH  12  13
BRANCH  12  18
HETATM   18  C4  UNL     1     -15.552   7.745  -3.829  1.00  0.00     0.011 C
BRANCH  18  19
HETATM   19  C5  UNL     1     -15.568   9.189  -3.549  1.00  0.00     0.002 C
HETATM   20  C6  UNL     1     -17.004   9.598  -3.240  1.00  0.00     0.013 C
HETATM   21  C7  UNL     1     -15.317   9.870  -4.938  1.00  0.00     0.013 C
ENDBRANCH  18  19
ENDBRANCH  12  18
BRANCH  11  22
HETATM   22  O2  UNL     1     -13.877   6.205  -6.694  1.00  0.00    -0.344 OA
ATOM     23  H2  UNL     1     -14.039   5.492  -7.301  1.00  0.00     0.219 HD
ENDBRANCH  11  22
ENDBRANCH   1  11
BRANCH   2  24
HETATM   24  C10 UNL     1     -16.988   3.635  -6.488  1.00  0.00     0.040 C
BRANCH  24  25
HETATM   25  C11 UNL     1     -17.399   2.291  -6.948  1.00  0.00    -0.012 C
HETATM   26  C12 UNL     1     -16.244   1.346  -6.524  1.00  0.00     0.005 C
HETATM   27  C13 UNL     1     -16.325   0.997  -5.064  1.00  0.00     0.000 C
HETATM   28  C14 UNL     1     -17.459  -0.017  -4.862  1.00  0.00     0.000 C
HETATM   29  C15 UNL     1     -18.407   0.189  -5.994  1.00  0.00     0.000 C
HETATM   30  C16 UNL     1     -18.611   1.699  -6.297  1.00  0.00     0.005 C
ENDBRANCH  24  25
ENDBRANCH   2  24
BRANCH  10  31
HETATM   31  C25 UNL     1     -17.909   7.386  -5.998  1.00  0.00     0.033 C
BRANCH  31  32
HETATM   32  C26 UNL     1     -19.206   6.664  -5.528  1.00  0.00     0.002 C
BRANCH  32  33
HETATM   33  C27 UNL     1     -18.843   5.598  -4.520  1.00  0.00     0.000 C
BRANCH  33  34
HETATM   34  C28 UNL     1     -18.798   6.088  -3.111  1.00  0.00     0.004 C
BRANCH  34  35
HETATM   35  C29 UNL     1     -18.163   5.014  -2.249  1.00  0.00    -0.014 C
HETATM   36  C30 UNL     1     -16.868   5.430  -1.635  1.00  0.00     0.004 C
HETATM   37  C31 UNL     1     -16.724   4.897  -0.226  1.00  0.00     0.000 C
HETATM   38  C32 UNL     1     -17.329   3.525  -0.058  1.00  0.00     0.000 C
HETATM   39  C33 UNL     1     -16.966   2.601  -1.189  1.00  0.00     0.000 C
HETATM   40  C34 UNL     1     -18.118   2.589  -2.188  1.00  0.00     0.000 C
HETATM   41  C35 UNL     1     -17.923   3.777  -3.095  1.00  0.00     0.004 C
ENDBRANCH  34  35
ENDBRANCH  33  34
ENDBRANCH  32  33
ENDBRANCH  31  32
ENDBRANCH  10  31
BRANCH   7  42
HETATM   42  C19 UNL     1     -16.561   7.045 -10.790  1.00  0.00     0.034 C
BRANCH  42  43
HETATM   43  C20 UNL     1     -15.963   6.025 -11.702  1.00  0.00     0.022 C
BRANCH  43  44
HETATM   44  C21 UNL     1     -14.479   6.255 -11.927  1.00  0.00     0.122 C
BRANCH  44  45
HETATM   45  N4  UNL     1     -13.689   5.537 -10.981  1.00  0.00    -0.367 N
HETATM   46  C22 UNL     1     -13.151   6.018  -9.925  1.00  0.00     0.196 C
HETATM   47  N5  UNL     1     -13.259   7.380  -9.519  1.00  0.00    -0.067 NA
HETATM   48  N6  UNL     1     -12.391   5.110  -9.112  1.00  0.00    -0.067 NA
ATOM     49  H4  UNL     1     -13.539   4.545 -11.163  1.00  0.00     0.161 HD
ENDBRANCH  44  45
ENDBRANCH  43  44
ENDBRANCH  42  43
ENDBRANCH   7  42
TORSDOF 16
ENDMDL