MODEL 1
REMARK VINA RESULT: -8.568588788      0.000      0.000
REMARK  17 active torsions:
REMARK  status: ('A' for Active; 'I' for Inactive)
REMARK    1  A    between atoms: C2_2  and  C3_3
REMARK    2  A    between atoms: C3_3  and  C4_4
REMARK    3  A    between atoms: C4_4  and  C5_5
REMARK    4  A    between atoms: C5_5  and  C6_6
REMARK    5  A    between atoms: C6_6  and  C7_7
REMARK    6  A    between atoms: C6_6  and  N3_32
REMARK    7  A    between atoms: C7_7  and  C8_8
REMARK    8  A    between atoms: C8_8  and  C9_9
REMARK       I    between atoms: C9_9  and  N1_11
REMARK    9  A    between atoms: N1_11  and  C10_13
REMARK   10  A    between atoms: C10_13  and  C11_14
REMARK   11  A    between atoms: C10_13  and  C20_28
REMARK       I    between atoms: C11_14  and  N2_16
REMARK   12  A    between atoms: N2_16  and  C12_18
REMARK   13  A    between atoms: C12_18  and  C13_19
REMARK   14  A    between atoms: C13_19  and  O4_21
REMARK   15  A    between atoms: O4_21  and  C14_22
REMARK       I    between atoms: N3_32  and  C24_34
REMARK   16  A    between atoms: C24_34  and  C25_36
REMARK   17  A    between atoms: C25_36  and  N4_37
REMARK       I    between atoms: N4_37  and  C26_39
REMARK       I    between atoms: C26_39  and  N5_41
ROOT
HETATM    1  C7  UNL     1     -17.669  -2.320  -0.626  1.00  0.00     0.034 C
ENDROOT
BRANCH   1   2
HETATM    2  C6  UNL     1     -18.795  -1.306  -1.051  1.00  0.00     0.084 C
BRANCH   2   3
HETATM    3  C5  UNL     1     -18.642  -1.226  -2.527  1.00  0.00     0.025 C
BRANCH   3   4
HETATM    4  C4  UNL     1     -18.404   0.061  -3.192  1.00  0.00     0.002 C
BRANCH   4   5
HETATM    5  C3  UNL     1     -17.697   0.109  -4.473  1.00  0.00    -0.000 C
BRANCH   5   6
HETATM    6  C2  UNL     1     -16.257   0.414  -4.549  1.00  0.00    -0.005 C
HETATM    7  C1  UNL     1     -15.637   0.444  -5.903  1.00  0.00     0.005 C
ENDBRANCH   5   6
ENDBRANCH   4   5
ENDBRANCH   3   4
ENDBRANCH   2   3
BRANCH   2   8
HETATM    8  N3  UNL     1     -18.381  -0.006  -0.516  1.00  0.00    -0.355 N
HETATM    9  C24 UNL     1     -18.541   0.561   0.726  1.00  0.00     0.235 C
HETATM   10  O5  UNL     1     -19.097   0.038   1.695  1.00  0.00    -0.272 OA
ATOM     11  H3  UNL     1     -17.885   0.584  -1.184  1.00  0.00     0.162 HD
BRANCH   9  12
HETATM   12  C25 UNL     1     -17.978   1.949   0.927  1.00  0.00     0.227 C
BRANCH  12  13
HETATM   13  N4  UNL     1     -17.638   2.578  -0.361  1.00  0.00    -0.334 N
HETATM   14  C26 UNL     1     -18.500   3.531  -0.903  1.00  0.00     0.318 C
HETATM   15  O6  UNL     1     -19.561   3.819  -0.243  1.00  0.00    -0.247 OA
HETATM   16  N5  UNL     1     -18.315   4.234  -2.128  1.00  0.00    -0.334 N
HETATM   17  C27 UNL     1     -17.249   3.902  -2.988  1.00  0.00     0.127 C
HETATM   18  C34 UNL     1     -19.287   5.324  -2.297  1.00  0.00     0.136 C
HETATM   19  C28 UNL     1     -17.534   3.736  -4.438  1.00  0.00     0.020 C
HETATM   20  C29 UNL     1     -18.907   3.989  -4.913  1.00  0.00     0.002 C
HETATM   21  C30 UNL     1     -19.439   5.359  -4.768  1.00  0.00     0.010 C
HETATM   22  C31 UNL     1     -19.039   6.105  -3.530  1.00  0.00    -0.031 C
HETATM   23  C32 UNL     1     -20.149   7.217  -3.449  1.00  0.00     0.016 C
HETATM   24  C33 UNL     1     -17.778   6.877  -3.603  1.00  0.00     0.016 C
ATOM     25  H4  UNL     1     -16.781   2.320  -0.850  1.00  0.00     0.164 HD
ENDBRANCH  12  13
ENDBRANCH   9  12
ENDBRANCH   2   8
ENDBRANCH   1   2
BRANCH   1  26
HETATM   26  C8  UNL     1     -18.278  -3.661  -0.254  1.00  0.00     0.105 C
BRANCH  26  27
HETATM   27  C9  UNL     1     -18.041  -3.956   1.165  1.00  0.00     0.218 C
HETATM   28  O1  UNL     1     -16.812  -3.961   1.541  1.00  0.00    -0.274 OA
HETATM   29  N1  UNL     1     -18.978  -4.248   2.183  1.00  0.00    -0.347 N
ATOM     30  H1  UNL     1     -19.976  -4.256   1.975  1.00  0.00     0.163 HD
BRANCH  29  31
HETATM   31  C10 UNL     1     -18.510  -4.537   3.523  1.00  0.00     0.181 C
BRANCH  31  32
HETATM   32  C11 UNL     1     -18.409  -3.349   4.405  1.00  0.00     0.241 C
HETATM   33  O2  UNL     1     -19.362  -3.111   5.183  1.00  0.00    -0.271 OA
HETATM   34  N2  UNL     1     -17.300  -2.496   4.390  1.00  0.00    -0.341 N
ATOM     35  H2  UNL     1     -16.558  -2.748   3.737  1.00  0.00     0.163 HD
BRANCH  34  36
HETATM   36  C12 UNL     1     -17.067  -1.314   5.171  1.00  0.00     0.121 A
HETATM   37  C18 UNL     1     -16.137  -0.249   4.545  1.00  0.00     0.044 A
HETATM   38  C19 UNL     1     -17.579   0.018   4.841  1.00  0.00     0.044 A
BRANCH  36  39
HETATM   39  C13 UNL     1     -16.739  -1.575   6.641  1.00  0.00     0.288 C
HETATM   40  O3  UNL     1     -17.288  -0.946   7.541  1.00  0.00    -0.262 OA
BRANCH  39  41
HETATM   41  O4  UNL     1     -15.795  -2.546   6.946  1.00  0.00    -0.309 OA
BRANCH  41  42
HETATM   42  C14 UNL     1     -16.025  -3.768   7.564  1.00  0.00     0.060 C
HETATM   43  C15 UNL     1     -15.103  -4.022   8.741  1.00  0.00     0.045 C
HETATM   44  C16 UNL     1     -15.726  -4.852   6.518  1.00  0.00     0.045 C
HETATM   45  C17 UNL     1     -17.449  -3.991   8.001  1.00  0.00     0.045 C
ENDBRANCH  41  42
ENDBRANCH  39  41
ENDBRANCH  36  39
ENDBRANCH  34  36
ENDBRANCH  31  32
BRANCH  31  46
HETATM   46  C20 UNL     1     -19.317  -5.594   4.223  1.00  0.00     0.021 A
HETATM   47  C21 UNL     1     -20.023  -6.669   3.488  1.00  0.00     0.012 A
HETATM   48  C22 UNL     1     -18.734  -7.006   4.109  1.00  0.00    -0.012 A
HETATM   49  C23 UNL     1     -18.629  -7.759   5.406  1.00  0.00     0.010 C
ENDBRANCH  31  46
ENDBRANCH  29  31
ENDBRANCH  26  27
ENDBRANCH   1  26
TORSDOF 17
ENDMDL