MODEL 1
REMARK VINA RESULT: -9.849254685      0.000      0.000
REMARK  16 active torsions:
REMARK  status: ('A' for Active; 'I' for Inactive)
REMARK    1  A    between atoms: C2_2  and  C3_3
REMARK    2  A    between atoms: C3_3  and  C4_4
REMARK    3  A    between atoms: C4_4  and  C5_5
REMARK    4  A    between atoms: C5_5  and  C6_6
REMARK       I    between atoms: C6_6  and  N1_8
REMARK    5  A    between atoms: N1_8  and  C7_10
REMARK    6  A    between atoms: C7_10  and  N2_11
REMARK    7  A    between atoms: C7_10  and  C24_33
REMARK       I    between atoms: N2_11  and  C8_13
REMARK    8  A    between atoms: C8_13  and  C9_15
REMARK    9  A    between atoms: C9_15  and  C10_16
REMARK   10  A    between atoms: C9_15  and  N3_20
REMARK   11  A    between atoms: C10_16  and  C11_17
REMARK       I    between atoms: N3_20  and  C14_22
REMARK   12  A    between atoms: C14_22  and  C15_24
REMARK   13  A    between atoms: C15_24  and  C17_26
REMARK   14  A    between atoms: C24_33  and  O4_34
REMARK   15  A    between atoms: C24_33  and  C25_36
REMARK       I    between atoms: C25_36  and  N4_38
REMARK   16  A    between atoms: N4_38  and  C26_40
ROOT
HETATM    1  C7  UNL     1     -19.420   0.647   0.627  1.00  0.00     0.250 C
ENDROOT
BRANCH   1   2
HETATM    2  N1  UNL     1     -19.482   0.968   2.078  1.00  0.00    -0.334 N
HETATM    3  C6  UNL     1     -18.313   0.969   2.834  1.00  0.00     0.219 C
HETATM    4  O1  UNL     1     -17.210   0.702   2.252  1.00  0.00    -0.274 OA
ATOM      5  H1  UNL     1     -20.377   1.186   2.517  1.00  0.00     0.165 HD
BRANCH   3   6
HETATM    6  C5  UNL     1     -18.257   1.264   4.283  1.00  0.00     0.103 C
BRANCH   6   7
HETATM    7  C4  UNL     1     -17.703   0.153   5.115  1.00  0.00     0.009 C
BRANCH   7   8
HETATM    8  C3  UNL     1     -18.585  -0.200   6.312  1.00  0.00     0.000 C
BRANCH   8   9
HETATM    9  C2  UNL     1     -17.844  -1.103   7.263  1.00  0.00    -0.005 C
HETATM   10  C1  UNL     1     -18.442  -2.477   7.280  1.00  0.00     0.005 C
ENDBRANCH   8   9
ENDBRANCH   7   8
ENDBRANCH   6   7
ENDBRANCH   3   6
ENDBRANCH   1   2
BRANCH   1  11
HETATM   11  N2  UNL     1     -18.377   1.332  -0.019  1.00  0.00    -0.329 N
HETATM   12  C8  UNL     1     -18.515   2.678  -0.522  1.00  0.00     0.266 C
HETATM   13  O2  UNL     1     -19.656   3.210  -0.267  1.00  0.00    -0.266 OA
ATOM     14  H2  UNL     1     -17.483   0.856  -0.139  1.00  0.00     0.165 HD
BRANCH  12  15
HETATM   15  C9  UNL     1     -17.536   3.439  -1.242  1.00  0.00     0.080 C
BRANCH  15  16
HETATM   16  C10 UNL     1     -17.498   4.918  -1.190  1.00  0.00     0.067 C
BRANCH  16  17
HETATM   17  C11 UNL     1     -17.830   5.650  -2.436  1.00  0.00    -0.017 C
HETATM   18  C12 UNL     1     -16.893   6.860  -2.587  1.00  0.00     0.010 C
HETATM   19  C13 UNL     1     -19.195   6.090  -2.720  1.00  0.00     0.010 C
ENDBRANCH  16  17
ENDBRANCH  15  16
BRANCH  15  20
HETATM   20  N3  UNL     1     -16.873   2.909  -2.395  1.00  0.00    -0.326 N
HETATM   21  C14 UNL     1     -17.427   2.091  -3.399  1.00  0.00     0.226 C
HETATM   22  O3  UNL     1     -18.657   1.830  -3.238  1.00  0.00    -0.273 OA
ATOM     23  H3  UNL     1     -15.888   3.152  -2.501  1.00  0.00     0.168 HD
BRANCH  21  24
HETATM   24  C15 UNL     1     -16.693   1.587  -4.499  1.00  0.00     0.078 C
HETATM   25  C16 UNL     1     -16.252   0.132  -4.119  1.00  0.00     0.020 C
BRANCH  24  26
HETATM   26  C17 UNL     1     -17.092   1.526  -5.885  1.00  0.00     0.003 C
HETATM   27  C18 UNL     1     -16.316   2.240  -6.956  1.00  0.00     0.010 C
HETATM   28  C19 UNL     1     -17.269   1.946  -8.148  1.00  0.00    -0.014 C
HETATM   29  C20 UNL     1     -17.819   0.565  -8.136  1.00  0.00     0.005 C
HETATM   30  C23 UNL     1     -18.481   2.694  -7.522  1.00  0.00     0.009 C
HETATM   31  C21 UNL     1     -18.954   0.534  -7.087  1.00  0.00     0.005 C
HETATM   32  C22 UNL     1     -18.518   1.779  -6.281  1.00  0.00    -0.009 C
ENDBRANCH  24  26
ENDBRANCH  21  24
ENDBRANCH  15  20
ENDBRANCH  12  15
ENDBRANCH   1  11
BRANCH   1  33
HETATM   33  C24 UNL     1     -19.568  -0.787   0.515  1.00  0.00     0.154 C
BRANCH  33  34
HETATM   34  O4  UNL     1     -20.781  -1.176   0.174  1.00  0.00    -0.357 OA
ATOM     35  H4  UNL     1     -20.812  -2.038  -0.225  1.00  0.00     0.217 HD
ENDBRANCH  33  34
BRANCH  33  36
HETATM   36  C25 UNL     1     -18.586  -1.804   0.723  1.00  0.00     0.274 C
HETATM   37  O5  UNL     1     -17.580  -1.892   0.005  1.00  0.00    -0.266 OA
HETATM   38  N4  UNL     1     -18.722  -2.751   1.763  1.00  0.00    -0.350 N
ATOM     39  H4  UNL     1     -19.571  -2.665   2.323  1.00  0.00     0.163 HD
BRANCH  38  40
HETATM   40  C26 UNL     1     -17.852  -3.801   2.142  1.00  0.00     0.093 C
HETATM   41  C27 UNL     1     -17.687  -4.044   3.584  1.00  0.00     0.030 C
HETATM   42  C28 UNL     1     -18.278  -5.428   3.888  1.00  0.00    -0.011 C
HETATM   43  C29 UNL     1     -17.240  -6.491   3.927  1.00  0.00     0.013 C
HETATM   44  C36 UNL     1     -19.148  -5.686   2.660  1.00  0.00     0.016 C
HETATM   45  C30 UNL     1     -16.497  -6.708   2.657  1.00  0.00    -0.047 C
HETATM   46  C31 UNL     1     -15.022  -6.467   2.929  1.00  0.00     0.015 C
HETATM   47  C32 UNL     1     -16.613  -8.199   2.312  1.00  0.00     0.015 C
HETATM   48  C33 UNL     1     -16.948  -5.951   1.477  1.00  0.00     0.020 C
HETATM   49  C34 UNL     1     -18.230  -5.174   1.597  1.00  0.00    -0.022 C
HETATM   50  C35 UNL     1     -18.934  -5.132   0.284  1.00  0.00     0.017 C
ENDBRANCH  38  40
ENDBRANCH  33  36
ENDBRANCH   1  33
TORSDOF 16
ENDMDL