MODEL 2
REMARK VINA RESULT: -8.541278031      2.342      9.771
REMARK  20 active torsions:
REMARK  status: ('A' for Active; 'I' for Inactive)
REMARK    1  A    between atoms: C2_2  and  C3_3
REMARK    2  A    between atoms: C3_3  and  C4_4
REMARK       I    between atoms: N1_7  and  C7_8
REMARK    3  A    between atoms: C7_8  and  C8_10
REMARK    4  A    between atoms: C8_10  and  N2_11
REMARK    5  A    between atoms: C8_10  and  C24_36
REMARK    6  A    between atoms: N2_11  and  C9_13
REMARK    7  A    between atoms: C9_13  and  C10_14
REMARK    8  A    between atoms: C9_13  and  C12_16
REMARK    9  A    between atoms: C12_16  and  O2_17
REMARK   10  A    between atoms: N3_19  and  C13_21
REMARK   11  A    between atoms: C13_21  and  O3_22
REMARK   12  A    between atoms: C13_21  and  N4_24
REMARK   13  A    between atoms: N4_24  and  C14_26
REMARK   14  A    between atoms: C24_36  and  C25_37
REMARK   15  A    between atoms: C24_36  and  N5_45
REMARK   16  A    between atoms: C25_37  and  C26_38
REMARK   17  A    between atoms: C26_38  and  C27_39
REMARK   18  A    between atoms: C27_39  and  C28_40
REMARK   19  A    between atoms: C28_40  and  C29_41
REMARK   20  A    between atoms: C29_41  and  C30_42
ROOT
HETATM    1  C8  UNL     1     -17.141   1.216  -1.409  1.00  0.00     0.120 C
ENDROOT
BRANCH   1   2
HETATM    2  C7  UNL     1     -16.486  -0.015  -0.931  1.00  0.00     0.272 C
HETATM    3  N1  UNL     1     -17.162  -1.296  -0.850  1.00  0.00    -0.346 N
HETATM    4  C6  UNL     1     -18.500  -1.551  -1.288  1.00  0.00     0.126 C
HETATM    5  C35 UNL     1     -16.634  -2.544  -0.306  1.00  0.00     0.130 C
HETATM    6  C5  UNL     1     -19.038  -2.328  -0.070  1.00  0.00     0.026 C
HETATM    7  C4  UNL     1     -17.847  -3.199   0.306  1.00  0.00     0.005 C
HETATM    8  O1  UNL     1     -15.289  -0.118  -0.548  1.00  0.00    -0.266 OA
BRANCH   7   9
HETATM    9  C3  UNL     1     -17.677  -3.261   1.792  1.00  0.00     0.006 C
BRANCH   9  10
HETATM   10  C2  UNL     1     -18.467  -4.394   2.416  1.00  0.00    -0.004 C
HETATM   11  C1  UNL     1     -18.421  -5.600   1.529  1.00  0.00     0.005 C
ENDBRANCH   9  10
ENDBRANCH   7   9
ENDBRANCH   1   2
BRANCH   1  12
HETATM   12  N2  UNL     1     -16.718   1.764  -2.613  1.00  0.00    -0.372 N
ATOM     13  H2  UNL     1     -16.125   2.584  -2.485  1.00  0.00     0.160 HD
BRANCH  12  14
HETATM   14  C9  UNL     1     -16.916   1.455  -3.937  1.00  0.00     0.156 C
BRANCH  14  15
HETATM   15  C10 UNL     1     -16.568   0.233  -4.635  1.00  0.00     0.029 C
HETATM   16  C11 UNL     1     -15.648   0.628  -5.824  1.00  0.00     0.007 C
ENDBRANCH  14  15
BRANCH  14  17
HETATM   17  C12 UNL     1     -18.389   1.770  -4.163  1.00  0.00     0.141 C
HETATM   18  N3  UNL     1     -19.217   2.720  -4.614  1.00  0.00    -0.305 N
ATOM     19  H3  UNL     1     -20.153   2.457  -4.305  1.00  0.00     0.171 HD
BRANCH  17  20
HETATM   20  O2  UNL     1     -19.125   0.677  -3.761  1.00  0.00    -0.348 OA
ATOM     21  H2  UNL     1     -19.785   0.508  -4.423  1.00  0.00     0.219 HD
ENDBRANCH  17  20
BRANCH  18  22
HETATM   22  C13 UNL     1     -19.355   3.913  -5.325  1.00  0.00     0.219 C
BRANCH  22  23
HETATM   23  O3  UNL     1     -20.554   4.504  -5.181  1.00  0.00    -0.332 OA
ATOM     24  H3  UNL     1     -20.624   5.062  -4.415  1.00  0.00     0.220 HD
ENDBRANCH  22  23
BRANCH  22  25
HETATM   25  N4  UNL     1     -18.551   4.664  -6.171  1.00  0.00    -0.347 N
ATOM     26  H4  UNL     1     -18.514   4.392  -7.154  1.00  0.00     0.163 HD
BRANCH  25  27
HETATM   27  C14 UNL     1     -17.755   5.818  -5.755  1.00  0.00     0.034 C
HETATM   28  C15 UNL     1     -18.600   7.026  -5.562  1.00  0.00     0.035 C
HETATM   29  C16 UNL     1     -17.725   8.209  -5.155  1.00  0.00    -0.012 C
HETATM   30  C17 UNL     1     -16.788   8.510  -6.278  1.00  0.00     0.009 C
HETATM   31  C21 UNL     1     -16.961   7.856  -3.913  1.00  0.00     0.009 C
HETATM   32  C18 UNL     1     -15.932   7.271  -6.507  1.00  0.00    -0.012 C
HETATM   33  C19 UNL     1     -15.118   6.980  -5.275  1.00  0.00     0.009 C
HETATM   34  C23 UNL     1     -16.807   6.137  -6.923  1.00  0.00     0.035 C
HETATM   35  C20 UNL     1     -16.079   6.668  -4.147  1.00  0.00    -0.012 C
HETATM   36  C22 UNL     1     -16.877   5.458  -4.603  1.00  0.00     0.035 C
ENDBRANCH  25  27
ENDBRANCH  22  25
ENDBRANCH  18  22
ENDBRANCH  14  17
ENDBRANCH  12  14
ENDBRANCH   1  12
BRANCH   1  37
HETATM   37  C24 UNL     1     -17.545   2.181  -0.313  1.00  0.00     0.039 C
BRANCH  37  38
HETATM   38  C25 UNL     1     -18.537   1.548   0.654  1.00  0.00     0.059 C
BRANCH  38  39
HETATM   39  C26 UNL     1     -17.856   1.177   1.959  1.00  0.00     0.006 C
BRANCH  39  40
HETATM   40  C27 UNL     1     -18.697   0.226   2.773  1.00  0.00     0.001 C
BRANCH  40  41
HETATM   41  C28 UNL     1     -17.842  -0.210   3.954  1.00  0.00     0.010 C
BRANCH  41  42
HETATM   42  C29 UNL     1     -18.554  -1.261   4.778  1.00  0.00     0.113 C
BRANCH  42  43
HETATM   43  C30 UNL     1     -18.875  -0.696   6.109  1.00  0.00     0.172 C
HETATM   44  O4  UNL     1     -19.285  -1.518   6.988  1.00  0.00    -0.648 OA
HETATM   45  O5  UNL     1     -18.744   0.658   6.408  1.00  0.00    -0.648 OA
ENDBRANCH  42  43
ENDBRANCH  41  42
ENDBRANCH  40  41
ENDBRANCH  39  40
ENDBRANCH  38  39
ENDBRANCH  37  38
BRANCH  37  46
HETATM   46  N5  UNL     1     -17.837   3.493  -0.625  1.00  0.00    -0.382 N
HETATM   47  C31 UNL     1     -19.130   4.012  -0.797  1.00  0.00     0.123 C
HETATM   48  C32 UNL     1     -18.877   5.407  -1.398  1.00  0.00     0.021 C
HETATM   49  C33 UNL     1     -17.490   5.738  -0.956  1.00  0.00     0.021 C
HETATM   50  C34 UNL     1     -17.034   4.569  -0.123  1.00  0.00     0.123 C
ENDBRANCH  37  46
ENDBRANCH   1  37
TORSDOF 20
ENDMDL