MODEL 2
REMARK VINA RESULT: -8.459069058      2.487      7.403
REMARK  19 active torsions:
REMARK  status: ('A' for Active; 'I' for Inactive)
REMARK    1  A    between atoms: C2_2  and  C3_3
REMARK    2  A    between atoms: C3_3  and  C4_4
REMARK    3  A    between atoms: C4_4  and  C5_5
REMARK    4  A    between atoms: C5_5  and  C6_6
REMARK    5  A    between atoms: C6_6  and  C7_7
REMARK    6  A    between atoms: C7_7  and  C8_8
REMARK    7  A    between atoms: C8_8  and  C9_9
REMARK    8  A    between atoms: C9_9  and  C10_10
REMARK    9  A    between atoms: C10_10  and  N1_11
REMARK       I    between atoms: N1_11  and  C11_12
REMARK   10  A    between atoms: C11_12  and  C12_14
REMARK   11  A    between atoms: C12_14  and  N2_15
REMARK   12  A    between atoms: C12_14  and  N6_33
REMARK   13  A    between atoms: N3_21  and  C17_22
REMARK   14  A    between atoms: C17_22  and  C18_23
REMARK       I    between atoms: C18_23  and  N4_25
REMARK   15  A    between atoms: N6_33  and  C24_35
REMARK   16  A    between atoms: C24_35  and  C25_36
REMARK   17  A    between atoms: C24_35  and  N8_42
REMARK   18  A    between atoms: C25_36  and  C26_37
REMARK   19  A    between atoms: C26_37  and  N7_38
REMARK       I    between atoms: N8_42  and  C27_43
REMARK       I    between atoms: C27_43  and  N9_45
ROOT
HETATM    1  C12 UNL     1     -17.844  -0.129  -0.392  1.00  0.00     0.294 C
ENDROOT
BRANCH   1   2
HETATM    2  C11 UNL     1     -16.671   0.337   0.446  1.00  0.00     0.329 C
HETATM    3  N1  UNL     1     -16.578   0.038   1.753  1.00  0.00    -0.412 NA
HETATM    4  O1  UNL     1     -15.799   1.015  -0.200  1.00  0.00    -0.253 OA
BRANCH   3   5
HETATM    5  C10 UNL     1     -16.477  -0.274   3.116  1.00  0.00     0.221 C
BRANCH   5   6
HETATM    6  C9  UNL     1     -17.913  -0.459   3.647  1.00  0.00     0.033 C
BRANCH   6   7
HETATM    7  C8  UNL     1     -18.529   0.868   3.880  1.00  0.00     0.002 C
BRANCH   7   8
HETATM    8  C7  UNL     1     -18.587   1.245   5.323  1.00  0.00     0.000 C
BRANCH   8   9
HETATM    9  C6  UNL     1     -18.933   0.048   6.192  1.00  0.00     0.000 C
BRANCH   9  10
HETATM   10  C5  UNL     1     -17.902  -0.143   7.246  1.00  0.00     0.000 C
BRANCH  10  11
HETATM   11  C4  UNL     1     -17.492  -1.536   7.556  1.00  0.00     0.000 C
BRANCH  11  12
HETATM   12  C3  UNL     1     -16.464  -2.074   6.580  1.00  0.00    -0.000 C
BRANCH  12  13
HETATM   13  C2  UNL     1     -16.965  -3.317   5.883  1.00  0.00    -0.005 C
HETATM   14  C1  UNL     1     -18.430  -3.593   6.109  1.00  0.00     0.005 C
ENDBRANCH  12  13
ENDBRANCH  11  12
ENDBRANCH  10  11
ENDBRANCH   9  10
ENDBRANCH   8   9
ENDBRANCH   7   8
ENDBRANCH   6   7
ENDBRANCH   5   6
ENDBRANCH   3   5
ENDBRANCH   1   2
BRANCH   1  15
HETATM   15  N2  UNL     1     -18.550  -1.218   0.169  1.00  0.00    -0.345 N
HETATM   16  C13 UNL     1     -18.277  -2.464   0.226  1.00  0.00     0.119 A
HETATM   17  C14 UNL     1     -17.180  -3.166  -0.255  1.00  0.00     0.075 A
HETATM   18  N5  UNL     1     -19.077  -3.424   0.805  1.00  0.00    -0.283 N
HETATM   19  C15 UNL     1     -17.375  -4.493   0.057  1.00  0.00     0.029 A
HETATM   20  C16 UNL     1     -16.442  -5.613  -0.273  1.00  0.00     0.070 C
HETATM   21  N3  UNL     1     -18.546  -4.610   0.706  1.00  0.00    -0.286 N
ATOM     22  H5  UNL     1     -19.971  -3.231   1.256  1.00  0.00     0.189 HD
ATOM     23  H2  UNL     1     -19.436  -0.962   0.606  1.00  0.00     0.163 HD
BRANCH  21  24
HETATM   24  C17 UNL     1     -19.149  -5.834   1.219  1.00  0.00     0.251 C
BRANCH  24  25
HETATM   25  C18 UNL     1     -19.019  -6.003   2.662  1.00  0.00     0.239 C
HETATM   26  O2  UNL     1     -19.676  -5.216   3.396  1.00  0.00    -0.271 OA
HETATM   27  N4  UNL     1     -18.219  -6.969   3.317  1.00  0.00    -0.351 N
HETATM   28  C19 UNL     1     -17.378  -7.944   2.666  1.00  0.00     0.126 C
HETATM   29  C23 UNL     1     -18.201  -7.033   4.791  1.00  0.00     0.126 C
HETATM   30  C20 UNL     1     -15.944  -7.447   2.847  1.00  0.00     0.020 C
HETATM   31  C21 UNL     1     -15.926  -6.480   4.021  1.00  0.00     0.003 C
HETATM   32  C22 UNL     1     -16.754  -6.990   5.187  1.00  0.00     0.020 C
ENDBRANCH  24  25
ENDBRANCH  21  24
ENDBRANCH   1  15
BRANCH   1  33
HETATM   33  N6  UNL     1     -18.669   1.046  -0.595  1.00  0.00    -0.338 N
ATOM     34  H6  UNL     1     -19.228   1.432   0.166  1.00  0.00     0.164 HD
BRANCH  33  35
HETATM   35  C24 UNL     1     -18.678   1.655  -1.908  1.00  0.00     0.160 C
BRANCH  35  36
HETATM   36  C25 UNL     1     -18.513   3.152  -2.007  1.00  0.00     0.119 C
BRANCH  36  37
HETATM   37  C26 UNL     1     -17.048   3.496  -2.168  1.00  0.00     0.238 C
BRANCH  37  38
HETATM   38  N7  UNL     1     -16.447   3.860  -0.910  1.00  0.00    -0.079 N
ATOM     39  H73 UNL     1     -17.061   4.466  -0.365  1.00  0.00     0.274 HD
ATOM     40  H72 UNL     1     -16.405   3.064  -0.273  1.00  0.00     0.274 HD
ATOM     41  H71 UNL     1     -15.528   4.282  -1.040  1.00  0.00     0.274 HD
ENDBRANCH  37  38
ENDBRANCH  36  37
ENDBRANCH  35  36
BRANCH  35  42
HETATM   42  N8  UNL     1     -18.845   1.011  -2.909  1.00  0.00    -0.338 NA
HETATM   43  C27 UNL     1     -18.786   0.215  -3.946  1.00  0.00     0.397 C
HETATM   44  O3  UNL     1     -18.846  -1.074  -3.903  1.00  0.00    -0.230 OA
HETATM   45  N9  UNL     1     -18.639   0.763  -5.286  1.00  0.00    -0.322 N
HETATM   46  C28 UNL     1     -18.562  -0.166  -6.367  1.00  0.00     0.129 C
HETATM   47  C33 UNL     1     -18.597   2.212  -5.343  1.00  0.00     0.129 C
HETATM   48  C29 UNL     1     -18.505   0.574  -7.689  1.00  0.00     0.020 C
HETATM   49  C30 UNL     1     -17.281   1.433  -7.829  1.00  0.00     0.002 C
HETATM   50  C31 UNL     1     -16.544   1.624  -6.536  1.00  0.00     0.002 C
HETATM   51  C32 UNL     1     -17.229   2.686  -5.725  1.00  0.00     0.020 C
ENDBRANCH  35  42
ENDBRANCH  33  35
ENDBRANCH   1  33
TORSDOF 19
ENDMDL