MODEL 1
REMARK VINA RESULT: -8.667184178      0.000      0.000
REMARK  16 active torsions:
REMARK  status: ('A' for Active; 'I' for Inactive)
REMARK    1  A    between atoms: C2_2  and  C4_4
REMARK    2  A    between atoms: C4_4  and  N1_5
REMARK       I    between atoms: N1_5  and  C5_7
REMARK    3  A    between atoms: C5_7  and  C6_9
REMARK    4  A    between atoms: C6_9  and  C7_10
REMARK    5  A    between atoms: C7_10  and  C8_11
REMARK    6  A    between atoms: C8_11  and  N2_12
REMARK    7  A    between atoms: C8_11  and  C17_25
REMARK       I    between atoms: N2_12  and  C9_14
REMARK       I    between atoms: C9_14  and  N3_16
REMARK    8  A    between atoms: N3_16  and  C10_18
REMARK       I    between atoms: C17_25  and  N4_27
REMARK    9  A    between atoms: N4_27  and  C18_28
REMARK   10  A    between atoms: N4_27  and  C30_45
REMARK   11  A    between atoms: C18_28  and  C19_29
REMARK   12  A    between atoms: C19_29  and  C20_30
REMARK       I    between atoms: C20_30  and  N5_32
REMARK   13  A    between atoms: C24_36  and  C25_37
REMARK       I    between atoms: C25_37  and  N6_39
REMARK   14  A    between atoms: N6_39  and  C26_41
REMARK   15  A    between atoms: C26_41  and  C27_42
REMARK   16  A    between atoms: C30_45  and  C31_46
ROOT
HETATM    1  C17 UNL     1     -17.768   2.924  -0.587  1.00  0.00     0.242 C
HETATM    2  O3  UNL     1     -17.019   3.678   0.144  1.00  0.00    -0.271 OA
HETATM    3  N4  UNL     1     -17.977   1.594  -0.134  1.00  0.00    -0.349 N
ENDROOT
BRANCH   1   4
HETATM    4  C8  UNL     1     -18.293   3.570  -1.786  1.00  0.00     0.179 C
BRANCH   4   5
HETATM    5  C7  UNL     1     -18.344   5.109  -1.584  1.00  0.00     0.044 C
BRANCH   5   6
HETATM    6  C6  UNL     1     -19.491   5.760  -2.228  1.00  0.00     0.105 C
BRANCH   6   7
HETATM    7  C5  UNL     1     -19.118   6.646  -3.353  1.00  0.00     0.217 C
HETATM    8  N1  UNL     1     -18.909   6.095  -4.673  1.00  0.00    -0.357 N
ATOM      9  H1  UNL     1     -19.016   5.094  -4.837  1.00  0.00     0.162 HD
HETATM   10  O1  UNL     1     -18.978   7.869  -3.187  1.00  0.00    -0.274 OA
BRANCH   8  11
HETATM   11  C4  UNL     1     -18.552   6.963  -5.740  1.00  0.00     0.155 C
BRANCH  11  12
HETATM   12  C2  UNL     1     -17.235   6.763  -6.339  1.00  0.00    -0.075 C
HETATM   13  C1  UNL     1     -16.230   6.215  -5.727  1.00  0.00     0.015 C
HETATM   14  C3  UNL     1     -17.048   7.227  -7.761  1.00  0.00     0.044 C
ENDBRANCH  11  12
ENDBRANCH   8  11
ENDBRANCH   6   7
ENDBRANCH   5   6
ENDBRANCH   4   5
BRANCH   4  15
HETATM   15  N2  UNL     1     -17.450   3.340  -2.937  1.00  0.00    -0.330 N
HETATM   16  C9  UNL     1     -17.666   2.529  -4.051  1.00  0.00     0.317 C
HETATM   17  O2  UNL     1     -18.658   1.826  -4.325  1.00  0.00    -0.247 OA
HETATM   18  N3  UNL     1     -16.614   2.474  -5.048  1.00  0.00    -0.334 N
ATOM     19  H3  UNL     1     -15.762   3.016  -4.905  1.00  0.00     0.165 HD
ATOM     20  H2  UNL     1     -16.566   3.848  -2.935  1.00  0.00     0.165 HD
BRANCH  18  21
HETATM   21  C10 UNL     1     -16.745   1.667  -6.243  1.00  0.00     0.031 C
HETATM   22  C11 UNL     1     -16.223   0.287  -5.905  1.00  0.00     0.038 C
HETATM   23  C12 UNL     1     -18.210   1.558  -6.538  1.00  0.00     0.031 C
HETATM   24  C13 UNL     1     -18.554   1.943  -7.957  1.00  0.00     0.002 C
HETATM   25  C14 UNL     1     -18.090   3.377  -8.108  1.00  0.00     0.000 C
HETATM   26  C15 UNL     1     -16.605   3.368  -8.106  1.00  0.00     0.002 C
HETATM   27  C16 UNL     1     -15.939   2.292  -7.334  1.00  0.00     0.031 C
ENDBRANCH  18  21
ENDBRANCH   4  15
ENDBRANCH   1   4
BRANCH   3  28
HETATM   28  C18 UNL     1     -17.396   1.203   1.165  1.00  0.00     0.135 C
BRANCH  28  29
HETATM   29  C19 UNL     1     -18.441   0.857   2.184  1.00  0.00     0.123 C
BRANCH  29  30
HETATM   30  C20 UNL     1     -17.937  -0.306   2.974  1.00  0.00     0.222 C
HETATM   31  O4  UNL     1     -17.458  -1.282   2.335  1.00  0.00    -0.273 OA
HETATM   32  N5  UNL     1     -17.970  -0.358   4.388  1.00  0.00    -0.339 N
HETATM   33  C21 UNL     1     -18.523   0.702   5.221  1.00  0.00     0.127 C
HETATM   34  C24 UNL     1     -17.464  -1.439   5.193  1.00  0.00     0.179 C
HETATM   35  C22 UNL     1     -18.762   0.004   6.550  1.00  0.00     0.022 C
HETATM   36  C23 UNL     1     -17.702  -1.039   6.640  1.00  0.00     0.037 C
BRANCH  34  37
HETATM   37  C25 UNL     1     -18.102  -2.739   4.903  1.00  0.00     0.240 C
HETATM   38  O5  UNL     1     -19.248  -3.024   5.332  1.00  0.00    -0.271 OA
HETATM   39  N6  UNL     1     -17.396  -3.684   4.116  1.00  0.00    -0.359 N
ATOM     40  H6  UNL     1     -16.464  -3.452   3.774  1.00  0.00     0.162 HD
BRANCH  39  41
HETATM   41  C26 UNL     1     -17.969  -4.968   3.791  1.00  0.00     0.126 C
BRANCH  41  42
HETATM   42  C27 UNL     1     -18.549  -4.971   2.385  1.00  0.00    -0.005 C
HETATM   43  C28 UNL     1     -19.318  -6.255   2.152  1.00  0.00     0.011 C
HETATM   44  C29 UNL     1     -17.430  -4.939   1.356  1.00  0.00     0.011 C
ENDBRANCH  41  42
ENDBRANCH  39  41
ENDBRANCH  34  37
ENDBRANCH  29  30
ENDBRANCH  28  29
ENDBRANCH   3  28
BRANCH   3  45
HETATM   45  C30 UNL     1     -18.687   0.585  -0.841  1.00  0.00     0.134 C
BRANCH  45  46
HETATM   46  C31 UNL     1     -17.903  -0.472  -1.520  1.00  0.00    -0.035 C
HETATM   47  C32 UNL     1     -16.525  -0.118  -1.962  1.00  0.00     0.016 C
HETATM   48  C33 UNL     1     -17.865  -1.807  -0.806  1.00  0.00     0.016 C
HETATM   49  C34 UNL     1     -18.680  -0.782  -2.831  1.00  0.00     0.016 C
ENDBRANCH  45  46
ENDBRANCH   3  45
TORSDOF 16
ENDMDL