MODEL 4
REMARK VINA RESULT: -8.443790188      2.303      4.454
REMARK  16 active torsions:
REMARK  status: ('A' for Active; 'I' for Inactive)
REMARK    1  A    between atoms: C2_2  and  C3_3
REMARK    2  A    between atoms: C3_3  and  C4_4
REMARK    3  A    between atoms: C4_4  and  C5_5
REMARK    4  A    between atoms: C5_5  and  C6_6
REMARK    5  A    between atoms: C6_6  and  C7_7
REMARK    6  A    between atoms: C7_7  and  C8_8
REMARK    7  A    between atoms: C8_8  and  C9_9
REMARK    8  A    between atoms: C9_9  and  N1_10
REMARK    9  A    between atoms: N1_10  and  C10_11
REMARK   10  A    between atoms: C10_11  and  C11_12
REMARK   11  A    between atoms: C11_12  and  C12_13
REMARK   12  A    between atoms: C12_13  and  C13_14
REMARK   13  A    between atoms: C13_14  and  C14_15
REMARK   14  A    between atoms: C14_15  and  C15_16
REMARK       I    between atoms: C15_16  and  N2_18
REMARK   15  A    between atoms: C29_39  and  O2_40
REMARK   16  A    between atoms: C30_42  and  C32_44
ROOT
HETATM    1  N1  UNL     1     -17.475   1.616  -2.770  1.00  0.00    -0.066 N
HETATM    2  C24 UNL     1     -17.412   0.599  -3.759  1.00  0.00     0.237 C
HETATM    3  C25 UNL     1     -18.584   0.198  -4.532  1.00  0.00     0.028 C
HETATM    4  C26 UNL     1     -18.115  -0.257  -5.928  1.00  0.00     0.003 C
HETATM    5  C27 UNL     1     -19.012   0.154  -7.029  1.00  0.00     0.020 C
HETATM    6  C28 UNL     1     -18.723   1.410  -7.753  1.00  0.00     0.121 C
HETATM    7  N5  UNL     1     -17.361   1.779  -7.949  1.00  0.00    -0.373 N
ATOM      8  H5  UNL     1     -16.854   1.182  -8.602  1.00  0.00     0.161 HD
HETATM    9  C29 UNL     1     -16.594   2.818  -7.402  1.00  0.00     0.129 C
HETATM   10  C30 UNL     1     -16.668   4.260  -7.488  1.00  0.00     0.101 C
HETATM   11  C31 UNL     1     -15.164   4.787  -7.450  1.00  0.00     0.034 C
HETATM   12  C34 UNL     1     -17.253   4.976  -6.332  1.00  0.00     0.234 C
HETATM   13  O3  UNL     1     -17.798   6.104  -6.628  1.00  0.00    -0.272 OA
HETATM   14  N6  UNL     1     -17.294   4.607  -4.983  1.00  0.00    -0.358 N
ATOM     15  H6  UNL     1     -16.830   5.245  -4.338  1.00  0.00     0.162 HD
HETATM   16  C35 UNL     1     -17.904   3.446  -4.379  1.00  0.00     0.150 C
HETATM   17  C36 UNL     1     -17.027   2.912  -3.309  1.00  0.00     0.257 C
ENDROOT
BRANCH   1  18
HETATM   18  C9  UNL     1     -18.733   1.831  -2.140  1.00  0.00     0.237 C
BRANCH  18  19
HETATM   19  C8  UNL     1     -18.742   2.556  -0.845  1.00  0.00     0.028 C
BRANCH  19  20
HETATM   20  C7  UNL     1     -19.230   1.669   0.283  1.00  0.00     0.002 C
BRANCH  20  21
HETATM   21  C6  UNL     1     -18.262   1.526   1.404  1.00  0.00     0.000 C
BRANCH  21  22
HETATM   22  C5  UNL     1     -18.873   0.842   2.591  1.00  0.00     0.000 C
BRANCH  22  23
HETATM   23  C4  UNL     1     -17.833   0.839   3.684  1.00  0.00     0.000 C
BRANCH  23  24
HETATM   24  C3  UNL     1     -18.367   0.565   5.049  1.00  0.00    -0.000 C
BRANCH  24  25
HETATM   25  C2  UNL     1     -17.449  -0.300   5.868  1.00  0.00    -0.005 C
HETATM   26  C1  UNL     1     -16.026  -0.250   5.313  1.00  0.00     0.005 C
ENDBRANCH  24  25
ENDBRANCH  23  24
ENDBRANCH  22  23
ENDBRANCH  21  22
ENDBRANCH  20  21
ENDBRANCH  19  20
ENDBRANCH  18  19
ENDBRANCH   1  18
BRANCH   1  27
HETATM   27  C10 UNL     1     -16.419   1.285  -1.807  1.00  0.00     0.237 C
BRANCH  27  28
HETATM   28  C11 UNL     1     -15.970  -0.112  -1.802  1.00  0.00     0.028 C
BRANCH  28  29
HETATM   29  C12 UNL     1     -16.539  -0.808  -0.551  1.00  0.00     0.002 C
BRANCH  29  30
HETATM   30  C13 UNL     1     -17.656  -1.722  -0.911  1.00  0.00     0.009 C
BRANCH  30  31
HETATM   31  C14 UNL     1     -18.693  -1.939   0.150  1.00  0.00     0.103 C
BRANCH  31  32
HETATM   32  C15 UNL     1     -19.030  -3.334   0.393  1.00  0.00     0.219 C
HETATM   33  O1  UNL     1     -19.967  -3.845  -0.275  1.00  0.00    -0.273 OA
HETATM   34  N2  UNL     1     -18.378  -4.177   1.341  1.00  0.00    -0.350 N
HETATM   35  C16 UNL     1     -17.311  -3.601   2.107  1.00  0.00     0.131 C
HETATM   36  C23 UNL     1     -18.839  -5.539   1.456  1.00  0.00     0.153 C
HETATM   37  C17 UNL     1     -17.700  -2.899   3.359  1.00  0.00     0.064 C
HETATM   38  C18 UNL     1     -18.933  -3.343   4.027  1.00  0.00     0.057 C
HETATM   39  N3  UNL     1     -18.931  -4.352   4.972  1.00  0.00    -0.402 N
HETATM   40  C19 UNL     1     -17.782  -5.058   5.346  1.00  0.00     0.120 C
ATOM     41  H3  UNL     1     -19.814  -4.595   5.421  1.00  0.00     0.158 HD
HETATM   42  C20 UNL     1     -17.920  -6.576   5.188  1.00  0.00     0.047 C
HETATM   43  C21 UNL     1     -19.092  -6.960   4.353  1.00  0.00     0.234 C
HETATM   44  N4  UNL     1     -18.779  -7.425   3.026  1.00  0.00    -0.074 N
HETATM   45  C22 UNL     1     -18.009  -6.471   2.247  1.00  0.00     0.252 C
ATOM     46  H42 UNL     1     -18.307  -8.328   3.062  1.00  0.00     0.277 HD
ATOM     47  H41 UNL     1     -19.627  -7.698   2.529  1.00  0.00     0.277 HD
ENDBRANCH  31  32
ENDBRANCH  30  31
ENDBRANCH  29  30
ENDBRANCH  28  29
ENDBRANCH  27  28
ENDBRANCH   1  27
BRANCH  10  48
HETATM   48  C32 UNL     1     -17.150   4.824  -8.776  1.00  0.00     0.023 C
HETATM   49  C33 UNL     1     -16.283   4.749  -9.969  1.00  0.00     0.007 C
ENDBRANCH  10  48
BRANCH   9  50
HETATM   50  O2  UNL     1     -15.594   2.395  -6.658  1.00  0.00    -0.349 OA
ATOM     51  H2  UNL     1     -15.769   2.445  -5.726  1.00  0.00     0.219 HD
ENDBRANCH   9  50
TORSDOF 16
ENDMDL