MODEL 1
REMARK VINA RESULT: -7.349294773      0.000      0.000
REMARK  15 active torsions:
REMARK  status: ('A' for Active; 'I' for Inactive)
REMARK    1  A    between atoms: C2_2  and  C3_3
REMARK    2  A    between atoms: C3_3  and  C4_4
REMARK    3  A    between atoms: C4_4  and  C5_5
REMARK    4  A    between atoms: C5_5  and  C6_6
REMARK    5  A    between atoms: C6_6  and  C7_7
REMARK    6  A    between atoms: C7_7  and  N1_8
REMARK    7  A    between atoms: C9_11  and  C10_12
REMARK    8  A    between atoms: C10_12  and  C11_13
REMARK    9  A    between atoms: C11_13  and  C12_14
REMARK   10  A    between atoms: C12_14  and  C13_15
REMARK   11  A    between atoms: C17_21  and  C18_22
REMARK   12  A    between atoms: C18_22  and  C19_23
REMARK   13  A    between atoms: C23_30  and  C24_31
REMARK   14  A    between atoms: C31_44  and  C32_45
REMARK   15  A    between atoms: C32_45  and  C33_46
ROOT
HETATM    1  N1  UNL     1     -18.393  -1.763   1.540  1.00  0.00    -0.337 N
HETATM    2  C8  UNL     1     -18.036  -3.018   0.993  1.00  0.00     0.243 C
HETATM    3  O1  UNL     1     -18.301  -3.226  -0.249  1.00  0.00    -0.271 OA
HETATM    4  C9  UNL     1     -17.375  -4.158   1.705  1.00  0.00     0.179 C
HETATM    5  N2  UNL     1     -18.354  -5.075   2.270  1.00  0.00    -0.341 N
HETATM    6  C15 UNL     1     -19.260  -5.653   1.250  1.00  0.00     0.153 C
HETATM    7  C16 UNL     1     -18.496  -5.416   3.629  1.00  0.00     0.243 C
HETATM    8  O2  UNL     1     -19.698  -5.247   4.072  1.00  0.00    -0.271 OA
HETATM    9  C17 UNL     1     -17.520  -5.923   4.598  1.00  0.00     0.177 C
HETATM   10  N3  UNL     1     -16.563  -4.982   5.097  1.00  0.00    -0.346 N
ATOM     11  H3  UNL     1     -15.784  -4.764   4.475  1.00  0.00     0.163 HD
HETATM   12  C22 UNL     1     -16.565  -4.317   6.344  1.00  0.00     0.241 C
HETATM   13  O3  UNL     1     -15.455  -3.731   6.620  1.00  0.00    -0.271 OA
HETATM   14  C23 UNL     1     -17.694  -4.253   7.305  1.00  0.00     0.180 C
HETATM   15  N4  UNL     1     -18.658  -3.227   7.028  1.00  0.00    -0.346 N
ATOM     16  H4  UNL     1     -19.630  -3.536   7.069  1.00  0.00     0.163 HD
HETATM   17  C27 UNL     1     -18.492  -1.886   6.712  1.00  0.00     0.240 C
HETATM   18  O4  UNL     1     -19.132  -1.020   7.414  1.00  0.00    -0.271 OA
HETATM   19  C28 UNL     1     -17.671  -1.240   5.664  1.00  0.00     0.172 C
HETATM   20  C29 UNL     1     -16.740  -0.190   6.297  1.00  0.00     0.042 C
HETATM   21  N5  UNL     1     -18.516  -0.525   4.701  1.00  0.00    -0.346 N
ATOM     22  H5  UNL     1     -19.452  -0.252   5.002  1.00  0.00     0.163 HD
HETATM   23  C30 UNL     1     -18.124  -0.186   3.383  1.00  0.00     0.241 C
HETATM   24  O5  UNL     1     -18.419   1.017   3.053  1.00  0.00    -0.271 OA
HETATM   25  C31 UNL     1     -17.443  -1.063   2.421  1.00  0.00     0.179 C
ENDROOT
BRANCH   1  26
HETATM   26  C7  UNL     1     -19.676  -1.196   1.216  1.00  0.00     0.127 C
BRANCH  26  27
HETATM   27  C6  UNL     1     -19.975  -1.126  -0.266  1.00  0.00     0.020 C
BRANCH  27  28
HETATM   28  C5  UNL     1     -20.083   0.385  -0.548  1.00  0.00     0.002 C
BRANCH  28  29
HETATM   29  C4  UNL     1     -19.648   0.692  -1.954  1.00  0.00     0.000 C
BRANCH  29  30
HETATM   30  C3  UNL     1     -18.999  -0.545  -2.517  1.00  0.00    -0.000 C
BRANCH  30  31
HETATM   31  C2  UNL     1     -18.107  -0.258  -3.684  1.00  0.00    -0.005 C
HETATM   32  C1  UNL     1     -18.480  -1.008  -4.932  1.00  0.00     0.005 C
ENDBRANCH  30  31
ENDBRANCH  29  30
ENDBRANCH  28  29
ENDBRANCH  27  28
ENDBRANCH  26  27
ENDBRANCH   1  26
BRANCH  25  33
HETATM   33  C32 UNL     1     -16.390  -0.365   1.616  1.00  0.00     0.039 C
BRANCH  33  34
HETATM   34  C33 UNL     1     -16.814   0.159   0.303  1.00  0.00    -0.020 C
HETATM   35  C34 UNL     1     -15.756  -0.254  -0.733  1.00  0.00     0.009 C
HETATM   36  C35 UNL     1     -16.754   1.695   0.283  1.00  0.00     0.009 C
ENDBRANCH  33  34
ENDBRANCH  25  33
BRANCH   4  37
HETATM   37  C10 UNL     1     -16.547  -4.915   0.688  1.00  0.00     0.035 C
BRANCH  37  38
HETATM   38  C11 UNL     1     -15.687  -5.977   1.332  1.00  0.00     0.002 C
BRANCH  38  39
HETATM   39  C12 UNL     1     -14.490  -5.428   2.060  1.00  0.00    -0.000 C
BRANCH  39  40
HETATM   40  C13 UNL     1     -13.917  -6.453   3.004  1.00  0.00    -0.005 C
HETATM   41  C14 UNL     1     -12.404  -6.296   2.975  1.00  0.00     0.005 C
ENDBRANCH  39  40
ENDBRANCH  38  39
ENDBRANCH  37  38
ENDBRANCH   4  37
BRANCH   9  42
HETATM   42  C18 UNL     1     -16.804  -7.189   4.097  1.00  0.00     0.038 C
BRANCH  42  43
HETATM   43  C19 UNL     1     -17.726  -8.334   3.893  1.00  0.00    -0.020 C
HETATM   44  C20 UNL     1     -17.455  -8.946   2.532  1.00  0.00     0.009 C
HETATM   45  C21 UNL     1     -17.326  -9.391   4.923  1.00  0.00     0.009 C
ENDBRANCH  42  43
ENDBRANCH   9  42
BRANCH  14  46
HETATM   46  C24 UNL     1     -17.210  -4.265   8.739  1.00  0.00     0.009 C
HETATM   47  C25 UNL     1     -16.901  -5.602   9.308  1.00  0.00     0.012 C
HETATM   48  C26 UNL     1     -16.018  -3.369   8.942  1.00  0.00     0.012 C
ENDBRANCH  14  46
TORSDOF 15
ENDMDL