MODEL 5
REMARK VINA RESULT: -8.085155277      1.711      3.632
REMARK  18 active torsions:
REMARK  status: ('A' for Active; 'I' for Inactive)
REMARK    1  A    between atoms: C2_2  and  C3_3
REMARK    2  A    between atoms: C3_3  and  C4_4
REMARK    3  A    between atoms: C4_4  and  C5_5
REMARK    4  A    between atoms: C5_5  and  C6_6
REMARK    5  A    between atoms: C5_5  and  N4_40
REMARK    6  A    between atoms: C6_6  and  C7_7
REMARK    7  A    between atoms: C7_7  and  N1_8
REMARK    8  A    between atoms: N1_8  and  C8_10
REMARK    9  A    between atoms: C8_10  and  N2_12
REMARK   10  A    between atoms: C12_16  and  C13_17
REMARK   11  A    between atoms: C13_17  and  C14_18
REMARK   12  A    between atoms: C14_18  and  N3_19
REMARK   13  A    between atoms: C14_18  and  C27_36
REMARK       I    between atoms: N3_19  and  C15_21
REMARK   14  A    between atoms: C15_21  and  C16_23
REMARK   15  A    between atoms: C23_30  and  O2_31
REMARK   16  A    between atoms: N4_40  and  C30_42
REMARK   17  A    between atoms: C30_42  and  C31_43
REMARK   18  A    between atoms: C31_43  and  N5_44
ROOT
HETATM    1  N2  UNL     1     -17.636   0.037   0.800  1.00  0.00    -0.358 N
HETATM    2  C9  UNL     1     -16.412  -0.261   0.081  1.00  0.00     0.125 C
HETATM    3  C10 UNL     1     -16.715  -0.504  -1.381  1.00  0.00     0.020 C
HETATM    4  C11 UNL     1     -18.099  -1.090  -1.562  1.00  0.00     0.008 C
HETATM    5  C12 UNL     1     -19.181  -0.122  -1.122  1.00  0.00     0.006 C
HETATM    6  C29 UNL     1     -18.672   0.692   0.096  1.00  0.00     0.130 C
ENDROOT
BRANCH   5   7
HETATM    7  C13 UNL     1     -19.527   0.872  -2.159  1.00  0.00     0.039 C
BRANCH   7   8
HETATM    8  C14 UNL     1     -18.426   1.465  -2.977  1.00  0.00     0.154 C
BRANCH   8   9
HETATM    9  N3  UNL     1     -18.499   2.927  -2.660  1.00  0.00    -0.349 N
HETATM   10  C15 UNL     1     -17.478   3.583  -1.940  1.00  0.00     0.227 C
HETATM   11  O1  UNL     1     -16.509   2.892  -1.577  1.00  0.00    -0.273 OA
ATOM     12  H3  UNL     1     -19.309   3.462  -2.973  1.00  0.00     0.163 HD
BRANCH  10  13
HETATM   13  C16 UNL     1     -17.559   5.001  -1.637  1.00  0.00     0.042 C
HETATM   14  C17 UNL     1     -17.031   5.231  -0.188  1.00  0.00     0.026 C
HETATM   15  C18 UNL     1     -19.023   5.474  -1.532  1.00  0.00     0.019 C
HETATM   16  C19 UNL     1     -19.606   5.778  -2.892  1.00  0.00     0.002 C
HETATM   17  C20 UNL     1     -18.829   6.878  -3.590  1.00  0.00     0.012 C
HETATM   18  C21 UNL     1     -17.428   6.365  -3.786  1.00  0.00    -0.013 C
HETATM   19  C22 UNL     1     -17.292   5.417  -4.918  1.00  0.00     0.018 C
HETATM   20  C23 UNL     1     -16.467   7.535  -4.105  1.00  0.00     0.126 C
HETATM   21  C26 UNL     1     -16.862   5.966  -2.476  1.00  0.00     0.013 C
HETATM   22  C24 UNL     1     -15.127   6.997  -3.647  1.00  0.00     0.033 C
HETATM   23  C25 UNL     1     -15.419   5.759  -2.792  1.00  0.00     0.009 C
BRANCH  20  24
HETATM   24  O2  UNL     1     -16.831   8.564  -3.245  1.00  0.00    -0.395 OA
ATOM     25  H2  UNL     1     -16.373   9.335  -3.560  1.00  0.00     0.210 HD
ENDBRANCH  20  24
ENDBRANCH  10  13
ENDBRANCH   8   9
BRANCH   8  26
HETATM   26  C27 UNL     1     -18.553   1.304  -4.424  1.00  0.00     0.145 C
HETATM   27  C28 UNL     1     -18.265   0.062  -5.146  1.00  0.00     0.093 C
HETATM   28  O3  UNL     1     -18.924   2.256  -5.147  1.00  0.00    -0.296 OA
ENDBRANCH   8  26
ENDBRANCH   7   8
ENDBRANCH   5   7
BRANCH   1  29
HETATM   29  C8  UNL     1     -17.700  -0.337   2.195  1.00  0.00     0.173 C
HETATM   30  S1  UNL     1     -18.491   0.772   3.121  1.00  0.00    -0.041 SA
BRANCH  29  31
HETATM   31  N1  UNL     1     -17.192  -1.507   2.675  1.00  0.00    -0.347 N
ATOM     32  H1  UNL     1     -16.379  -1.785   2.124  1.00  0.00     0.167 HD
BRANCH  31  33
HETATM   33  C7  UNL     1     -17.429  -2.438   3.670  1.00  0.00     0.065 C
BRANCH  33  34
HETATM   34  C6  UNL     1     -18.754  -2.894   4.109  1.00  0.00     0.069 C
BRANCH  34  35
HETATM   35  C5  UNL     1     -18.914  -3.814   5.239  1.00  0.00     0.081 C
BRANCH  35  36
HETATM   36  C4  UNL     1     -17.986  -3.445   6.401  1.00  0.00     0.025 C
BRANCH  36  37
HETATM   37  C3  UNL     1     -18.494  -2.418   7.327  1.00  0.00     0.002 C
BRANCH  37  38
HETATM   38  C2  UNL     1     -17.617  -1.149   7.254  1.00  0.00    -0.004 C
HETATM   39  C1  UNL     1     -18.462   0.030   6.831  1.00  0.00     0.005 C
ENDBRANCH  37  38
ENDBRANCH  36  37
ENDBRANCH  35  36
BRANCH  35  40
HETATM   40  N4  UNL     1     -18.954  -5.213   4.991  1.00  0.00    -0.412 N
ATOM     41  H4  UNL     1     -18.736  -5.872   5.738  1.00  0.00     0.153 HD
BRANCH  40  42
HETATM   42  C30 UNL     1     -19.301  -5.689   3.697  1.00  0.00     0.159 C
BRANCH  42  43
HETATM   43  C31 UNL     1     -18.021  -6.241   3.043  1.00  0.00     0.082 C
BRANCH  43  44
HETATM   44  N5  UNL     1     -17.873  -6.005   1.682  1.00  0.00    -0.372 N
HETATM   45  C32 UNL     1     -16.648  -5.722   1.072  1.00  0.00     0.063 C
HETATM   46  C33 UNL     1     -16.736  -4.334   0.460  1.00  0.00     0.046 C
HETATM   47  C34 UNL     1     -18.202  -4.112   0.300  1.00  0.00     0.025 C
HETATM   48  C35 UNL     1     -18.896  -5.177   1.075  1.00  0.00     0.127 C
ENDBRANCH  43  44
ENDBRANCH  42  43
ENDBRANCH  40  42
ENDBRANCH  35  40
ENDBRANCH  34  35
ENDBRANCH  33  34
ENDBRANCH  31  33
ENDBRANCH  29  31
ENDBRANCH   1  29
TORSDOF 18
ENDMDL