MODEL 2
REMARK VINA RESULT: -7.794825134      1.140      2.329
REMARK  18 active torsions:
REMARK  status: ('A' for Active; 'I' for Inactive)
REMARK    1  A    between atoms: C2_2  and  N1_3
REMARK    2  A    between atoms: N1_3  and  C3_5
REMARK    3  A    between atoms: N1_3  and  C16_28
REMARK    4  A    between atoms: C3_5  and  C4_6
REMARK    5  A    between atoms: C4_6  and  C5_7
REMARK    6  A    between atoms: C5_7  and  C6_8
REMARK    7  A    between atoms: C6_8  and  C8_10
REMARK       I    between atoms: C8_10  and  N2_12
REMARK    8  A    between atoms: N2_12  and  C9_14
REMARK    9  A    between atoms: C9_14  and  C10_15
REMARK   10  A    between atoms: C9_14  and  C14_23
REMARK   11  A    between atoms: C10_15  and  C11_16
REMARK   12  A    between atoms: C11_16  and  C12_17
REMARK   13  A    between atoms: C12_17  and  C13_18
REMARK   14  A    between atoms: C13_18  and  N3_19
REMARK       I    between atoms: C14_23  and  N4_25
REMARK   15  A    between atoms: C16_28  and  C17_29
REMARK   16  A    between atoms: C21_33  and  C22_34
REMARK   17  A    between atoms: C23_35  and  C24_36
REMARK   18  A    between atoms: C29_41  and  O4_42
ROOT
HETATM    1  N1  UNL     1     -18.744  -7.086   3.340  1.00  0.00     0.037 N
HETATM    2  O1  UNL     1     -20.042  -7.449   2.984  1.00  0.00    -0.060 OA
ENDROOT
BRANCH   1   3
HETATM    3  C2  UNL     1     -18.070  -8.375   3.383  1.00  0.00     0.313 C
HETATM    4  C1  UNL     1     -16.777  -8.245   2.608  1.00  0.00     0.044 C
ENDBRANCH   1   3
BRANCH   1   5
HETATM    5  C3  UNL     1     -18.284  -6.256   2.282  1.00  0.00     0.318 C
BRANCH   5   6
HETATM    6  C4  UNL     1     -19.256  -5.441   1.527  1.00  0.00     0.038 C
BRANCH   6   7
HETATM    7  C5  UNL     1     -18.776  -4.764   0.300  1.00  0.00     0.016 C
BRANCH   7   8
HETATM    8  C6  UNL     1     -17.436  -4.076   0.494  1.00  0.00     0.074 C
HETATM    9  C7  UNL     1     -16.362  -4.547  -0.427  1.00  0.00     0.020 C
BRANCH   8  10
HETATM   10  C8  UNL     1     -17.568  -2.609   0.438  1.00  0.00     0.222 C
HETATM   11  O2  UNL     1     -18.435  -2.095  -0.344  1.00  0.00    -0.273 OA
HETATM   12  N2  UNL     1     -16.784  -1.721   1.209  1.00  0.00    -0.347 N
ATOM     13  H2  UNL     1     -16.095  -2.133   1.840  1.00  0.00     0.163 HD
BRANCH  12  14
HETATM   14  C9  UNL     1     -16.872  -0.285   1.183  1.00  0.00     0.176 C
BRANCH  14  15
HETATM   15  C10 UNL     1     -18.116   0.301   1.642  1.00  0.00     0.035 C
BRANCH  15  16
HETATM   16  C11 UNL     1     -18.677  -0.014   2.980  1.00  0.00     0.004 C
BRANCH  16  17
HETATM   17  C12 UNL     1     -17.837   0.368   4.134  1.00  0.00     0.027 C
BRANCH  17  18
HETATM   18  C13 UNL     1     -18.688   1.247   5.085  1.00  0.00     0.229 C
BRANCH  18  19
HETATM   19  N3  UNL     1     -18.912   0.535   6.308  1.00  0.00    -0.079 N
ATOM     20  H33 UNL     1     -18.414  -0.355   6.335  1.00  0.00     0.274 HD
ATOM     21  H32 UNL     1     -18.456   0.978   7.104  1.00  0.00     0.274 HD
ATOM     22  H31 UNL     1     -19.916   0.421   6.448  1.00  0.00     0.274 HD
ENDBRANCH  18  19
ENDBRANCH  17  18
ENDBRANCH  16  17
ENDBRANCH  15  16
ENDBRANCH  14  15
BRANCH  14  23
HETATM   23  C14 UNL     1     -16.564   0.190  -0.219  1.00  0.00     0.240 C
HETATM   24  O3  UNL     1     -15.345   0.076  -0.577  1.00  0.00    -0.271 OA
HETATM   25  N4  UNL     1     -17.503   0.722  -1.103  1.00  0.00    -0.364 N
HETATM   26  C15 UNL     1     -17.053   1.144  -2.439  1.00  0.00     0.149 C
ATOM     27  H4  UNL     1     -18.481   0.816  -0.830  1.00  0.00     0.161 HD
ENDBRANCH  14  23
ENDBRANCH  12  14
ENDBRANCH   8  10
ENDBRANCH   7   8
ENDBRANCH   6   7
ENDBRANCH   5   6
ENDBRANCH   1   5
BRANCH   1  28
HETATM   28  C16 UNL     1     -18.936  -6.484   4.599  1.00  0.00     0.281 C
BRANCH  28  29
HETATM   29  C17 UNL     1     -17.956  -5.571   5.172  1.00  0.00    -0.025 C
HETATM   30  C18 UNL     1     -16.775  -6.014   5.638  1.00  0.00    -0.011 C
HETATM   31  C19 UNL     1     -15.956  -4.921   6.156  1.00  0.00     0.023 C
HETATM   32  C20 UNL     1     -14.965  -5.251   7.201  1.00  0.00     0.020 C
HETATM   33  C34 UNL     1     -16.959  -3.873   6.468  1.00  0.00    -0.029 C
HETATM   34  C21 UNL     1     -14.275  -6.542   6.924  1.00  0.00     0.070 C
HETATM   35  C30 UNL     1     -15.460  -5.242   8.612  1.00  0.00    -0.013 C
HETATM   36  C27 UNL     1     -13.161  -6.725   7.923  1.00  0.00     0.020 C
HETATM   37  C28 UNL     1     -12.980  -5.531   8.837  1.00  0.00     0.034 C
HETATM   38  C29 UNL     1     -14.248  -5.130   9.520  1.00  0.00     0.126 C
HETATM   39  C31 UNL     1     -16.212  -6.467   9.013  1.00  0.00     0.018 C
HETATM   40  C32 UNL     1     -16.355  -4.036   8.853  1.00  0.00     0.013 C
HETATM   41  C33 UNL     1     -17.501  -4.098   7.861  1.00  0.00     0.011 C
HETATM   42  C35 UNL     1     -16.375  -2.466   6.377  1.00  0.00     0.016 C
HETATM   43  C36 UNL     1     -17.958  -4.113   5.373  1.00  0.00     0.025 C
HETATM   44  C37 UNL     1     -17.433  -3.385   4.133  1.00  0.00     0.016 C
BRANCH  34  45
HETATM   45  C22 UNL     1     -13.673  -6.531   5.588  1.00  0.00    -0.101 C
HETATM   46  C23 UNL     1     -13.195  -6.511   4.477  1.00  0.00    -0.101 C
BRANCH  46  47
HETATM   47  C24 UNL     1     -12.642  -6.487   3.128  1.00  0.00     0.065 A
HETATM   48  C25 UNL     1     -11.294  -5.863   2.912  1.00  0.00     0.018 A
HETATM   49  C26 UNL     1     -11.485  -7.373   2.816  1.00  0.00     0.018 A
ENDBRANCH  46  47
ENDBRANCH  34  45
BRANCH  38  50
HETATM   50  O4  UNL     1     -14.105  -3.828  10.010  1.00  0.00    -0.395 OA
ATOM     51  H4  UNL     1     -13.634  -3.309   9.369  1.00  0.00     0.210 HD
ENDBRANCH  38  50
ENDBRANCH  28  29
ENDBRANCH   1  28
TORSDOF 18
ENDMDL