MODEL 5
REMARK VINA RESULT: -8.960698944      3.018      8.218
REMARK  16 active torsions:
REMARK  status: ('A' for Active; 'I' for Inactive)
REMARK    1  A    between atoms: C2_2  and  C3_3
REMARK    2  A    between atoms: C10_11  and  C11_12
REMARK    3  A    between atoms: C11_12  and  C12_13
REMARK    4  A    between atoms: C13_16  and  C14_17
REMARK    5  A    between atoms: C14_17  and  C15_18
REMARK    6  A    between atoms: C15_18  and  C16_19
REMARK    7  A    between atoms: C15_18  and  C23_26
REMARK    8  A    between atoms: C16_19  and  C17_20
REMARK    9  A    between atoms: C23_26  and  N3_27
REMARK   10  A    between atoms: C25_30  and  C26_31
REMARK   11  A    between atoms: C26_31  and  C27_32
REMARK   12  A    between atoms: C27_32  and  C28_33
REMARK   13  A    between atoms: C28_33  and  C29_34
REMARK   14  A    between atoms: C29_34  and  N4_35
REMARK       I    between atoms: N4_35  and  C30_37
REMARK   15  A    between atoms: C31_44  and  C32_45
REMARK   16  A    between atoms: C31_44  and  C34_47
ROOT
HETATM    1  C15 UNL     1      -7.555  16.371  -2.525  1.00  0.00     0.007 C
ENDROOT
BRANCH   1   2
HETATM    2  C14 UNL     1      -6.296  16.379  -3.295  1.00  0.00     0.036 C
BRANCH   2   3
HETATM    3  C13 UNL     1      -5.551  17.636  -3.484  1.00  0.00     0.113 C
HETATM    4  C3  UNL     1      -4.790  17.658  -4.816  1.00  0.00    -0.053 C
HETATM    5  C4  UNL     1      -3.345  18.045  -4.676  1.00  0.00     0.023 C
HETATM    6  C5  UNL     1      -3.283  19.548  -4.595  1.00  0.00     0.019 C
HETATM    7  C10 UNL     1      -2.564  17.352  -3.633  1.00  0.00     0.020 C
HETATM    8  C6  UNL     1      -3.770  20.170  -3.351  1.00  0.00     0.020 C
HETATM    9  C7  UNL     1      -4.871  21.180  -3.730  1.00  0.00     0.015 C
HETATM   10  C8  UNL     1      -4.293  19.322  -2.273  1.00  0.00     0.063 C
HETATM   11  N1  UNL     1      -4.569  17.960  -2.503  1.00  0.00    -0.384 N
HETATM   12  C9  UNL     1      -3.443  17.079  -2.426  1.00  0.00     0.128 C
BRANCH   4  13
HETATM   13  C2  UNL     1      -5.074  16.538  -5.704  1.00  0.00    -0.005 C
HETATM   14  C1  UNL     1      -4.942  16.428  -6.992  1.00  0.00     0.011 C
ENDBRANCH   4  13
BRANCH   7  15
HETATM   15  C11 UNL     1      -1.309  18.051  -3.268  1.00  0.00     0.106 C
BRANCH  15  16
HETATM   16  C12 UNL     1      -0.104  17.692  -4.033  1.00  0.00     0.231 C
HETATM   17  N2  UNL     1       0.483  16.401  -3.974  1.00  0.00    -0.062 NA
HETATM   18  O1  UNL     1       0.441  18.554  -4.773  1.00  0.00    -0.277 OA
ENDBRANCH  15  16
ENDBRANCH   7  15
ENDBRANCH   2   3
ENDBRANCH   1   2
BRANCH   1  19
HETATM   19  C16 UNL     1      -8.759  16.646  -3.406  1.00  0.00     0.011 C
BRANCH  19  20
HETATM   20  C17 UNL     1      -8.775  15.853  -4.684  1.00  0.00    -0.014 C
HETATM   21  C18 UNL     1     -10.120  15.156  -4.769  1.00  0.00     0.005 C
HETATM   22  C19 UNL     1     -10.812  15.412  -6.091  1.00  0.00     0.000 C
HETATM   23  C20 UNL     1      -9.855  14.971  -7.184  1.00  0.00     0.000 C
HETATM   24  C21 UNL     1      -8.719  15.965  -7.186  1.00  0.00     0.000 C
HETATM   25  C22 UNL     1      -8.614  16.734  -5.903  1.00  0.00     0.005 C
ENDBRANCH  19  20
ENDBRANCH   1  19
BRANCH   1  26
HETATM   26  C23 UNL     1      -7.825  15.134  -1.750  1.00  0.00     0.140 C
BRANCH  26  27
HETATM   27  N3  UNL     1      -8.665  15.285  -0.573  1.00  0.00    -0.284 N
HETATM   28  C24 UNL     1     -10.049  14.974  -0.596  1.00  0.00     0.248 C
HETATM   29  O2  UNL     1     -10.495  14.072  -1.307  1.00  0.00    -0.271 OA
HETATM   30  C25 UNL     1     -10.909  15.840   0.317  1.00  0.00     0.171 C
HETATM   31  N7  UNL     1     -10.422  15.680   1.632  1.00  0.00    -0.393 N
HETATM   32  C31 UNL     1      -9.012  15.741   1.852  1.00  0.00     0.108 C
ATOM     33  H7  UNL     1     -11.064  15.524   2.409  1.00  0.00     0.155 HD
HETATM   34  C36 UNL     1      -8.171  15.808   0.648  1.00  0.00     0.254 C
HETATM   35  O3  UNL     1      -6.999  16.340   0.693  1.00  0.00    -0.270 OA
BRANCH  30  36
HETATM   36  C26 UNL     1     -12.332  15.454   0.167  1.00  0.00     0.034 C
BRANCH  36  37
HETATM   37  C27 UNL     1     -12.820  14.331   1.005  1.00  0.00     0.004 C
BRANCH  37  38
HETATM   38  C28 UNL     1     -13.908  13.475   0.463  1.00  0.00     0.020 C
BRANCH  38  39
HETATM   39  C29 UNL     1     -14.601  12.714   1.620  1.00  0.00     0.122 C
BRANCH  39  40
HETATM   40  N4  UNL     1     -14.473  13.447   2.865  1.00  0.00    -0.365 N
HETATM   41  C30 UNL     1     -15.503  14.216   3.449  1.00  0.00     0.181 C
HETATM   42  N5  UNL     1     -15.234  15.054   4.389  1.00  0.00    -0.374 N
HETATM   43  N6  UNL     1     -16.872  14.109   3.035  1.00  0.00    -0.064 NA
ATOM     44  H52 UNL     1     -14.260  15.131   4.684  1.00  0.00     0.158 HD
ATOM     45  H51 UNL     1     -15.978  15.610   4.812  1.00  0.00     0.158 HD
ATOM     46  H4  UNL     1     -13.577  13.403   3.351  1.00  0.00     0.162 HD
ENDBRANCH  39  40
ENDBRANCH  38  39
ENDBRANCH  37  38
ENDBRANCH  36  37
ENDBRANCH  30  36
BRANCH  32  47
HETATM   47  C32 UNL     1      -8.670  14.508   2.678  1.00  0.00     0.036 C
HETATM   48  C33 UNL     1      -9.811  13.698   3.143  1.00  0.00     0.008 C
ENDBRANCH  32  47
BRANCH  32  49
HETATM   49  C34 UNL     1      -8.679  16.954   2.710  1.00  0.00     0.036 C
HETATM   50  C35 UNL     1      -8.257  16.589   4.096  1.00  0.00     0.008 C
ENDBRANCH  32  49
ENDBRANCH  26  27
ENDBRANCH   1  26
TORSDOF 16
ENDMDL