MODEL 2
REMARK VINA RESULT: -9.095566346      2.063      4.405
REMARK  15 active torsions:
REMARK  status: ('A' for Active; 'I' for Inactive)
REMARK    1  A    between atoms: C2_2  and  C3_3
REMARK    2  A    between atoms: C3_3  and  C4_4
REMARK    3  A    between atoms: C4_4  and  N1_5
REMARK       I    between atoms: N1_5  and  C5_7
REMARK    4  A    between atoms: C5_7  and  C6_9
REMARK    5  A    between atoms: C6_9  and  C7_10
REMARK    6  A    between atoms: C7_10  and  C8_11
REMARK    7  A    between atoms: C8_11  and  C9_12
REMARK    8  A    between atoms: C9_12  and  C10_13
REMARK    9  A    between atoms: C10_13  and  C11_14
REMARK   10  A    between atoms: C11_14  and  C12_15
REMARK   11  A    between atoms: C12_15  and  N2_16
REMARK       I    between atoms: N2_16  and  C13_18
REMARK       I    between atoms: C13_18  and  N3_20
REMARK   12  A    between atoms: C16_23  and  N4_24
REMARK       I    between atoms: N4_24  and  C17_26
REMARK   13  A    between atoms: C17_26  and  C18_28
REMARK   14  A    between atoms: C21_31  and  C22_32
REMARK   15  A    between atoms: C22_32  and  N5_33
ROOT
HETATM    1  N2  UNL     1     -13.273   9.931   5.208  1.00  0.00    -0.343 N
ATOM      2  H2  UNL     1     -12.773   9.415   4.485  1.00  0.00     0.164 HD
HETATM    3  C13 UNL     1     -13.882  11.163   4.882  1.00  0.00     0.325 C
HETATM    4  O2  UNL     1     -14.528  11.834   5.745  1.00  0.00    -0.247 OA
HETATM    5  N3  UNL     1     -13.759  11.665   3.543  1.00  0.00    -0.270 N
HETATM    6  C14 UNL     1     -13.018  10.911   2.550  1.00  0.00     0.139 C
HETATM    7  C15 UNL     1     -12.470  11.846   1.483  1.00  0.00     0.046 C
HETATM    8  C16 UNL     1     -12.270  13.230   2.091  1.00  0.00     0.095 C
HETATM    9  C35 UNL     1     -13.587  13.880   2.356  1.00  0.00     0.128 C
HETATM   10  C36 UNL     1     -14.367  12.892   3.184  1.00  0.00     0.229 C
HETATM   11  O4  UNL     1     -15.548  13.123   3.571  1.00  0.00    -0.273 OA
ENDROOT
BRANCH   8  12
HETATM   12  N4  UNL     1     -11.393  13.982   1.273  1.00  0.00    -0.352 N
HETATM   13  C17 UNL     1     -10.067  14.226   1.724  1.00  0.00     0.252 C
HETATM   14  O3  UNL     1      -9.730  13.770   2.842  1.00  0.00    -0.268 OA
ATOM     15  H4  UNL     1     -11.709  14.344   0.373  1.00  0.00     0.163 HD
BRANCH  13  16
HETATM   16  C18 UNL     1      -9.148  14.979   0.888  1.00  0.00     0.032 A
HETATM   17  C19 UNL     1      -7.793  14.672   1.021  1.00  0.00     0.017 A
HETATM   18  C20 UNL     1      -6.870  15.347   0.269  1.00  0.00     0.011 A
HETATM   19  C21 UNL     1      -7.283  16.340  -0.628  1.00  0.00    -0.020 A
HETATM   20  C33 UNL     1      -8.596  16.649  -0.766  1.00  0.00     0.011 A
HETATM   21  C34 UNL     1      -9.512  15.963  -0.005  1.00  0.00     0.017 A
BRANCH  19  22
HETATM   22  C22 UNL     1      -6.149  16.989  -1.408  1.00  0.00     0.186 C
HETATM   23  C27 UNL     1      -4.997  16.042  -1.194  1.00  0.00     0.047 C
HETATM   24  C28 UNL     1      -3.697  16.693  -0.859  1.00  0.00     0.003 C
HETATM   25  C29 UNL     1      -3.730  17.571   0.353  1.00  0.00     0.000 C
HETATM   26  C30 UNL     1      -3.738  18.989  -0.130  1.00  0.00     0.000 C
HETATM   27  C31 UNL     1      -4.777  19.110  -1.224  1.00  0.00     0.003 C
HETATM   28  C32 UNL     1      -5.988  18.343  -0.875  1.00  0.00     0.047 C
BRANCH  22  29
HETATM   29  N5  UNL     1      -6.583  16.851  -2.761  1.00  0.00     0.106 N
HETATM   30  C23 UNL     1      -6.817  15.527  -3.249  1.00  0.00     0.301 C
HETATM   31  C24 UNL     1      -7.779  15.697  -4.439  1.00  0.00     0.262 C
HETATM   32  N6  UNL     1      -8.046  17.096  -4.713  1.00  0.00    -0.072 N
HETATM   33  C25 UNL     1      -6.858  17.886  -4.866  1.00  0.00     0.262 C
ATOM     34  H62 UNL     1      -8.653  17.195  -5.527  1.00  0.00     0.277 HD
ATOM     35  H61 UNL     1      -8.655  17.494  -3.998  1.00  0.00     0.277 HD
HETATM   36  C26 UNL     1      -5.857  17.572  -3.758  1.00  0.00     0.301 C
ENDBRANCH  22  29
ENDBRANCH  19  22
ENDBRANCH  13  16
ENDBRANCH   8  12
BRANCH   1  37
HETATM   37  C12 UNL     1     -13.344   9.394   6.527  1.00  0.00     0.124 C
BRANCH  37  38
HETATM   38  C11 UNL     1     -12.068   9.484   7.299  1.00  0.00     0.020 C
BRANCH  38  39
HETATM   39  C10 UNL     1     -12.127  10.446   8.442  1.00  0.00     0.002 C
BRANCH  39  40
HETATM   40  C9  UNL     1     -10.930  11.383   8.505  1.00  0.00     0.000 C
BRANCH  40  41
HETATM   41  C8  UNL     1     -11.310  12.770   8.070  1.00  0.00     0.000 C
BRANCH  41  42
HETATM   42  C7  UNL     1     -11.149  12.968   6.595  1.00  0.00     0.009 C
BRANCH  42  43
HETATM   43  C6  UNL     1     -11.830  14.201   6.107  1.00  0.00     0.103 C
BRANCH  43  44
HETATM   44  C5  UNL     1     -10.829  15.367   6.172  1.00  0.00     0.221 C
HETATM   45  N1  UNL     1      -9.919  15.479   5.129  1.00  0.00    -0.337 N
ATOM     46  H1  UNL     1     -10.022  14.747   4.426  1.00  0.00     0.168 HD
HETATM   47  O1  UNL     1     -10.902  16.134   7.149  1.00  0.00    -0.273 OA
BRANCH  45  48
HETATM   48  C4  UNL     1      -8.887  16.386   4.838  1.00  0.00     0.087 C
BRANCH  48  49
HETATM   49  C3  UNL     1      -7.841  16.728   5.801  1.00  0.00    -0.010 C
BRANCH  49  50
HETATM   50  C2  UNL     1      -7.327  15.761   6.779  1.00  0.00     0.024 C
HETATM   51  C1  UNL     1      -7.598  16.168   8.230  1.00  0.00     0.009 C
ENDBRANCH  49  50
ENDBRANCH  48  49
ENDBRANCH  45  48
ENDBRANCH  43  44
ENDBRANCH  42  43
ENDBRANCH  41  42
ENDBRANCH  40  41
ENDBRANCH  39  40
ENDBRANCH  38  39
ENDBRANCH  37  38
ENDBRANCH   1  37
TORSDOF 15
ENDMDL