MODEL 1
REMARK VINA RESULT: -9.167694597      0.000      0.000
REMARK  19 active torsions:
REMARK  status: ('A' for Active; 'I' for Inactive)
REMARK    1  A    between atoms: C2_2  and  C3_3
REMARK    2  A    between atoms: C3_3  and  C4_4
REMARK    3  A    between atoms: C4_4  and  C5_5
REMARK    4  A    between atoms: C5_5  and  C6_6
REMARK    5  A    between atoms: C6_6  and  C7_7
REMARK    6  A    between atoms: C7_7  and  O2_9
REMARK    7  A    between atoms: O2_9  and  C8_10
REMARK    8  A    between atoms: C8_10  and  C9_11
REMARK    9  A    between atoms: C9_11  and  C10_12
REMARK   10  A    between atoms: C10_12  and  C11_13
REMARK   11  A    between atoms: N1_15  and  C13_16
REMARK   12  A    between atoms: C13_16  and  C14_17
REMARK   13  A    between atoms: N2_20  and  C17_21
REMARK   14  A    between atoms: C20_29  and  N5_30
REMARK       I    between atoms: N5_30  and  C21_32
REMARK   15  A    between atoms: C21_32  and  C22_34
REMARK   16  A    between atoms: C22_34  and  C23_35
REMARK   17  A    between atoms: C22_34  and  N6_41
REMARK   18  A    between atoms: C23_35  and  C24_36
REMARK       I    between atoms: N6_41  and  C29_43
REMARK       I    between atoms: C29_43  and  N7_45
REMARK   19  A    between atoms: N7_45  and  C30_47
ROOT
HETATM    1  C11 UNL     1     -11.000  14.294   0.063  1.00  0.00     0.004 A
HETATM    2  C12 UNL     1     -11.679  13.165  -0.318  1.00  0.00     0.121 A
HETATM    3  N1  UNL     1     -11.869  12.399   0.767  1.00  0.00    -0.301 N
HETATM    4  N4  UNL     1     -11.341  13.000   1.799  1.00  0.00    -0.283 N
ATOM      5  H4  UNL     1     -11.346  12.632   2.750  1.00  0.00     0.189 HD
HETATM    6  C20 UNL     1     -10.795  14.160   1.438  1.00  0.00     0.130 A
ENDROOT
BRANCH   6   7
HETATM    7  N5  UNL     1     -10.176  15.035   2.148  1.00  0.00    -0.310 N
HETATM    8  C21 UNL     1      -8.938  14.892   2.783  1.00  0.00     0.246 C
HETATM    9  O3  UNL     1      -8.558  13.754   3.212  1.00  0.00    -0.271 OA
ATOM     10  H5  UNL     1     -10.641  15.936   2.260  1.00  0.00     0.170 HD
BRANCH   8  11
HETATM   11  C22 UNL     1      -8.013  16.045   2.989  1.00  0.00     0.179 C
BRANCH  11  12
HETATM   12  C23 UNL     1      -8.377  16.848   4.203  1.00  0.00     0.039 C
BRANCH  12  13
HETATM   13  C24 UNL     1      -8.403  16.091   5.478  1.00  0.00    -0.012 C
HETATM   14  C25 UNL     1      -7.691  16.879   6.593  1.00  0.00     0.005 C
HETATM   15  C26 UNL     1      -8.027  16.008   7.786  1.00  0.00     0.000 C
HETATM   16  C27 UNL     1      -9.493  15.697   7.566  1.00  0.00     0.000 C
HETATM   17  C28 UNL     1      -9.717  15.780   6.072  1.00  0.00     0.005 C
ENDBRANCH  12  13
ENDBRANCH  11  12
BRANCH  11  18
HETATM   18  N6  UNL     1      -7.759  16.790   1.802  1.00  0.00    -0.330 N
HETATM   19  C29 UNL     1      -7.125  16.234   0.643  1.00  0.00     0.322 C
HETATM   20  O4  UNL     1      -6.783  15.026   0.713  1.00  0.00    -0.247 OA
HETATM   21  N7  UNL     1      -6.866  16.942  -0.545  1.00  0.00    -0.295 N
ATOM     22  H7  UNL     1      -7.625  17.106  -1.207  1.00  0.00     0.172 HD
ATOM     23  H6  UNL     1      -8.043  17.769   1.775  1.00  0.00     0.165 HD
BRANCH  21  24
HETATM   24  C30 UNL     1      -5.679  17.388  -0.811  1.00  0.00     0.108 A
HETATM   25  C31 UNL     1      -5.372  18.738  -0.605  1.00  0.00     0.049 A
HETATM   26  C32 UNL     1      -4.084  19.178  -0.903  1.00  0.00     0.005 A
HETATM   27  C33 UNL     1      -3.138  18.302  -1.389  1.00  0.00     0.017 A
HETATM   28  C34 UNL     1      -3.463  16.968  -1.586  1.00  0.00     0.089 A
HETATM   29  N8  UNL     1      -4.707  16.604  -1.284  1.00  0.00    -0.352 N
ATOM     30  H8  UNL     1      -4.943  15.622  -1.430  1.00  0.00     0.166 HD
ENDBRANCH  21  24
ENDBRANCH  11  18
ENDBRANCH   8  11
ENDBRANCH   6   7
BRANCH   1  31
HETATM   31  C10 UNL     1     -10.560  15.406  -0.805  1.00  0.00     0.046 C
BRANCH  31  32
HETATM   32  C9  UNL     1      -9.785  14.943  -1.999  1.00  0.00     0.031 C
BRANCH  32  33
HETATM   33  C8  UNL     1      -9.811  15.946  -3.110  1.00  0.00     0.179 C
BRANCH  33  34
HETATM   34  O2  UNL     1      -8.675  16.805  -3.039  1.00  0.00    -0.321 OA
BRANCH  34  35
HETATM   35  C7  UNL     1      -7.572  16.510  -3.793  1.00  0.00     0.258 C
HETATM   36  O1  UNL     1      -6.761  15.624  -3.463  1.00  0.00    -0.265 OA
BRANCH  35  37
HETATM   37  C6  UNL     1      -7.328  17.283  -5.066  1.00  0.00     0.111 C
BRANCH  37  38
HETATM   38  C5  UNL     1      -7.027  16.294  -6.162  1.00  0.00     0.010 C
BRANCH  38  39
HETATM   39  C4  UNL     1      -7.933  16.497  -7.323  1.00  0.00     0.000 C
BRANCH  39  40
HETATM   40  C3  UNL     1      -9.369  16.460  -6.904  1.00  0.00    -0.000 C
BRANCH  40  41
HETATM   41  C2  UNL     1      -9.882  15.023  -6.822  1.00  0.00    -0.005 C
HETATM   42  C1  UNL     1      -9.919  14.441  -8.215  1.00  0.00     0.005 C
ENDBRANCH  40  41
ENDBRANCH  39  40
ENDBRANCH  38  39
ENDBRANCH  37  38
ENDBRANCH  35  37
ENDBRANCH  34  35
ENDBRANCH  33  34
ENDBRANCH  32  33
ENDBRANCH  31  32
ENDBRANCH   1  31
BRANCH   3  43
HETATM   43  C13 UNL     1     -12.548  11.117   0.690  1.00  0.00     0.154 C
BRANCH  43  44
HETATM   44  C14 UNL     1     -13.778  11.073   1.550  1.00  0.00     0.025 C
HETATM   45  C15 UNL     1     -13.388  11.121   3.028  1.00  0.00     0.028 C
HETATM   46  C16 UNL     1     -14.607  11.715   3.667  1.00  0.00     0.124 C
HETATM   47  N2  UNL     1     -15.086  12.648   2.689  1.00  0.00    -0.371 N
HETATM   48  C19 UNL     1     -14.640  12.297   1.359  1.00  0.00     0.130 C
BRANCH  47  49
HETATM   49  C17 UNL     1     -15.898  13.780   2.983  1.00  0.00     0.068 C
HETATM   50  C18 UNL     1     -17.292  13.895   2.450  1.00  0.00     0.088 C
HETATM   51  N3  UNL     1     -15.444  14.728   3.715  1.00  0.00    -0.389 N
ATOM     52  H32 UNL     1     -14.494  14.650   4.078  1.00  0.00     0.157 HD
ATOM     53  H31 UNL     1     -16.026  15.539   3.926  1.00  0.00     0.157 HD
ENDBRANCH  47  49
ENDBRANCH  43  44
ENDBRANCH   3  43
TORSDOF 19
ENDMDL