MODEL 2
REMARK VINA RESULT: -8.736927795      2.004     10.847
REMARK  17 active torsions:
REMARK  status: ('A' for Active; 'I' for Inactive)
REMARK    1  A    between atoms: C2_2  and  C3_3
REMARK    2  A    between atoms: C3_3  and  C4_4
REMARK    3  A    between atoms: C4_4  and  N1_5
REMARK    4  A    between atoms: C4_4  and  C28_39
REMARK       I    between atoms: N1_5  and  C5_6
REMARK       I    between atoms: C5_6  and  N2_8
REMARK    5  A    between atoms: N2_8  and  C6_10
REMARK    6  A    between atoms: C6_10  and  C7_11
REMARK    7  A    between atoms: C7_11  and  C8_12
REMARK    8  A    between atoms: C8_12  and  C9_13
REMARK    9  A    between atoms: C9_13  and  C10_14
REMARK   10  A    between atoms: C10_14  and  C11_15
REMARK   11  A    between atoms: C10_14  and  C16_24
REMARK       I    between atoms: C11_15  and  N3_17
REMARK   12  A    between atoms: N3_17  and  C12_19
REMARK   13  A    between atoms: C12_19  and  C13_20
REMARK   14  A    between atoms: C13_20  and  N4_21
REMARK       I    between atoms: C16_24  and  N5_26
REMARK   15  A    between atoms: N5_26  and  C17_28
REMARK   16  A    between atoms: C28_39  and  O4_40
REMARK   17  A    between atoms: C28_39  and  N6_42
ROOT
HETATM    1  C10 UNL     1      -8.685  15.037   2.442  1.00  0.00     0.169 C
ENDROOT
BRANCH   1   2
HETATM    2  C9  UNL     1      -8.722  16.542   2.139  1.00  0.00     0.024 C
BRANCH   2   3
HETATM    3  C8  UNL     1      -7.861  16.716   0.851  1.00  0.00     0.003 C
BRANCH   3   4
HETATM    4  C7  UNL     1      -6.549  16.059   1.010  1.00  0.00     0.020 C
BRANCH   4   5
HETATM    5  C6  UNL     1      -5.382  16.519   0.161  1.00  0.00     0.125 C
BRANCH   5   6
HETATM    6  N2  UNL     1      -5.689  16.704  -1.204  1.00  0.00    -0.331 N
HETATM    7  C5  UNL     1      -5.565  17.748  -2.152  1.00  0.00     0.394 C
HETATM    8  N1  UNL     1      -5.804  17.500  -3.509  1.00  0.00    -0.352 NA
HETATM    9  O1  UNL     1      -5.208  18.866  -1.675  1.00  0.00    -0.230 OA
ATOM     10  H2  UNL     1      -6.108  15.870  -1.614  1.00  0.00     0.165 HD
BRANCH   8  11
HETATM   11  C4  UNL     1      -6.035  17.262  -4.828  1.00  0.00     0.140 C
BRANCH  11  12
HETATM   12  C3  UNL     1      -4.855  17.322  -5.711  1.00  0.00     0.077 C
BRANCH  12  13
HETATM   13  C2  UNL     1      -5.095  17.014  -7.164  1.00  0.00     0.003 C
HETATM   14  C1  UNL     1      -4.500  15.688  -7.568  1.00  0.00     0.005 C
ENDBRANCH  12  13
ENDBRANCH  11  12
BRANCH  11  15
HETATM   15  C28 UNL     1      -7.001  16.154  -5.005  1.00  0.00     0.176 C
BRANCH  15  16
HETATM   16  O4  UNL     1      -6.477  14.998  -4.613  1.00  0.00    -0.344 OA
ATOM     17  H4  UNL     1      -6.964  14.632  -3.884  1.00  0.00     0.219 HD
ENDBRANCH  15  16
BRANCH  15  18
HETATM   18  N6  UNL     1      -8.285  16.034  -5.469  1.00  0.00    -0.355 N
HETATM   19  C29 UNL     1      -8.567  16.852  -6.687  1.00  0.00     0.125 C
HETATM   20  C30 UNL     1      -8.573  15.877  -7.827  1.00  0.00     0.020 C
HETATM   21  C31 UNL     1      -9.804  15.060  -7.973  1.00  0.00     0.002 C
HETATM   22  C32 UNL     1     -10.261  14.329  -6.755  1.00  0.00     0.002 C
HETATM   23  C33 UNL     1     -10.591  15.222  -5.596  1.00  0.00     0.025 C
HETATM   24  C34 UNL     1      -9.325  15.372  -4.754  1.00  0.00     0.082 C
HETATM   25  C35 UNL     1      -9.718  16.194  -3.503  1.00  0.00     0.032 C
ENDBRANCH  15  18
ENDBRANCH  11  15
ENDBRANCH   8  11
ENDBRANCH   5   6
ENDBRANCH   4   5
ENDBRANCH   3   4
ENDBRANCH   2   3
ENDBRANCH   1   2
BRANCH   1  26
HETATM   26  C11 UNL     1      -8.813  14.906   3.927  1.00  0.00     0.231 C
HETATM   27  O2  UNL     1      -8.885  13.706   4.379  1.00  0.00    -0.273 OA
HETATM   28  N3  UNL     1      -8.853  15.927   4.875  1.00  0.00    -0.356 N
ATOM     29  H3  UNL     1      -8.818  16.903   4.577  1.00  0.00     0.162 HD
BRANCH  28  30
HETATM   30  C12 UNL     1      -8.945  15.602   6.280  1.00  0.00     0.166 C
BRANCH  30  31
HETATM   31  C13 UNL     1     -10.195  15.796   7.006  1.00  0.00     0.076 C
BRANCH  31  32
HETATM   32  N4  UNL     1     -11.149  14.790   7.077  1.00  0.00    -0.400 N
HETATM   33  C14 UNL     1     -11.004  13.583   7.740  1.00  0.00     0.148 C
HETATM   34  C15 UNL     1     -12.078  14.720   5.981  1.00  0.00     0.148 C
ENDBRANCH  31  32
ENDBRANCH  30  31
ENDBRANCH  28  30
ENDBRANCH   1  26
BRANCH   1  35
HETATM   35  C16 UNL     1      -9.839  14.317   1.895  1.00  0.00     0.231 C
HETATM   36  O3  UNL     1      -9.635  13.645   0.852  1.00  0.00    -0.273 OA
HETATM   37  N5  UNL     1     -11.118  14.330   2.476  1.00  0.00    -0.351 N
ATOM     38  H5  UNL     1     -11.259  14.918   3.297  1.00  0.00     0.163 HD
BRANCH  37  39
HETATM   39  C17 UNL     1     -12.236  13.578   1.995  1.00  0.00     0.034 C
HETATM   40  C18 UNL     1     -12.439  13.986   0.529  1.00  0.00     0.035 C
HETATM   41  C19 UNL     1     -13.434  13.100  -0.146  1.00  0.00    -0.011 C
HETATM   42  C20 UNL     1     -13.055  11.667  -0.032  1.00  0.00     0.009 C
HETATM   43  C25 UNL     1     -14.763  13.303   0.550  1.00  0.00     0.014 C
HETATM   44  C21 UNL     1     -12.974  11.282   1.420  1.00  0.00    -0.011 C
HETATM   45  C22 UNL     1     -14.327  11.485   2.090  1.00  0.00     0.014 C
HETATM   46  C27 UNL     1     -11.921  12.098   2.088  1.00  0.00     0.035 C
HETATM   47  C23 UNL     1     -14.622  12.965   2.016  1.00  0.00    -0.041 C
HETATM   48  C24 UNL     1     -15.966  13.231   2.662  1.00  0.00     0.015 C
HETATM   49  C26 UNL     1     -13.532  13.798   2.686  1.00  0.00     0.040 C
ENDBRANCH  37  39
ENDBRANCH   1  35
TORSDOF 17
ENDMDL