MODEL 1
REMARK VINA RESULT: -9.333564582      0.000      0.000
REMARK  15 active torsions:
REMARK  status: ('A' for Active; 'I' for Inactive)
REMARK    1  A    between atoms: C2_2  and  C3_3
REMARK    2  A    between atoms: C3_3  and  C4_4
REMARK    3  A    between atoms: C4_4  and  C5_5
REMARK    4  A    between atoms: C5_5  and  N1_6
REMARK    5  A    between atoms: C5_5  and  C20_23
REMARK       I    between atoms: N1_6  and  C6_7
REMARK    6  A    between atoms: C6_7  and  C7_9
REMARK    7  A    between atoms: N2_13  and  C11_14
REMARK    8  A    between atoms: C11_14  and  C12_15
REMARK    9  A    between atoms: C12_15  and  C13_16
REMARK   10  A    between atoms: C20_23  and  C21_25
REMARK   11  A    between atoms: C21_25  and  N3_26
REMARK       I    between atoms: N3_26  and  C22_28
REMARK   12  A    between atoms: C22_28  and  C23_30
REMARK   13  A    between atoms: C23_30  and  N4_31
REMARK   14  A    between atoms: C23_30  and  C35_47
REMARK       I    between atoms: N4_31  and  C24_33
REMARK       I    between atoms: C24_33  and  N5_35
REMARK   15  A    between atoms: N5_35  and  C25_37
ROOT
HETATM    1  C21 UNL     1      -7.259  16.186   2.111  1.00  0.00     0.149 C
ENDROOT
BRANCH   1   2
HETATM    2  C20 UNL     1      -7.233  15.566   0.802  1.00  0.00     0.223 C
HETATM    3  O2  UNL     1      -7.328  14.406   0.542  1.00  0.00    -0.284 OA
BRANCH   2   4
HETATM    4  C5  UNL     1      -7.076  16.505  -0.444  1.00  0.00     0.140 C
BRANCH   4   5
HETATM    5  C4  UNL     1      -7.951  17.704  -0.160  1.00  0.00     0.081 C
BRANCH   5   6
HETATM    6  C3  UNL     1      -9.336  17.573  -0.713  1.00  0.00     0.033 C
BRANCH   6   7
HETATM    7  C2  UNL     1     -10.234  17.001   0.337  1.00  0.00    -0.037 C
HETATM    8  C1  UNL     1     -10.868  15.887   0.111  1.00  0.00     0.007 C
ENDBRANCH   6   7
ENDBRANCH   5   6
ENDBRANCH   4   5
BRANCH   4   9
HETATM    9  N1  UNL     1      -6.052  16.522  -1.206  1.00  0.00    -0.369 NA
HETATM   10  C6  UNL     1      -4.864  16.540  -2.081  1.00  0.00     0.325 C
HETATM   11  O1  UNL     1      -3.824  16.036  -1.774  1.00  0.00    -0.255 OA
BRANCH  10  12
HETATM   12  C7  UNL     1      -4.993  17.230  -3.356  1.00  0.00     0.329 C
HETATM   13  C8  UNL     1      -5.460  18.672  -3.314  1.00  0.00     0.049 C
HETATM   14  C9  UNL     1      -5.372  18.949  -4.831  1.00  0.00     0.033 C
HETATM   15  C10 UNL     1      -5.269  17.595  -5.480  1.00  0.00     0.273 C
HETATM   16  N2  UNL     1      -5.886  16.748  -4.348  1.00  0.00     0.104 N
BRANCH  16  17
HETATM   17  C11 UNL     1      -7.220  17.226  -4.427  1.00  0.00     0.283 C
BRANCH  17  18
HETATM   18  C12 UNL     1      -8.203  16.065  -4.582  1.00  0.00    -0.010 A
HETATM   19  C18 UNL     1      -9.183  15.882  -3.400  1.00  0.00     0.012 A
HETATM   20  C19 UNL     1      -8.212  14.843  -3.812  1.00  0.00     0.012 A
BRANCH  18  21
HETATM   21  C13 UNL     1      -8.926  15.993  -5.937  1.00  0.00    -0.004 C
HETATM   22  C14 UNL     1      -9.690  14.696  -6.092  1.00  0.00     0.005 C
HETATM   23  C15 UNL     1     -10.020  14.712  -7.575  1.00  0.00     0.000 C
HETATM   24  C16 UNL     1      -8.950  15.593  -8.247  1.00  0.00     0.000 C
HETATM   25  C17 UNL     1      -7.955  15.908  -7.107  1.00  0.00     0.005 C
ENDBRANCH  18  21
ENDBRANCH  17  18
ENDBRANCH  16  17
ENDBRANCH  10  12
ENDBRANCH   4   9
ENDBRANCH   2   4
ENDBRANCH   1   2
BRANCH   1  26
HETATM   26  N3  UNL     1      -7.955  15.649   3.203  1.00  0.00    -0.331 N
HETATM   27  C22 UNL     1      -8.347  16.068   4.481  1.00  0.00     0.244 C
HETATM   28  O3  UNL     1      -7.994  17.166   4.969  1.00  0.00    -0.271 OA
ATOM     29  H3  UNL     1      -8.258  14.693   3.016  1.00  0.00     0.168 HD
BRANCH  27  30
HETATM   30  C23 UNL     1      -9.225  15.173   5.275  1.00  0.00     0.182 C
BRANCH  30  31
HETATM   31  N4  UNL     1     -10.396  14.647   4.820  1.00  0.00    -0.329 N
HETATM   32  C24 UNL     1     -11.033  13.947   3.760  1.00  0.00     0.317 C
HETATM   33  O4  UNL     1     -10.455  13.727   2.695  1.00  0.00    -0.247 OA
HETATM   34  N5  UNL     1     -12.379  13.501   4.048  1.00  0.00    -0.334 N
ATOM     35  H5  UNL     1     -12.706  13.786   4.972  1.00  0.00     0.165 HD
ATOM     36  H4  UNL     1     -11.105  14.831   5.530  1.00  0.00     0.165 HD
BRANCH  34  37
HETATM   37  C25 UNL     1     -13.338  12.757   3.326  1.00  0.00     0.035 C
HETATM   38  C26 UNL     1     -12.982  11.430   2.797  1.00  0.00     0.035 C
HETATM   39  C27 UNL     1     -14.087  10.913   1.897  1.00  0.00    -0.012 C
HETATM   40  C28 UNL     1     -14.434  11.836   0.767  1.00  0.00     0.009 C
HETATM   41  C32 UNL     1     -15.375  10.723   2.685  1.00  0.00     0.009 C
HETATM   42  C29 UNL     1     -14.851  13.184   1.359  1.00  0.00    -0.012 C
HETATM   43  C30 UNL     1     -16.097  13.013   2.223  1.00  0.00     0.009 C
HETATM   44  C34 UNL     1     -13.774  13.742   2.168  1.00  0.00     0.035 C
HETATM   45  C31 UNL     1     -15.748  12.051   3.313  1.00  0.00    -0.012 C
HETATM   46  C33 UNL     1     -14.615  12.583   4.153  1.00  0.00     0.035 C
ENDBRANCH  34  37
ENDBRANCH  30  31
BRANCH  30  47
HETATM   47  C35 UNL     1      -9.520  15.762   6.672  1.00  0.00     0.009 C
HETATM   48  C36 UNL     1      -8.246  15.836   7.463  1.00  0.00     0.012 C
HETATM   49  C37 UNL     1     -10.739  15.469   7.368  1.00  0.00     0.012 C
ENDBRANCH  30  47
ENDBRANCH  27  30
ENDBRANCH   1  26
TORSDOF 15
ENDMDL