MODEL 4
REMARK VINA RESULT: -8.477315499      1.793      3.798
REMARK  17 active torsions:
REMARK  status: ('A' for Active; 'I' for Inactive)
REMARK    1  A    between atoms: C2_2  and  C3_3
REMARK    2  A    between atoms: C3_3  and  C4_4
REMARK    3  A    between atoms: C4_4  and  C5_5
REMARK    4  A    between atoms: C5_5  and  C6_6
REMARK    5  A    between atoms: C5_5  and  C13_15
REMARK    6  A    between atoms: C6_6  and  C7_7
REMARK       I    between atoms: C7_7  and  N1_9
REMARK       I    between atoms: C13_15  and  N2_17
REMARK    7  A    between atoms: N2_17  and  C14_19
REMARK    8  A    between atoms: C14_19  and  O3_20
REMARK    9  A    between atoms: C14_19  and  C15_22
REMARK   10  A    between atoms: C15_22  and  N3_23
REMARK       I    between atoms: N3_23  and  C16_25
REMARK   11  A    between atoms: C16_25  and  C17_27
REMARK   12  A    between atoms: C17_27  and  C18_28
REMARK   13  A    between atoms: C17_27  and  N4_33
REMARK   14  A    between atoms: C18_28  and  C19_29
REMARK   15  A    between atoms: C19_29  and  C21_31
REMARK       I    between atoms: N4_33  and  C23_35
REMARK   16  A    between atoms: C23_35  and  C24_37
REMARK   17  A    between atoms: C31_44  and  O6_45
ROOT
HETATM    1  C15 UNL     1     -11.940  12.898   1.550  1.00  0.00     0.098 C
HETATM    2  C28 UNL     1     -12.946  13.963   1.605  1.00  0.00     0.040 C
HETATM    3  C29 UNL     1     -14.366  13.645   1.877  1.00  0.00     0.010 C
HETATM    4  C30 UNL     1     -14.819  12.247   1.784  1.00  0.00     0.018 C
HETATM    5  C31 UNL     1     -15.944  11.936   2.744  1.00  0.00     0.122 C
HETATM    6  C32 UNL     1     -15.311  11.345   3.984  1.00  0.00     0.032 C
HETATM    7  C33 UNL     1     -13.801  11.373   3.706  1.00  0.00     0.007 C
HETATM    8  C34 UNL     1     -13.761  11.257   2.197  1.00  0.00    -0.005 C
HETATM    9  C35 UNL     1     -12.450  11.475   1.569  1.00  0.00     0.044 C
ENDROOT
BRANCH   1  10
HETATM   10  C14 UNL     1     -11.013  13.078   0.406  1.00  0.00     0.147 C
BRANCH  10  11
HETATM   11  N2  UNL     1     -10.084  14.034   0.087  1.00  0.00    -0.309 N
HETATM   12  C13 UNL     1     -10.007  15.081  -0.824  1.00  0.00     0.228 C
HETATM   13  O2  UNL     1     -10.926  15.364  -1.609  1.00  0.00    -0.273 OA
ATOM     14  H2  UNL     1      -9.242  13.958   0.657  1.00  0.00     0.170 HD
BRANCH  12  15
HETATM   15  C5  UNL     1      -8.782  15.991  -0.953  1.00  0.00     0.087 C
BRANCH  15  16
HETATM   16  C4  UNL     1      -8.683  16.853   0.242  1.00  0.00     0.014 C
BRANCH  16  17
HETATM   17  C3  UNL     1      -7.594  16.672   1.218  1.00  0.00     0.000 C
BRANCH  17  18
HETATM   18  C2  UNL     1      -6.553  15.727   0.554  1.00  0.00    -0.005 C
HETATM   19  C1  UNL     1      -5.318  16.487   0.180  1.00  0.00     0.005 C
ENDBRANCH  17  18
ENDBRANCH  16  17
ENDBRANCH  15  16
BRANCH  15  20
HETATM   20  C6  UNL     1      -9.000  16.748  -2.217  1.00  0.00     0.117 C
BRANCH  20  21
HETATM   21  C7  UNL     1      -8.025  16.693  -3.274  1.00  0.00     0.220 C
HETATM   22  O1  UNL     1      -6.880  17.254  -3.129  1.00  0.00    -0.273 OA
HETATM   23  N1  UNL     1      -8.215  16.049  -4.521  1.00  0.00    -0.352 N
HETATM   24  C8  UNL     1      -7.196  15.997  -5.558  1.00  0.00     0.125 C
HETATM   25  C12 UNL     1      -9.465  15.402  -4.831  1.00  0.00     0.125 C
HETATM   26  C9  UNL     1      -7.673  16.835  -6.726  1.00  0.00     0.020 C
HETATM   27  C10 UNL     1      -9.120  16.568  -7.004  1.00  0.00     0.003 C
HETATM   28  C11 UNL     1      -9.542  15.255  -6.344  1.00  0.00     0.020 C
ENDBRANCH  20  21
ENDBRANCH  15  20
ENDBRANCH  12  15
ENDBRANCH  10  11
BRANCH  10  29
HETATM   29  O3  UNL     1     -11.117  12.108  -0.491  1.00  0.00    -0.347 OA
ATOM     30  H3  UNL     1     -11.738  11.429  -0.254  1.00  0.00     0.219 HD
ENDBRANCH  10  29
ENDBRANCH   1  10
BRANCH   1  31
HETATM   31  N3  UNL     1     -11.169  13.003   2.812  1.00  0.00    -0.342 N
HETATM   32  C16 UNL     1     -10.563  14.130   3.351  1.00  0.00     0.241 C
HETATM   33  O4  UNL     1     -10.599  15.246   2.827  1.00  0.00    -0.271 OA
ATOM     34  H3  UNL     1     -11.071  12.142   3.349  1.00  0.00     0.163 HD
BRANCH  32  35
HETATM   35  C17 UNL     1      -9.800  14.019   4.668  1.00  0.00     0.177 C
BRANCH  35  36
HETATM   36  C18 UNL     1      -9.698  15.420   5.143  1.00  0.00     0.039 C
BRANCH  36  37
HETATM   37  C19 UNL     1      -8.557  15.837   5.966  1.00  0.00    -0.017 C
HETATM   38  C20 UNL     1      -7.845  17.081   5.511  1.00  0.00     0.010 C
BRANCH  37  39
HETATM   39  C21 UNL     1      -8.802  15.817   7.456  1.00  0.00    -0.000 C
HETATM   40  C22 UNL     1      -7.535  16.065   8.243  1.00  0.00     0.005 C
ENDBRANCH  37  39
ENDBRANCH  36  37
ENDBRANCH  35  36
BRANCH  35  41
HETATM   41  N4  UNL     1     -10.528  13.117   5.496  1.00  0.00    -0.347 N
HETATM   42  C23 UNL     1     -11.646  13.526   6.293  1.00  0.00     0.222 C
HETATM   43  O5  UNL     1     -11.960  14.750   6.219  1.00  0.00    -0.273 OA
ATOM     44  H4  UNL     1     -10.241  12.138   5.523  1.00  0.00     0.163 HD
BRANCH  42  45
HETATM   45  C24 UNL     1     -12.437  12.665   7.167  1.00  0.00     0.078 C
HETATM   46  C25 UNL     1     -12.310  12.888   8.659  1.00  0.00     0.014 C
HETATM   47  C26 UNL     1     -11.212  11.847   8.681  1.00  0.00     0.002 C
HETATM   48  C27 UNL     1     -11.773  11.303   7.377  1.00  0.00     0.014 C
ENDBRANCH  42  45
ENDBRANCH  35  41
ENDBRANCH  32  35
ENDBRANCH   1  31
BRANCH   5  49
HETATM   49  O6  UNL     1     -16.579  13.132   3.151  1.00  0.00    -0.395 OA
ATOM     50  H6  UNL     1     -17.165  13.438   2.469  1.00  0.00     0.210 HD
ENDBRANCH   5  49
TORSDOF 17
ENDMDL