MODEL 3
REMARK VINA RESULT: -8.707179204      2.803     10.740
REMARK  16 active torsions:
REMARK  status: ('A' for Active; 'I' for Inactive)
REMARK    1  A    between atoms: C2_2  and  C3_3
REMARK    2  A    between atoms: C3_3  and  C5_5
REMARK    3  A    between atoms: C5_5  and  N1_6
REMARK    4  A    between atoms: C5_5  and  C20_28
REMARK       I    between atoms: N1_6  and  C6_8
REMARK    5  A    between atoms: C6_8  and  C7_10
REMARK    6  A    between atoms: C7_10  and  N2_12
REMARK       I    between atoms: N2_12  and  C9_14
REMARK    7  A    between atoms: C9_14  and  C10_16
REMARK    8  A    between atoms: C12_18  and  O3_19
REMARK       I    between atoms: C20_28  and  N3_30
REMARK    9  A    between atoms: N3_30  and  C21_32
REMARK   10  A    between atoms: C21_32  and  C22_33
REMARK   11  A    between atoms: C21_32  and  C27_38
REMARK   12  A    between atoms: C22_33  and  C23_34
REMARK   13  A    between atoms: C23_34  and  C24_35
REMARK       I    between atoms: C27_38  and  N4_40
REMARK   14  A    between atoms: N4_40  and  C28_41
REMARK   15  A    between atoms: N4_40  and  C32_45
REMARK   16  A    between atoms: C28_41  and  C29_42
ROOT
HETATM    1  C5  UNL     1      -9.727  15.483   5.437  1.00  0.00     0.180 C
ENDROOT
BRANCH   1   2
HETATM    2  C3  UNL     1      -8.416  15.948   6.067  1.00  0.00     0.013 C
HETATM    3  C4  UNL     1      -7.867  17.126   5.331  1.00  0.00     0.012 C
BRANCH   2   4
HETATM    4  C2  UNL     1      -8.427  16.048   7.545  1.00  0.00     0.002 C
HETATM    5  C1  UNL     1      -7.192  15.624   8.261  1.00  0.00     0.005 C
ENDBRANCH   2   4
ENDBRANCH   1   2
BRANCH   1   6
HETATM    6  N1  UNL     1     -10.340  14.423   6.205  1.00  0.00    -0.346 N
HETATM    7  C6  UNL     1     -11.711  14.243   6.374  1.00  0.00     0.240 C
HETATM    8  O1  UNL     1     -12.521  15.041   5.852  1.00  0.00    -0.271 OA
ATOM      9  H1  UNL     1      -9.720  13.753   6.659  1.00  0.00     0.163 HD
BRANCH   7  10
HETATM   10  C7  UNL     1     -12.228  13.114   7.164  1.00  0.00     0.172 C
HETATM   11  C8  UNL     1     -11.166  12.578   8.123  1.00  0.00     0.042 C
BRANCH  10  12
HETATM   12  N2  UNL     1     -12.706  12.026   6.328  1.00  0.00    -0.348 N
HETATM   13  C9  UNL     1     -13.843  11.290   6.698  1.00  0.00     0.222 C
HETATM   14  O2  UNL     1     -14.458  11.564   7.772  1.00  0.00    -0.273 OA
ATOM     15  H2  UNL     1     -12.212  11.796   5.465  1.00  0.00     0.163 HD
BRANCH  13  16
HETATM   16  C10 UNL     1     -14.371  10.184   5.871  1.00  0.00     0.080 C
HETATM   17  C11 UNL     1     -15.085  10.692   4.639  1.00  0.00     0.046 C
HETATM   18  C12 UNL     1     -15.758   9.477   4.017  1.00  0.00     0.123 C
HETATM   19  C13 UNL     1     -14.765   8.437   3.594  1.00  0.00     0.018 C
HETATM   20  C14 UNL     1     -15.118   7.124   4.257  1.00  0.00     0.007 C
HETATM   21  C18 UNL     1     -13.369   8.888   3.962  1.00  0.00    -0.007 C
HETATM   22  C15 UNL     1     -14.136   6.085   3.733  1.00  0.00     0.000 C
HETATM   23  C16 UNL     1     -12.761   6.472   4.195  1.00  0.00     0.000 C
HETATM   24  C17 UNL     1     -12.344   7.818   3.645  1.00  0.00     0.005 C
HETATM   25  C19 UNL     1     -13.236   9.288   5.401  1.00  0.00     0.019 C
BRANCH  18  26
HETATM   26  O3  UNL     1     -16.587   9.885   2.957  1.00  0.00    -0.395 OA
ATOM     27  H3  UNL     1     -17.013   9.128   2.574  1.00  0.00     0.210 HD
ENDBRANCH  18  26
ENDBRANCH  13  16
ENDBRANCH  10  12
ENDBRANCH   7  10
ENDBRANCH   1   6
BRANCH   1  28
HETATM   28  C20 UNL     1      -9.570  15.160   4.023  1.00  0.00     0.241 C
HETATM   29  O4  UNL     1      -8.850  14.157   3.733  1.00  0.00    -0.271 OA
HETATM   30  N3  UNL     1     -10.143  15.853   2.935  1.00  0.00    -0.346 N
ATOM     31  H3  UNL     1     -10.737  16.662   3.119  1.00  0.00     0.163 HD
BRANCH  30  32
HETATM   32  C21 UNL     1      -9.906  15.438   1.543  1.00  0.00     0.177 C
BRANCH  32  33
HETATM   33  C22 UNL     1     -11.261  15.448   0.829  1.00  0.00     0.035 C
BRANCH  33  34
HETATM   34  C23 UNL     1     -11.806  14.039   0.707  1.00  0.00     0.006 C
BRANCH  34  35
HETATM   35  C24 UNL     1     -12.884  13.864   1.767  1.00  0.00    -0.023 C
HETATM   36  C25 UNL     1     -12.433  12.859   2.803  1.00  0.00     0.009 C
HETATM   37  C26 UNL     1     -14.162  13.350   1.139  1.00  0.00     0.009 C
ENDBRANCH  34  35
ENDBRANCH  33  34
ENDBRANCH  32  33
BRANCH  32  38
HETATM   38  C27 UNL     1      -8.928  16.345   0.975  1.00  0.00     0.246 C
HETATM   39  O5  UNL     1      -8.307  17.166   1.756  1.00  0.00    -0.271 OA
HETATM   40  N4  UNL     1      -8.540  16.453  -0.416  1.00  0.00    -0.325 N
BRANCH  40  41
HETATM   41  C28 UNL     1      -7.636  17.503  -0.717  1.00  0.00     0.071 C
BRANCH  41  42
HETATM   42  C29 UNL     1      -6.196  17.303  -0.837  1.00  0.00     0.016 C
HETATM   43  C30 UNL     1      -5.541  16.078  -0.353  1.00  0.00     0.015 C
HETATM   44  C31 UNL     1      -5.867  17.393  -2.354  1.00  0.00     0.015 C
ENDBRANCH  41  42
ENDBRANCH  40  41
BRANCH  40  45
HETATM   45  C32 UNL     1      -9.167  15.558  -1.346  1.00  0.00     0.092 C
HETATM   46  C33 UNL     1      -9.558  16.244  -2.612  1.00  0.00     0.026 C
HETATM   47  C34 UNL     1      -9.270  15.274  -3.717  1.00  0.00     0.002 C
HETATM   48  C35 UNL     1      -8.015  14.553  -3.191  1.00  0.00     0.002 C
HETATM   49  C36 UNL     1      -8.447  14.322  -1.730  1.00  0.00     0.026 C
ENDBRANCH  40  45
ENDBRANCH  32  38
ENDBRANCH  30  32
ENDBRANCH   1  28
TORSDOF 16
ENDMDL