MODEL 5
REMARK VINA RESULT: -9.397289303      1.856      3.076
REMARK  16 active torsions:
REMARK  status: ('A' for Active; 'I' for Inactive)
REMARK    1  A    between atoms: C2_2  and  C3_3
REMARK    2  A    between atoms: C3_3  and  C4_4
REMARK    3  A    between atoms: C4_4  and  N1_5
REMARK       I    between atoms: N1_5  and  C5_7
REMARK    4  A    between atoms: C5_7  and  C6_9
REMARK    5  A    between atoms: C6_9  and  C7_10
REMARK    6  A    between atoms: C6_9  and  N2_17
REMARK    7  A    between atoms: C7_10  and  C8_11
REMARK    8  A    between atoms: N2_17  and  C14_19
REMARK    9  A    between atoms: C14_19  and  C15_20
REMARK   10  A    between atoms: C14_19  and  C16_23
REMARK   11  A    between atoms: C16_23  and  C17_24
REMARK   12  A    between atoms: C16_23  and  C25_35
REMARK   13  A    between atoms: C17_24  and  C18_25
REMARK       I    between atoms: C18_25  and  N4_27
REMARK   14  A    between atoms: N4_27  and  C19_29
REMARK   15  A    between atoms: C25_35  and  C26_36
REMARK   16  A    between atoms: C26_36  and  C27_38
REMARK       I    between atoms: C27_38  and  N5_40
ROOT
HETATM    1  C16 UNL     1      -8.936  16.250   0.650  1.00  0.00     0.033 C
ENDROOT
BRANCH   1   2
HETATM    2  C14 UNL     1      -9.525  16.506   2.012  1.00  0.00     0.176 C
BRANCH   2   3
HETATM    3  N2  UNL     1     -10.854  15.994   2.098  1.00  0.00    -0.372 N
ATOM      4  H2  UNL     1     -11.622  16.463   1.617  1.00  0.00     0.160 HD
BRANCH   3   5
HETATM    5  C6  UNL     1     -11.094  14.820   2.864  1.00  0.00     0.097 C
BRANCH   5   6
HETATM    6  C5  UNL     1     -11.448  14.915   4.264  1.00  0.00     0.267 C
HETATM    7  N1  UNL     1     -10.540  15.229   5.339  1.00  0.00    -0.356 N
ATOM      8  H1  UNL     1      -9.562  15.410   5.117  1.00  0.00     0.162 HD
HETATM    9  O1  UNL     1     -12.639  14.703   4.656  1.00  0.00    -0.266 OA
BRANCH   7  10
HETATM   10  C4  UNL     1     -10.962  15.298   6.722  1.00  0.00     0.123 C
BRANCH  10  11
HETATM   11  C3  UNL     1      -9.839  15.310   7.690  1.00  0.00     0.019 C
BRANCH  11  12
HETATM   12  C2  UNL     1      -8.638  16.121   7.275  1.00  0.00    -0.003 C
HETATM   13  C1  UNL     1      -7.446  15.873   8.140  1.00  0.00     0.005 C
ENDBRANCH  11  12
ENDBRANCH  10  11
ENDBRANCH   7  10
ENDBRANCH   5   6
BRANCH   5  14
HETATM   14  C7  UNL     1     -11.497  13.606   2.134  1.00  0.00     0.037 C
BRANCH  14  15
HETATM   15  C8  UNL     1     -11.999  13.657   0.766  1.00  0.00    -0.078 C
HETATM   16  C9  UNL     1     -11.748  12.682  -0.279  1.00  0.00     0.034 C
HETATM   17  C10 UNL     1     -12.712  11.515  -0.324  1.00  0.00     0.004 C
HETATM   18  C11 UNL     1     -14.149  11.983  -0.249  1.00  0.00     0.001 C
HETATM   19  C12 UNL     1     -14.389  12.866   0.934  1.00  0.00     0.004 C
HETATM   20  C13 UNL     1     -13.482  14.063   0.836  1.00  0.00     0.034 C
ENDBRANCH  14  15
ENDBRANCH   5  14
ENDBRANCH   3   5
ENDBRANCH   2   3
BRANCH   2  21
HETATM   21  C15 UNL     1      -8.628  16.251   3.112  1.00  0.00     0.254 C
HETATM   22  N3  UNL     1      -7.952  15.020   3.391  1.00  0.00    -0.060 NA
HETATM   23  O2  UNL     1      -8.383  17.204   3.938  1.00  0.00    -0.275 OA
ENDBRANCH   2  21
ENDBRANCH   1   2
BRANCH   1  24
HETATM   24  C17 UNL     1      -9.826  16.408  -0.519  1.00  0.00     0.110 C
BRANCH  24  25
HETATM   25  C18 UNL     1      -9.530  15.703  -1.754  1.00  0.00     0.218 C
HETATM   26  O3  UNL     1      -9.350  14.465  -1.789  1.00  0.00    -0.274 OA
HETATM   27  N4  UNL     1      -9.446  16.460  -2.955  1.00  0.00    -0.356 N
ATOM     28  H4  UNL     1      -9.591  17.470  -2.943  1.00  0.00     0.162 HD
BRANCH  27  29
HETATM   29  C19 UNL     1      -9.153  15.777  -4.187  1.00  0.00     0.084 C
HETATM   30  C20 UNL     1      -8.120  16.457  -5.019  1.00  0.00     0.025 C
HETATM   31  C21 UNL     1      -8.645  16.789  -6.410  1.00  0.00     0.002 C
HETATM   32  C22 UNL     1      -9.219  15.569  -7.106  1.00  0.00     0.000 C
HETATM   33  C23 UNL     1     -10.072  14.740  -6.196  1.00  0.00     0.002 C
HETATM   34  C24 UNL     1     -10.447  15.549  -4.980  1.00  0.00     0.025 C
ENDBRANCH  27  29
ENDBRANCH  24  25
ENDBRANCH   1  24
BRANCH   1  35
HETATM   35  C25 UNL     1      -7.613  16.861   0.370  1.00  0.00     0.096 C
BRANCH  35  36
HETATM   36  C26 UNL     1      -6.483  15.918   0.190  1.00  0.00     0.217 C
HETATM   37  O4  UNL     1      -6.738  14.691   0.139  1.00  0.00    -0.287 OA
BRANCH  36  38
HETATM   38  C27 UNL     1      -5.102  16.401   0.071  1.00  0.00     0.289 C
HETATM   39  O5  UNL     1      -4.381  16.346   1.122  1.00  0.00    -0.264 OA
HETATM   40  N5  UNL     1      -4.587  16.898  -1.116  1.00  0.00    -0.346 N
HETATM   41  C28 UNL     1      -5.353  16.983  -2.318  1.00  0.00     0.127 C
HETATM   42  C36 UNL     1      -3.207  17.366  -1.177  1.00  0.00     0.127 C
HETATM   43  C29 UNL     1      -4.528  17.524  -3.479  1.00  0.00     0.029 C
HETATM   44  C30 UNL     1      -3.758  18.768  -3.117  1.00  0.00    -0.037 C
HETATM   45  C31 UNL     1      -2.606  18.898  -4.089  1.00  0.00     0.010 C
HETATM   46  C34 UNL     1      -4.640  19.975  -3.352  1.00  0.00     0.010 C
HETATM   47  C35 UNL     1      -3.238  18.786  -1.720  1.00  0.00     0.029 C
HETATM   48  C32 UNL     1      -3.137  19.717  -5.246  1.00  0.00     0.001 C
HETATM   49  C33 UNL     1      -4.235  20.583  -4.672  1.00  0.00     0.001 C
ENDBRANCH  36  38
ENDBRANCH  35  36
ENDBRANCH   1  35
TORSDOF 16
ENDMDL