MODEL 4
REMARK VINA RESULT: -7.595695493      1.191      1.783
REMARK  19 active torsions:
REMARK  status: ('A' for Active; 'I' for Inactive)
REMARK    1  A    between atoms: C2_2  and  C4_4
REMARK    2  A    between atoms: C4_4  and  N1_5
REMARK       I    between atoms: N1_5  and  C5_6
REMARK    3  A    between atoms: C5_6  and  C6_8
REMARK    4  A    between atoms: C10_12  and  C11_13
REMARK       I    between atoms: C11_13  and  N2_15
REMARK    5  A    between atoms: N2_15  and  C12_17
REMARK    6  A    between atoms: C12_17  and  C13_18
REMARK    7  A    between atoms: C12_17  and  C34_46
REMARK    8  A    between atoms: C13_18  and  O3_19
REMARK    9  A    between atoms: C13_18  and  N3_21
REMARK   10  A    between atoms: N3_21  and  C15_23
REMARK   11  A    between atoms: C15_23  and  C16_24
REMARK   12  A    between atoms: C15_23  and  C23_31
REMARK   13  A    between atoms: C16_24  and  C17_25
REMARK   14  A    between atoms: C23_31  and  N4_32
REMARK   15  A    between atoms: C23_31  and  C30_42
REMARK   16  A    between atoms: N4_32  and  C24_34
REMARK   17  A    between atoms: C24_34  and  C25_35
REMARK   18  A    between atoms: C24_34  and  C29_39
REMARK   19  A    between atoms: C25_35  and  C26_36
ROOT
HETATM    1  N3  UNL     1     -13.179  13.577   4.278  1.00  0.00    -0.361 N
HETATM    2  C14 UNL     1     -14.064  14.661   4.523  1.00  0.00     0.152 C
ENDROOT
BRANCH   1   3
HETATM    3  C13 UNL     1     -12.757  13.295   2.954  1.00  0.00     0.137 C
BRANCH   3   4
HETATM    4  C12 UNL     1     -13.032  13.985   1.691  1.00  0.00     0.162 C
BRANCH   4   5
HETATM    5  N2  UNL     1     -11.868  13.769   0.773  1.00  0.00    -0.348 N
HETATM    6  C11 UNL     1     -11.202  14.840   0.171  1.00  0.00     0.223 C
HETATM    7  O2  UNL     1     -11.500  16.047   0.366  1.00  0.00    -0.273 OA
ATOM      8  H2  UNL     1     -11.553  12.818   0.583  1.00  0.00     0.163 HD
BRANCH   6   9
HETATM    9  C10 UNL     1     -10.047  14.585  -0.786  1.00  0.00     0.092 A
HETATM   10  C6  UNL     1      -8.912  15.509  -0.451  1.00  0.00     0.106 A
HETATM   11  C7  UNL     1      -8.625  16.394  -1.606  1.00  0.00     0.016 A
HETATM   12  C8  UNL     1      -9.586  16.001  -2.715  1.00  0.00     0.002 A
HETATM   13  C9  UNL     1     -10.427  14.859  -2.197  1.00  0.00     0.015 A
BRANCH  10  14
HETATM   14  C5  UNL     1      -7.694  14.788   0.081  1.00  0.00     0.295 C
HETATM   15  N1  UNL     1      -6.529  15.484   0.310  1.00  0.00    -0.387 NA
HETATM   16  O1  UNL     1      -7.877  13.571   0.267  1.00  0.00    -0.257 OA
BRANCH  15  17
HETATM   17  C4  UNL     1      -5.380  16.171   0.537  1.00  0.00     0.163 C
BRANCH  17  18
HETATM   18  C2  UNL     1      -4.924  17.153  -0.525  1.00  0.00     0.030 C
HETATM   19  C1  UNL     1      -4.949  16.520  -1.904  1.00  0.00     0.016 C
HETATM   20  C3  UNL     1      -5.681  18.427  -0.578  1.00  0.00     0.016 C
ENDBRANCH  17  18
ENDBRANCH  15  17
ENDBRANCH  10  14
ENDBRANCH   6   9
ENDBRANCH   4   5
BRANCH   4  21
HETATM   21  C34 UNL     1     -14.138  13.275   0.881  1.00  0.00     0.008 C
HETATM   22  C35 UNL     1     -13.640  12.102   0.099  1.00  0.00     0.012 C
HETATM   23  C36 UNL     1     -15.415  13.051   1.548  1.00  0.00     0.012 C
ENDBRANCH   4  21
ENDBRANCH   3   4
BRANCH   3  24
HETATM   24  O3  UNL     1     -12.001  12.241   2.844  1.00  0.00    -0.348 OA
ATOM     25  H3  UNL     1     -11.095  12.374   3.097  1.00  0.00     0.219 HD
ENDBRANCH   3  24
ENDBRANCH   1   3
BRANCH   1  26
HETATM   26  C15 UNL     1     -12.653  12.702   5.375  1.00  0.00     0.109 C
BRANCH  26  27
HETATM   27  C16 UNL     1     -13.940  12.079   5.888  1.00  0.00     0.032 C
BRANCH  27  28
HETATM   28  C17 UNL     1     -14.366  10.726   5.572  1.00  0.00    -0.013 C
HETATM   29  C18 UNL     1     -15.421  10.857   4.417  1.00  0.00     0.005 C
HETATM   30  C19 UNL     1     -15.268   9.844   3.359  1.00  0.00     0.000 C
HETATM   31  C20 UNL     1     -15.123   8.468   3.947  1.00  0.00     0.000 C
HETATM   32  C21 UNL     1     -13.902   8.400   4.805  1.00  0.00     0.000 C
HETATM   33  C22 UNL     1     -13.343   9.821   4.944  1.00  0.00     0.005 C
ENDBRANCH  27  28
ENDBRANCH  26  27
BRANCH  26  34
HETATM   34  C23 UNL     1     -11.707  13.301   6.298  1.00  0.00     0.107 C
BRANCH  34  35
HETATM   35  N4  UNL     1     -10.398  13.156   5.620  1.00  0.00    -0.403 N
ATOM     36  H4  UNL     1     -10.085  12.241   5.294  1.00  0.00     0.154 HD
BRANCH  35  37
HETATM   37  C24 UNL     1      -9.591  14.290   5.428  1.00  0.00     0.167 C
BRANCH  37  38
HETATM   38  C25 UNL     1      -9.986  15.507   6.171  1.00  0.00     0.038 C
BRANCH  38  39
HETATM   39  C26 UNL     1      -8.918  16.382   6.692  1.00  0.00    -0.020 C
HETATM   40  C27 UNL     1      -8.189  15.846   7.913  1.00  0.00     0.009 C
HETATM   41  C28 UNL     1      -7.998  17.055   5.758  1.00  0.00     0.009 C
ENDBRANCH  38  39
ENDBRANCH  37  38
BRANCH  37  42
HETATM   42  C29 UNL     1      -9.824  14.609   3.950  1.00  0.00     0.253 C
HETATM   43  N5  UNL     1     -10.390  15.823   3.522  1.00  0.00    -0.060 NA
HETATM   44  O4  UNL     1      -9.485  13.744   3.140  1.00  0.00    -0.275 OA
ENDBRANCH  37  42
ENDBRANCH  35  37
ENDBRANCH  34  35
BRANCH  34  45
HETATM   45  C30 UNL     1     -11.528  12.498   7.590  1.00  0.00    -0.029 C
HETATM   46  C31 UNL     1     -12.754  12.531   8.475  1.00  0.00     0.016 C
HETATM   47  C32 UNL     1     -11.067  11.108   7.519  1.00  0.00     0.016 C
HETATM   48  C33 UNL     1     -10.458  13.228   8.449  1.00  0.00     0.016 C
ENDBRANCH  34  45
ENDBRANCH  26  34
ENDBRANCH   1  26
TORSDOF 19
ENDMDL