MODEL 3
REMARK VINA RESULT: -8.626783048      3.309      5.732
REMARK  17 active torsions:
REMARK  status: ('A' for Active; 'I' for Inactive)
REMARK    1  A    between atoms: C3_3  and  C4_4
REMARK    2  A    between atoms: C6_8  and  C7_9
REMARK    3  A    between atoms: C7_9  and  C8_10
REMARK    4  A    between atoms: C7_9  and  N6_39
REMARK    5  A    between atoms: C8_10  and  C9_11
REMARK       I    between atoms: C9_11  and  N2_13
REMARK    6  A    between atoms: C12_16  and  C13_17
REMARK       I    between atoms: C13_17  and  N3_19
REMARK    7  A    between atoms: N3_19  and  C14_21
REMARK    8  A    between atoms: C14_21  and  C16_23
REMARK       I    between atoms: C16_23  and  N4_25
REMARK    9  A    between atoms: C19_28  and  C20_29
REMARK   10  A    between atoms: C20_29  and  C21_30
REMARK   11  A    between atoms: C21_30  and  N5_31
REMARK   12  A    between atoms: N6_39  and  C26_42
REMARK   13  A    between atoms: C26_42  and  C27_43
REMARK   14  A    between atoms: C27_43  and  C28_44
REMARK   15  A    between atoms: C28_44  and  C29_45
REMARK   16  A    between atoms: C29_45  and  C30_46
REMARK   17  A    between atoms: C30_46  and  C31_47
ROOT
HETATM    1  C1  UNL     1      -3.387  17.578  -8.139  1.00  0.00     0.112 C
HETATM    2  C2  UNL     1      -4.460  17.262  -7.168  1.00  0.00    -0.105 C
HETATM    3  C3  UNL     1      -5.351  17.020  -6.388  1.00  0.00    -0.066 C
ENDROOT
BRANCH   3   4
HETATM    4  C4  UNL     1      -6.434  16.748  -5.470  1.00  0.00     0.035 A
HETATM    5  C5  UNL     1      -7.791  16.881  -5.667  1.00  0.00     0.108 A
HETATM    6  N1  UNL     1      -8.450  16.510  -4.552  1.00  0.00    -0.366 N
HETATM    7  C6  UNL     1      -7.582  16.124  -3.593  1.00  0.00     0.041 A
ATOM      8  H1  UNL     1      -9.464  16.518  -4.448  1.00  0.00     0.165 HD
HETATM    9  C37 UNL     1      -6.323  16.272  -4.162  1.00  0.00     0.049 A
BRANCH   7  10
HETATM   10  C7  UNL     1      -7.921  15.632  -2.236  1.00  0.00     0.244 C
BRANCH  10  11
HETATM   11  C8  UNL     1      -8.972  14.566  -2.232  1.00  0.00     0.142 C
BRANCH  11  12
HETATM   12  C9  UNL     1     -10.253  15.069  -1.666  1.00  0.00     0.222 C
HETATM   13  O1  UNL     1     -10.859  15.944  -2.339  1.00  0.00    -0.273 OA
HETATM   14  N2  UNL     1     -10.708  14.555  -0.449  1.00  0.00    -0.342 N
HETATM   15  C10 UNL     1     -10.259  13.577   0.511  1.00  0.00     0.090 C
HETATM   16  C24 UNL     1     -11.834  14.751   0.431  1.00  0.00     0.102 C
HETATM   17  C11 UNL     1     -11.321  12.510   0.344  1.00  0.00     0.041 C
HETATM   18  C25 UNL     1     -10.861  14.480   1.564  1.00  0.00     0.051 C
HETATM   19  C12 UNL     1     -12.548  13.454   0.312  1.00  0.00     0.103 C
BRANCH  19  20
HETATM   20  C13 UNL     1     -13.422  13.173   1.487  1.00  0.00     0.224 C
HETATM   21  O2  UNL     1     -13.553  11.974   1.821  1.00  0.00    -0.273 OA
HETATM   22  N3  UNL     1     -14.051  14.211   2.160  1.00  0.00    -0.348 N
ATOM     23  H3  UNL     1     -13.858  15.151   1.815  1.00  0.00     0.163 HD
BRANCH  22  24
HETATM   24  C14 UNL     1     -14.938  14.122   3.281  1.00  0.00     0.172 C
HETATM   25  C15 UNL     1     -16.262  13.515   2.821  1.00  0.00     0.042 C
BRANCH  24  26
HETATM   26  C16 UNL     1     -14.321  13.427   4.403  1.00  0.00     0.242 C
HETATM   27  O3  UNL     1     -14.888  12.328   4.758  1.00  0.00    -0.271 OA
HETATM   28  N4  UNL     1     -13.179  13.815   5.148  1.00  0.00    -0.350 N
HETATM   29  C17 UNL     1     -12.811  12.954   6.252  1.00  0.00     0.126 C
HETATM   30  C23 UNL     1     -12.457  15.013   4.765  1.00  0.00     0.126 C
HETATM   31  C18 UNL     1     -11.435  13.174   6.804  1.00  0.00     0.024 C
HETATM   32  C19 UNL     1     -11.136  14.638   6.776  1.00  0.00    -0.010 C
HETATM   33  C22 UNL     1     -11.034  15.031   5.318  1.00  0.00     0.024 C
BRANCH  32  34
HETATM   34  C20 UNL     1      -9.988  15.091   7.593  1.00  0.00     0.032 C
BRANCH  34  35
HETATM   35  C21 UNL     1      -9.109  16.138   7.003  1.00  0.00     0.230 C
BRANCH  35  36
HETATM   36  N5  UNL     1      -7.987  16.510   7.833  1.00  0.00    -0.079 N
ATOM     37  H53 UNL     1      -7.770  17.499   7.713  1.00  0.00     0.274 HD
ATOM     38  H52 UNL     1      -8.256  16.507   8.817  1.00  0.00     0.274 HD
ATOM     39  H51 UNL     1      -7.152  15.942   7.691  1.00  0.00     0.274 HD
ENDBRANCH  35  36
ENDBRANCH  34  35
ENDBRANCH  32  34
ENDBRANCH  24  26
ENDBRANCH  22  24
ENDBRANCH  19  20
ENDBRANCH  11  12
ENDBRANCH  10  11
BRANCH  10  40
HETATM   40  N6  UNL     1      -8.344  16.703  -1.347  1.00  0.00    -0.065 N
ATOM     41  H62 UNL     1      -8.701  17.498  -1.877  1.00  0.00     0.278 HD
ATOM     42  H61 UNL     1      -9.193  16.447  -0.843  1.00  0.00     0.278 HD
BRANCH  40  43
HETATM   43  C26 UNL     1      -7.317  17.108  -0.446  1.00  0.00     0.233 C
BRANCH  43  44
HETATM   44  C27 UNL     1      -6.399  16.020  -0.051  1.00  0.00     0.027 C
BRANCH  44  45
HETATM   45  C28 UNL     1      -5.130  16.375   0.608  1.00  0.00     0.002 C
BRANCH  45  46
HETATM   46  C29 UNL     1      -3.884  16.380  -0.190  1.00  0.00     0.000 C
BRANCH  46  47
HETATM   47  C30 UNL     1      -3.058  17.623  -0.042  1.00  0.00     0.004 C
BRANCH  47  48
HETATM   48  C31 UNL     1      -3.018  18.343  -1.378  1.00  0.00    -0.014 C
HETATM   49  C32 UNL     1      -4.193  19.277  -1.462  1.00  0.00     0.004 C
HETATM   50  C33 UNL     1      -4.739  19.286  -2.868  1.00  0.00     0.000 C
HETATM   51  C34 UNL     1      -3.582  19.297  -3.834  1.00  0.00     0.000 C
HETATM   52  C35 UNL     1      -2.910  17.951  -3.798  1.00  0.00     0.000 C
HETATM   53  C36 UNL     1      -3.098  17.274  -2.456  1.00  0.00     0.004 C
ENDBRANCH  47  48
ENDBRANCH  46  47
ENDBRANCH  45  46
ENDBRANCH  44  45
ENDBRANCH  43  44
ENDBRANCH  40  43
ENDBRANCH  10  40
ENDBRANCH   7  10
ENDBRANCH   3   4
TORSDOF 17
ENDMDL