MODEL 2
REMARK VINA RESULT: -6.302356071      1.984      2.552
REMARK  8 active torsions:
REMARK  status: ('A' for Active; 'I' for Inactive)
REMARK    1  A    between atoms: C3_5  and  C4_6
REMARK    2  A    between atoms: C4_6  and  N2_7
REMARK    3  A    between atoms: N4_14  and  C6_16
REMARK    4  A    between atoms: C6_16  and  C7_17
REMARK    5  A    between atoms: C9_21  and  N6_22
REMARK    6  A    between atoms: N6_22  and  C10_24
REMARK    7  A    between atoms: C10_24  and  C11_25
REMARK    8  A    between atoms: C11_25  and  O1_26
ROOT
HETATM    1  C1  UNL     1      44.468  47.780  50.991  1.00  0.00     0.064 C
HETATM    2  C2  UNL     1      44.431  48.882  50.271  1.00  0.00     0.112 A
HETATM    3  N1  UNL     1      43.189  49.345  49.781  1.00  0.00    -0.331 N
ATOM      4  H1  UNL     1      42.341  48.818  49.995  1.00  0.00     0.168 HD
HETATM    5  C3  UNL     1      43.099  50.435  49.059  1.00  0.00     0.124 A
HETATM    6  N3  UNL     1      44.229  51.218  48.721  1.00  0.00    -0.179 N
ATOM      7  H3  UNL     1      44.116  52.060  48.157  1.00  0.00     0.185 HD
HETATM    8  C5  UNL     1      45.537  50.827  49.174  1.00  0.00     0.681 A
HETATM    9  N4  UNL     1      46.577  51.527  48.877  1.00  0.00    -0.225 N
ATOM     10  H4  UNL     1      46.492  52.373  48.314  1.00  0.00     0.177 HD
HETATM   11  N8  UNL     1      45.597  49.631  49.961  1.00  0.00    -0.178 N
ATOM     12  H8  UNL     1      46.501  49.308  50.308  1.00  0.00     0.185 HD
ENDROOT
BRANCH   9  13
HETATM   13  C6  UNL     1      47.868  51.087  49.358  1.00  0.00     0.146 C
BRANCH  13  14
HETATM   14  C7  UNL     1      48.895  51.042  48.249  1.00  0.00     0.041 C
HETATM   15  C8  UNL     1      48.690  52.142  47.245  1.00  0.00     0.146 C
HETATM   16  N5  UNL     1      49.661  51.991  46.199  1.00  0.00    -0.226 N
HETATM   17  C9  UNL     1      50.241  50.885  45.860  1.00  0.00     0.669 C
ATOM     18  H5  UNL     1      49.916  52.828  45.676  1.00  0.00     0.177 HD
HETATM   19  N7  UNL     1      49.906  49.702  46.572  1.00  0.00    -0.226 N
HETATM   20  C12 UNL     1      48.788  49.739  47.488  1.00  0.00     0.146 C
ATOM     21  H7  UNL     1      50.442  48.844  46.439  1.00  0.00     0.177 HD
BRANCH  17  22
HETATM   22  N6  UNL     1      51.196  50.834  44.801  1.00  0.00    -0.225 N
ATOM     23  H6  UNL     1      50.942  51.115  43.855  1.00  0.00     0.177 HD
BRANCH  22  24
HETATM   24  C10 UNL     1      52.527  50.376  45.105  1.00  0.00     0.164 C
BRANCH  24  25
HETATM   25  C11 UNL     1      52.807  49.012  44.516  1.00  0.00     0.184 C
BRANCH  25  26
HETATM   26  O1  UNL     1      51.833  48.761  43.535  1.00  0.00    -0.399 OA
ATOM     27  H1  UNL     1      52.163  49.093  42.709  1.00  0.00     0.209 HD
ENDBRANCH  25  26
ENDBRANCH  24  25
ENDBRANCH  22  24
ENDBRANCH  17  22
ENDBRANCH  13  14
ENDBRANCH   9  13
BRANCH   5  28
HETATM   28  C4  UNL     1      41.749  50.848  48.586  1.00  0.00     0.306 C
BRANCH  28  29
HETATM   29  N2  UNL     1      40.847  50.820  49.730  1.00  0.00    -0.073 N
ATOM     30  H23 UNL     1      40.486  49.887  49.926  1.00  0.00     0.274 HD
ATOM     31  H22 UNL     1      41.329  50.968  50.617  1.00  0.00     0.274 HD
ATOM     32  H21 UNL     1      40.108  51.502  49.562  1.00  0.00     0.274 HD
ENDBRANCH  28  29
ENDBRANCH   5  28
TORSDOF 8
ENDMDL