MODEL 1
REMARK VINA RESULT: -6.796146842      0.000      0.000
REMARK  7 active torsions:
REMARK  status: ('A' for Active; 'I' for Inactive)
REMARK    1  A    between atoms: N1_1  and  C1_4
REMARK    2  A    between atoms: C2_7  and  C3_8
REMARK    3  A    between atoms: C3_8  and  C4_9
REMARK    4  A    between atoms: C4_9  and  C5_10
REMARK    5  A    between atoms: C5_10  and  C6_11
REMARK    6  A    between atoms: C6_11  and  N3_12
REMARK    7  A    between atoms: C10_25  and  N7_26
ROOT
HETATM    1  C1  UNL     1      43.918  48.922  50.250  1.00  0.00     0.691 A
HETATM    2  N2  UNL     1      44.911  49.772  50.573  1.00  0.00    -0.180 N
ATOM      3  H2  UNL     1      45.795  49.389  50.908  1.00  0.00     0.185 HD
HETATM    4  C2  UNL     1      44.780  51.114  50.469  1.00  0.00     0.113 A
HETATM    5  N6  UNL     1      43.589  51.562  50.020  1.00  0.00    -0.180 N
ATOM      6  H6  UNL     1      43.442  52.566  49.924  1.00  0.00     0.185 HD
HETATM    7  C10 UNL     1      42.590  50.723  49.695  1.00  0.00     0.691 A
HETATM    8  N8  UNL     1      42.740  49.394  49.804  1.00  0.00    -0.023 N
ATOM      9  H8  UNL     1      41.981  48.759  49.555  1.00  0.00     0.203 HD
ENDROOT
BRANCH   4  10
HETATM   10  C3  UNL     1      45.884  52.042  50.829  1.00  0.00     0.077 C
BRANCH  10  11
HETATM   11  C4  UNL     1      47.023  51.806  49.895  1.00  0.00     0.009 C
BRANCH  11  12
HETATM   12  C5  UNL     1      47.063  52.781  48.747  1.00  0.00     0.021 C
BRANCH  12  13
HETATM   13  C6  UNL     1      47.004  52.042  47.410  1.00  0.00     0.139 C
BRANCH  13  14
HETATM   14  N3  UNL     1      45.796  52.382  46.693  1.00  0.00    -0.251 N
HETATM   15  C7  UNL     1      44.699  51.592  46.700  1.00  0.00     0.334 A
HETATM   16  O1  UNL     1      44.733  50.534  47.350  1.00  0.00    -0.246 OA
HETATM   17  N4  UNL     1      43.588  51.926  46.029  1.00  0.00    -0.260 N
HETATM   18  C8  UNL     1      43.510  53.046  45.324  1.00  0.00     0.332 A
ATOM     19  H4  UNL     1      42.781  51.302  46.062  1.00  0.00     0.175 HD
HETATM   20  O2  UNL     1      42.446  53.343  44.694  1.00  0.00    -0.246 OA
HETATM   21  N5  UNL     1      44.583  53.857  45.293  1.00  0.00    -0.260 N
HETATM   22  C9  UNL     1      45.700  53.526  45.967  1.00  0.00     0.334 A
ATOM     23  H5  UNL     1      44.549  54.725  44.759  1.00  0.00     0.175 HD
HETATM   24  O3  UNL     1      46.713  54.272  45.949  1.00  0.00    -0.246 OA
ENDBRANCH  13  14
ENDBRANCH  12  13
ENDBRANCH  11  12
ENDBRANCH  10  11
ENDBRANCH   4  10
BRANCH   1  25
HETATM   25  N1  UNL     1      44.078  47.628  50.363  1.00  0.00    -0.234 N
ATOM     26  H12 UNL     1      45.020  47.257  50.492  1.00  0.00     0.174 HD
ATOM     27  H11 UNL     1      43.278  46.996  50.322  1.00  0.00     0.174 HD
ENDBRANCH   1  25
BRANCH   7  28
HETATM   28  N7  UNL     1      41.482  51.227  49.273  1.00  0.00    -0.234 N
ATOM     29  H72 UNL     1      41.421  52.215  49.026  1.00  0.00     0.174 HD
ATOM     30  H71 UNL     1      40.670  50.614  49.194  1.00  0.00     0.174 HD
ENDBRANCH   7  28
TORSDOF 7
ENDMDL