MODEL 1
REMARK VINA RESULT: -7.565188575      0.000      0.000
REMARK  6 active torsions:
REMARK  status: ('A' for Active; 'I' for Inactive)
REMARK    1  A    between atoms: N1_1  and  C1_4
REMARK    2  A    between atoms: N5_18  and  C6_19
REMARK    3  A    between atoms: C6_19  and  O3_20
REMARK    4  A    between atoms: O3_20  and  C7_21
REMARK    5  A    between atoms: C7_21  and  C8_22
REMARK    6  A    between atoms: C8_22  and  C9_23
ROOT
HETATM    1  C1  UNL     1      43.486  50.682  49.704  1.00  0.00     0.679 A
HETATM    2  N2  UNL     1      43.556  49.467  50.221  1.00  0.00    -0.176 N
ATOM      3  H2  UNL     1      42.779  49.107  50.775  1.00  0.00     0.186 HD
HETATM    4  C2  UNL     1      44.677  48.677  50.016  1.00  0.00     0.134 A
HETATM    5  N3  UNL     1      44.701  47.537  50.523  1.00  0.00    -0.384 N
ATOM      6  H31 UNL     1      45.526  46.955  50.372  1.00  0.00     0.157 HD
ATOM      7  H32 UNL     1      43.919  47.185  51.077  1.00  0.00     0.157 HD
HETATM    8  C3  UNL     1      45.738  49.154  49.264  1.00  0.00     0.121 A
HETATM    9  C4  UNL     1      46.875  48.429  48.998  1.00  0.00     0.267 A
HETATM   10  O1  UNL     1      46.994  47.275  49.461  1.00  0.00    -0.267 OA
HETATM   11  N4  UNL     1      47.888  48.939  48.234  1.00  0.00    -0.274 N
ATOM     12  H4  UNL     1      48.721  48.379  48.051  1.00  0.00     0.173 HD
HETATM   13  C5  UNL     1      47.786  50.160  47.733  1.00  0.00     0.332 A
HETATM   14  O2  UNL     1      48.708  50.645  47.028  1.00  0.00    -0.246 OA
HETATM   15  N5  UNL     1      46.657  50.896  47.991  1.00  0.00    -0.262 N
HETATM   16  C10 UNL     1      45.642  50.438  48.730  1.00  0.00     0.148 A
HETATM   17  N7  UNL     1      44.527  51.126  48.978  1.00  0.00    -0.175 N
ATOM     18  H7  UNL     1      44.458  52.064  48.585  1.00  0.00     0.186 HD
ENDROOT
BRANCH  15  19
HETATM   19  C6  UNL     1      46.615  52.213  47.405  1.00  0.00     0.305 C
BRANCH  19  20
HETATM   20  O3  UNL     1      45.934  52.218  46.209  1.00  0.00    -0.371 OA
BRANCH  20  21
HETATM   21  C7  UNL     1      45.488  53.361  45.672  1.00  0.00     0.178 C
BRANCH  21  22
HETATM   22  C8  UNL     1      44.004  53.495  46.062  1.00  0.00     0.126 C
BRANCH  22  23
HETATM   23  C9  UNL     1      43.288  52.232  45.792  1.00  0.00     0.233 C
HETATM   24  N6  UNL     1      42.314  51.812  46.731  1.00  0.00    -0.062 NA
HETATM   25  O4  UNL     1      43.529  51.553  44.771  1.00  0.00    -0.277 OA
ENDBRANCH  22  23
ENDBRANCH  21  22
ENDBRANCH  20  21
ENDBRANCH  19  20
ENDBRANCH  15  19
BRANCH   1  26
HETATM   26  N1  UNL     1      42.427  51.438  49.894  1.00  0.00    -0.234 N
ATOM     27  H12 UNL     1      41.487  51.044  49.835  1.00  0.00     0.174 HD
ATOM     28  H11 UNL     1      42.521  52.431  50.104  1.00  0.00     0.174 HD
ENDBRANCH   1  26
TORSDOF 6
ENDMDL