MODEL 4
REMARK VINA RESULT: -6.800403215      1.098      1.818
REMARK  6 active torsions:
REMARK  status: ('A' for Active; 'I' for Inactive)
REMARK    1  A    between atoms: C2_3  and  O1_4
REMARK    2  A    between atoms: C2_3  and  C3_6
REMARK    3  A    between atoms: C2_3  and  C7_14
REMARK    4  A    between atoms: C3_6  and  C4_7
REMARK    5  A    between atoms: C4_7  and  C5_8
REMARK    6  A    between atoms: C5_8  and  N2_9
ROOT
HETATM    1  N1  UNL     1      43.172  49.925  52.742  1.00  0.00    -0.194 NA
HETATM    2  C1  UNL     1      43.544  50.105  51.643  1.00  0.00     0.103 C
HETATM    3  C2  UNL     1      43.980  50.360  50.236  1.00  0.00     0.182 C
ENDROOT
BRANCH   3   4
HETATM    4  O1  UNL     1      44.007  51.784  50.160  1.00  0.00    -0.371 OA
ATOM      5  H1  UNL     1      43.134  52.000  49.857  1.00  0.00     0.212 HD
ENDBRANCH   3   4
BRANCH   3   6
HETATM    6  C3  UNL     1      42.868  49.900  49.367  1.00  0.00     0.061 C
BRANCH   6   7
HETATM    7  C4  UNL     1      41.871  50.996  49.047  1.00  0.00     0.024 C
BRANCH   7   8
HETATM    8  C5  UNL     1      41.959  51.223  47.545  1.00  0.00     0.122 C
BRANCH   8   9
HETATM    9  N2  UNL     1      43.302  51.512  47.125  1.00  0.00    -0.367 N
HETATM   10  C6  UNL     1      43.523  51.919  45.933  1.00  0.00     0.196 C
HETATM   11  N3  UNL     1      42.425  52.074  45.048  1.00  0.00    -0.067 NA
HETATM   12  N4  UNL     1      44.838  52.200  45.527  1.00  0.00    -0.067 NA
ATOM     13  H2  UNL     1      44.078  51.394  47.777  1.00  0.00     0.161 HD
ENDBRANCH   8   9
ENDBRANCH   7   8
ENDBRANCH   6   7
ENDBRANCH   3   6
BRANCH   3  14
HETATM   14  C7  UNL     1      45.313  49.885  49.938  1.00  0.00     0.100 A
HETATM   15  C8  UNL     1      45.690  48.617  50.369  1.00  0.00     0.136 A
HETATM   16  N5  UNL     1      44.748  47.807  51.050  1.00  0.00    -0.082 NA
HETATM   17  N6  UNL     1      46.924  48.138  50.136  1.00  0.00    -0.296 N
HETATM   18  C9  UNL     1      47.855  48.843  49.484  1.00  0.00     0.328 A
ATOM     19  H6  UNL     1      47.159  47.204  50.470  1.00  0.00     0.171 HD
HETATM   20  O2  UNL     1      49.021  48.380  49.269  1.00  0.00    -0.247 OA
HETATM   21  N7  UNL     1      47.535  50.069  49.052  1.00  0.00    -0.275 N
HETATM   22  C10 UNL     1      46.282  50.590  49.272  1.00  0.00     0.263 A
ATOM     23  H7  UNL     1      48.231  50.625  48.553  1.00  0.00     0.173 HD
HETATM   24  O3  UNL     1      46.019  51.739  48.854  1.00  0.00    -0.267 OA
ENDBRANCH   3  14
TORSDOF 6
ENDMDL