MODEL 4
REMARK VINA RESULT: -6.909253977      2.915      4.931
REMARK  6 active torsions:
REMARK  status: ('A' for Active; 'I' for Inactive)
REMARK    1  A    between atoms: N3_8  and  C3_10
REMARK    2  A    between atoms: C3_10  and  C4_11
REMARK    3  A    between atoms: C4_11  and  C5_12
REMARK    4  A    between atoms: C5_12  and  O1_13
REMARK    5  A    between atoms: O1_13  and  N4_14
REMARK    6  A    between atoms: C8_22  and  C9_23
ROOT
HETATM    1  N1  UNL     1      40.787  50.894  50.131  1.00  0.00    -0.234 N
ATOM      2  H11 UNL     1      40.000  51.492  49.878  1.00  0.00     0.174 HD
ATOM      3  H12 UNL     1      40.702  50.342  50.984  1.00  0.00     0.174 HD
HETATM    4  C1  UNL     1      41.865  50.837  49.390  1.00  0.00     0.692 A
HETATM    5  N2  UNL     1      42.963  50.004  49.742  1.00  0.00    -0.023 N
ATOM      6  H2  UNL     1      42.894  49.445  50.593  1.00  0.00     0.203 HD
HETATM    7  C2  UNL     1      44.154  49.911  48.965  1.00  0.00     0.694 A
HETATM    8  N3  UNL     1      45.138  49.163  49.283  1.00  0.00    -0.225 N
ATOM      9  H3  UNL     1      45.088  48.598  50.130  1.00  0.00     0.177 HD
HETATM   10  N7  UNL     1      44.207  50.707  47.787  1.00  0.00    -0.169 N
ATOM     11  H7  UNL     1      45.048  50.662  47.212  1.00  0.00     0.186 HD
HETATM   12  C8  UNL     1      43.153  51.564  47.369  1.00  0.00     0.212 A
HETATM   13  N8  UNL     1      41.983  51.605  48.201  1.00  0.00    -0.169 N
ATOM     14  H8  UNL     1      41.207  52.210  47.928  1.00  0.00     0.186 HD
ENDROOT
BRANCH   8  15
HETATM   15  C3  UNL     1      46.306  49.109  48.470  1.00  0.00     0.140 C
BRANCH  15  16
HETATM   16  C4  UNL     1      47.451  48.357  49.106  1.00  0.00     0.049 C
BRANCH  16  17
HETATM   17  C5  UNL     1      48.307  49.207  49.980  1.00  0.00     0.203 C
BRANCH  17  18
HETATM   18  O1  UNL     1      47.471  49.910  50.847  1.00  0.00    -0.270 OA
BRANCH  18  19
HETATM   19  N4  UNL     1      47.808  51.242  50.877  1.00  0.00    -0.188 N
HETATM   20  C6  UNL     1      48.733  52.023  51.613  1.00  0.00     0.219 A
HETATM   21  N5  UNL     1      48.236  53.112  50.873  1.00  0.00    -0.323 N
HETATM   22  C7  UNL     1      47.423  52.415  50.228  1.00  0.00     0.221 A
ATOM     23  H5  UNL     1      48.458  54.108  50.866  1.00  0.00     0.169 HD
HETATM   24  N6  UNL     1      46.441  52.680  49.200  1.00  0.00    -0.061 NA
ENDBRANCH  18  19
ENDBRANCH  17  18
ENDBRANCH  16  17
ENDBRANCH  15  16
ENDBRANCH   8  15
BRANCH  12  25
HETATM   25  C9  UNL     1      43.239  52.288  46.268  1.00  0.00     0.246 C
HETATM   26  O2  UNL     1      43.779  51.691  45.139  1.00  0.00    -0.642 OA
HETATM   27  O3  UNL     1      42.824  53.587  46.195  1.00  0.00    -0.642 OA
ENDBRANCH  12  25
TORSDOF 6
ENDMDL