MODEL 5
REMARK VINA RESULT: -6.872273458      1.342      1.646
REMARK  8 active torsions:
REMARK  status: ('A' for Active; 'I' for Inactive)
REMARK    1  A    between atoms: N1_1  and  C1_4
REMARK    2  A    between atoms: C5_16  and  N5_17
REMARK    3  A    between atoms: C6_19  and  C7_20
REMARK    4  A    between atoms: C7_20  and  N6_21
REMARK    5  A    between atoms: N6_21  and  O3_22
REMARK    6  A    between atoms: N6_21  and  C8_24
REMARK    7  A    between atoms: C8_24  and  C9_25
REMARK    8  A    between atoms: C9_25  and  N7_26
ROOT
HETATM    1  C1  UNL     1      42.372  50.805  48.534  1.00  0.00     0.679 A
HETATM    2  N2  UNL     1      41.899  51.093  47.302  1.00  0.00    -0.154 N
ATOM      3  H2  UNL     1      40.939  50.851  47.057  1.00  0.00     0.187 HD
HETATM    4  C2  UNL     1      42.686  51.694  46.401  1.00  0.00     0.288 A
HETATM    5  O1  UNL     1      42.284  51.983  45.234  1.00  0.00    -0.265 OA
HETATM    6  C3  UNL     1      44.005  52.011  46.773  1.00  0.00     0.137 A
HETATM    7  N3  UNL     1      44.810  52.625  45.874  1.00  0.00    -0.302 N
ATOM      8  H3  UNL     1      44.471  52.851  44.939  1.00  0.00     0.171 HD
HETATM    9  C4  UNL     1      46.060  52.930  46.237  1.00  0.00     0.326 A
HETATM   10  O2  UNL     1      46.849  53.506  45.424  1.00  0.00    -0.247 OA
HETATM   11  N4  UNL     1      46.527  52.642  47.463  1.00  0.00    -0.292 N
ATOM     12  H4  UNL     1      47.488  52.899  47.685  1.00  0.00     0.172 HD
HETATM   13  C5  UNL     1      45.794  52.035  48.411  1.00  0.00     0.139 A
HETATM   14  C10 UNL     1      44.462  51.713  48.018  1.00  0.00     0.125 A
HETATM   15  N8  UNL     1      43.636  51.108  48.893  1.00  0.00    -0.186 N
ATOM     16  H8  UNL     1      43.968  50.878  49.830  1.00  0.00     0.184 HD
ENDROOT
BRANCH  13  17
HETATM   17  N5  UNL     1      46.080  51.726  49.551  1.00  0.00    -0.352 N
HETATM   18  C6  UNL     1      46.964  51.143  50.384  1.00  0.00     0.084 C
ATOM     19  H5  UNL     1      45.310  52.051  50.135  1.00  0.00     0.166 HD
BRANCH  18  20
HETATM   20  C7  UNL     1      47.615  49.885  49.892  1.00  0.00     0.193 C
BRANCH  20  21
HETATM   21  N6  UNL     1      46.948  48.755  50.462  1.00  0.00    -0.290 N
BRANCH  21  22
HETATM   22  O3  UNL     1      47.750  47.834  50.985  1.00  0.00    -0.292 OA
ATOM     23  H3  UNL     1      48.674  48.055  50.977  1.00  0.00     0.244 HD
ENDBRANCH  21  22
BRANCH  21  24
HETATM   24  C8  UNL     1      45.780  48.284  49.823  1.00  0.00     0.176 C
BRANCH  24  25
HETATM   25  C9  UNL     1      44.645  48.261  50.856  1.00  0.00     0.251 C
BRANCH  25  26
HETATM   26  N7  UNL     1      43.749  47.183  50.445  1.00  0.00    -0.078 N
ATOM     27  H73 UNL     1      43.277  47.362  49.558  1.00  0.00     0.274 HD
ATOM     28  H72 UNL     1      44.238  46.336  50.155  1.00  0.00     0.274 HD
ATOM     29  H71 UNL     1      43.108  47.038  51.225  1.00  0.00     0.274 HD
ENDBRANCH  25  26
ENDBRANCH  24  25
ENDBRANCH  21  24
ENDBRANCH  20  21
ENDBRANCH  18  20
ENDBRANCH  13  17
BRANCH   1  30
HETATM   30  N1  UNL     1      41.570  50.225  49.378  1.00  0.00    -0.234 N
ATOM     31  H12 UNL     1      41.920  49.507  50.013  1.00  0.00     0.174 HD
ATOM     32  H11 UNL     1      40.591  50.509  49.384  1.00  0.00     0.174 HD
ENDBRANCH   1  30
TORSDOF 8
ENDMDL