MODEL 5
REMARK VINA RESULT: -5.900530491      2.795      4.569
REMARK  7 active torsions:
REMARK  status: ('A' for Active; 'I' for Inactive)
REMARK    1  A    between atoms: N1_2  and  C3_4
REMARK    2  A    between atoms: C5_10  and  N4_11
REMARK    3  A    between atoms: C8_19  and  N6_20
REMARK    4  A    between atoms: N6_20  and  C9_22
REMARK    5  A    between atoms: C9_22  and  C10_23
REMARK    6  A    between atoms: C10_23  and  N7_24
REMARK    7  A    between atoms: N7_24  and  C11_26
ROOT
HETATM    1  C3  UNL     1      46.934  51.465  47.589  1.00  0.00     0.682 A
HETATM    2  N2  UNL     1      46.741  50.355  48.316  1.00  0.00    -0.175 N
ATOM      3  H2  UNL     1      47.534  49.749  48.526  1.00  0.00     0.186 HD
HETATM    4  C4  UNL     1      45.505  50.026  48.779  1.00  0.00     0.156 A
HETATM    5  N3  UNL     1      45.325  48.909  49.516  1.00  0.00    -0.175 N
ATOM      6  H3  UNL     1      46.124  48.308  49.721  1.00  0.00     0.186 HD
HETATM    7  C5  UNL     1      44.113  48.576  49.982  1.00  0.00     0.680 A
HETATM    8  N5  UNL     1      43.018  49.350  49.730  1.00  0.00    -0.155 N
ATOM      9  H5  UNL     1      42.104  49.080  50.093  1.00  0.00     0.187 HD
HETATM   10  C6  UNL     1      43.152  50.472  48.999  1.00  0.00     0.277 A
HETATM   11  O1  UNL     1      42.141  51.190  48.766  1.00  0.00    -0.266 OA
HETATM   12  C7  UNL     1      44.401  50.807  48.523  1.00  0.00     0.122 A
HETATM   13  C8  UNL     1      44.612  51.958  47.766  1.00  0.00     0.136 A
HETATM   14  N9  UNL     1      45.855  52.235  47.336  1.00  0.00    -0.176 N
ATOM     15  H9  UNL     1      45.991  53.081  46.783  1.00  0.00     0.186 HD
ENDROOT
BRANCH  13  16
HETATM   16  N6  UNL     1      43.587  52.675  47.520  1.00  0.00    -0.373 N
ATOM     17  H6  UNL     1      42.945  52.797  48.304  1.00  0.00     0.161 HD
BRANCH  16  18
HETATM   18  C9  UNL     1      43.206  53.326  46.325  1.00  0.00     0.141 C
BRANCH  18  19
HETATM   19  C10 UNL     1      43.121  54.826  46.418  1.00  0.00     0.140 C
BRANCH  19  20
HETATM   20  N7  UNL     1      42.051  55.340  47.208  1.00  0.00    -0.385 N
ATOM     21  H7  UNL     1      41.914  54.946  48.139  1.00  0.00     0.160 HD
BRANCH  20  22
HETATM   22  C11 UNL     1      41.181  56.344  46.793  1.00  0.00     0.168 C
HETATM   23  N8  UNL     1      39.953  56.335  47.243  1.00  0.00    -0.396 N
ATOM     24  H82 UNL     1      39.654  55.600  47.884  1.00  0.00     0.156 HD
ATOM     25  H81 UNL     1      39.315  57.071  46.939  1.00  0.00     0.156 HD
ENDBRANCH  20  22
ENDBRANCH  19  20
ENDBRANCH  18  19
ENDBRANCH  16  18
ENDBRANCH  13  16
BRANCH   1  26
HETATM   26  N1  UNL     1      48.231  51.828  47.092  1.00  0.00    -0.226 N
HETATM   27  C1  UNL     1      48.568  53.120  46.591  1.00  0.00     0.168 C
HETATM   28  C2  UNL     1      49.271  50.802  47.104  1.00  0.00     0.168 C
ENDBRANCH   1  26
BRANCH   7  29
HETATM   29  N4  UNL     1      43.988  47.508  50.675  1.00  0.00    -0.234 N
ATOM     30  H42 UNL     1      43.933  46.605  50.206  1.00  0.00     0.174 HD
ATOM     31  H41 UNL     1      43.946  47.582  51.691  1.00  0.00     0.174 HD
ENDBRANCH   7  29
TORSDOF 7
ENDMDL