MODEL 2
REMARK VINA RESULT: -6.989996242      1.419      2.042
REMARK  6 active torsions:
REMARK  status: ('A' for Active; 'I' for Inactive)
REMARK    1  A    between atoms: N2_3  and  C2_5
REMARK    2  A    between atoms: C2_5  and  C3_6
REMARK    3  A    between atoms: C5_11  and  C6_12
REMARK    4  A    between atoms: C6_12  and  C7_13
REMARK    5  A    between atoms: C7_13  and  N4_14
REMARK    6  A    between atoms: N4_14  and  C8_16
ROOT
HETATM    1  N1  UNL     1      41.170  57.425  48.298  1.00  0.00    -0.172 NA
HETATM    2  C1  UNL     1      41.150  56.928  47.242  1.00  0.00     0.177 C
HETATM    3  N2  UNL     1      41.096  56.328  45.995  1.00  0.00    -0.326 N
ATOM      4  H2  UNL     1      40.165  56.109  45.641  1.00  0.00     0.171 HD
ENDROOT
BRANCH   3   5
HETATM    5  C2  UNL     1      42.194  55.978  45.147  1.00  0.00     0.166 C
BRANCH   5   6
HETATM    6  C3  UNL     1      43.173  55.015  45.742  1.00  0.00     0.195 C
HETATM    7  N3  UNL     1      43.263  53.814  44.993  1.00  0.00    -0.346 N
HETATM    8  C4  UNL     1      44.050  52.666  45.412  1.00  0.00     0.224 C
ATOM      9  H3  UNL     1      42.747  53.753  44.115  1.00  0.00     0.163 HD
HETATM   10  O1  UNL     1      43.600  51.542  45.080  1.00  0.00    -0.273 OA
HETATM   11  C5  UNL     1      45.304  52.669  46.171  1.00  0.00     0.097 C
HETATM   12  C11 UNL     1      46.227  53.792  45.799  1.00  0.00     0.136 C
HETATM   13  N7  UNL     1      45.766  55.077  46.260  1.00  0.00    -0.358 N
HETATM   14  C12 UNL     1      44.496  55.647  45.986  1.00  0.00     0.242 C
ATOM     15  H7  UNL     1      46.408  55.624  46.833  1.00  0.00     0.162 HD
HETATM   16  O2  UNL     1      44.479  56.894  45.940  1.00  0.00    -0.271 OA
BRANCH  11  17
HETATM   17  C6  UNL     1      45.134  52.541  47.653  1.00  0.00     0.035 C
BRANCH  17  18
HETATM   18  C7  UNL     1      45.543  51.168  48.150  1.00  0.00     0.123 C
BRANCH  18  19
HETATM   19  N4  UNL     1      44.453  50.231  47.942  1.00  0.00    -0.362 N
ATOM     20  H4  UNL     1      44.553  49.479  47.259  1.00  0.00     0.162 HD
BRANCH  19  21
HETATM   21  C8  UNL     1      43.241  50.357  48.689  1.00  0.00     0.171 C
HETATM   22  N5  UNL     1      43.149  50.910  49.871  1.00  0.00    -0.361 N
HETATM   23  C9  UNL     1      41.779  50.868  50.337  1.00  0.00     0.142 C
ATOM     24  H5  UNL     1      43.930  51.312  50.390  1.00  0.00     0.162 HD
HETATM   25  C10 UNL     1      41.015  50.702  49.041  1.00  0.00     0.142 C
HETATM   26  N6  UNL     1      41.961  49.913  48.275  1.00  0.00    -0.361 N
ATOM     27  H6  UNL     1      41.749  49.192  47.586  1.00  0.00     0.162 HD
ENDBRANCH  19  21
ENDBRANCH  18  19
ENDBRANCH  17  18
ENDBRANCH  11  17
ENDBRANCH   5   6
ENDBRANCH   3   5
TORSDOF 6
ENDMDL