MODEL 2
REMARK VINA RESULT: -6.108603063      2.424      5.464
REMARK  9 active torsions:
REMARK  status: ('A' for Active; 'I' for Inactive)
REMARK    1  A    between atoms: N1_1  and  C1_4
REMARK    2  A    between atoms: C2_7  and  N3_8
REMARK    3  A    between atoms: N3_8  and  O1_9
REMARK    4  A    between atoms: N3_8  and  C3_11
REMARK    5  A    between atoms: C4_13  and  N4_14
REMARK    6  A    between atoms: N4_14  and  C5_16
REMARK    7  A    between atoms: C5_16  and  N5_18
REMARK    8  A    between atoms: N5_18  and  N6_20
REMARK    9  A    between atoms: N6_20  and  C6_22
ROOT
HETATM    1  C1  UNL     1      47.308  51.789  47.627  1.00  0.00     0.680 A
HETATM    2  N2  UNL     1      46.253  52.276  46.949  1.00  0.00    -0.172 N
ATOM      3  H2  UNL     1      46.365  52.607  45.991  1.00  0.00     0.186 HD
HETATM    4  C2  UNL     1      45.040  52.323  47.556  1.00  0.00     0.183 A
HETATM    5  C4  UNL     1      44.873  51.880  48.853  1.00  0.00     0.151 A
HETATM    6  C7  UNL     1      45.994  51.393  49.492  1.00  0.00     0.290 A
HETATM    7  O4  UNL     1      45.890  50.983  50.662  1.00  0.00    -0.265 OA
HETATM    8  N7  UNL     1      47.200  51.345  48.892  1.00  0.00    -0.154 N
ATOM      9  H7  UNL     1      48.014  50.981  49.387  1.00  0.00     0.187 HD
ENDROOT
BRANCH   5  10
HETATM   10  N4  UNL     1      43.613  51.924  49.475  1.00  0.00    -0.324 N
ATOM     11  H4  UNL     1      43.303  52.811  49.873  1.00  0.00     0.168 HD
BRANCH  10  12
HETATM   12  C5  UNL     1      42.746  50.798  49.580  1.00  0.00     0.191 C
HETATM   13  S1  UNL     1      41.382  50.754  48.661  1.00  0.00    -0.039 SA
BRANCH  12  14
HETATM   14  N5  UNL     1      43.052  49.738  50.457  1.00  0.00    -0.274 N
ATOM     15  H5  UNL     1      42.778  49.828  51.435  1.00  0.00     0.189 HD
BRANCH  14  16
HETATM   16  N6  UNL     1      43.707  48.576  50.062  1.00  0.00    -0.275 N
ATOM     17  H6  UNL     1      43.582  48.261  49.100  1.00  0.00     0.189 HD
BRANCH  16  18
HETATM   18  C6  UNL     1      44.535  47.803  50.907  1.00  0.00     0.368 C
HETATM   19  O3  UNL     1      45.789  47.808  50.848  1.00  0.00    -0.282 OA
ENDBRANCH  16  18
ENDBRANCH  14  16
ENDBRANCH  12  14
ENDBRANCH  10  12
ENDBRANCH   5  10
BRANCH   4  20
HETATM   20  N3  UNL     1      43.910  52.838  46.863  1.00  0.00    -0.179 N
BRANCH  20  21
HETATM   21  O1  UNL     1      43.379  53.885  47.299  1.00  0.00    -0.279 OA
ATOM     22  H1  UNL     1      42.482  53.837  47.606  1.00  0.00     0.245 HD
ENDBRANCH  20  21
BRANCH  20  23
HETATM   23  C3  UNL     1      43.370  52.229  45.725  1.00  0.00     0.383 C
HETATM   24  O2  UNL     1      44.149  51.546  44.991  1.00  0.00    -0.281 OA
ENDBRANCH  20  23
ENDBRANCH   4  20
BRANCH   1  25
HETATM   25  N1  UNL     1      48.475  51.749  47.032  1.00  0.00    -0.234 N
ATOM     26  H12 UNL     1      48.669  52.400  46.272  1.00  0.00     0.174 HD
ATOM     27  H11 UNL     1      49.162  51.062  47.346  1.00  0.00     0.174 HD
ENDBRANCH   1  25
TORSDOF 9
ENDMDL