MODEL 3
REMARK VINA RESULT: -7.081906658      2.297      2.555
REMARK  10 active torsions:
REMARK  status: ('A' for Active; 'I' for Inactive)
REMARK    1  A    between atoms: C4_4  and  C5_5
REMARK    2  A    between atoms: C5_5  and  N1_6
REMARK    3  A    between atoms: N1_6  and  C6_8
REMARK    4  A    between atoms: C7_11  and  N3_12
REMARK    5  A    between atoms: N3_12  and  C8_14
REMARK    6  A    between atoms: C8_14  and  N4_15
REMARK    7  A    between atoms: C9_21  and  N6_22
REMARK    8  A    between atoms: N6_22  and  C10_24
REMARK    9  A    between atoms: C10_24  and  C11_25
REMARK   10  A    between atoms: C11_25  and  O1_26
ROOT
HETATM    1  C6  UNL     1      44.530  52.212  50.734  1.00  0.00     0.707 A
HETATM    2  N2  UNL     1      43.549  51.490  50.177  1.00  0.00    -0.021 N
ATOM      3  H2  UNL     1      43.613  51.192  49.205  1.00  0.00     0.203 HD
HETATM    4  C7  UNL     1      42.461  51.160  50.935  1.00  0.00     0.708 A
HETATM    5  N5  UNL     1      42.342  51.533  52.209  1.00  0.00    -0.021 N
ATOM      6  H5  UNL     1      41.521  51.275  52.756  1.00  0.00     0.203 HD
HETATM    7  C9  UNL     1      43.341  52.262  52.756  1.00  0.00     0.707 A
HETATM    8  N7  UNL     1      44.420  52.597  52.030  1.00  0.00    -0.022 N
ATOM      9  H7  UNL     1      45.165  53.146  52.459  1.00  0.00     0.203 HD
ENDROOT
BRANCH   1  10
HETATM   10  N1  UNL     1      45.555  52.522  50.020  1.00  0.00    -0.219 N
ATOM     11  H1  UNL     1      45.665  53.490  49.718  1.00  0.00     0.178 HD
BRANCH  10  12
HETATM   12  C5  UNL     1      46.559  51.554  49.625  1.00  0.00     0.205 C
BRANCH  12  13
HETATM   13  C4  UNL     1      47.662  51.535  50.633  1.00  0.00     0.096 A
HETATM   14  C3  UNL     1      48.754  50.716  50.701  1.00  0.00     0.063 A
HETATM   15  C2  UNL     1      49.455  51.119  51.824  1.00  0.00     0.031 A
HETATM   16  C1  UNL     1      50.728  50.549  52.349  1.00  0.00     0.070 C
HETATM   17  N8  UNL     1      48.779  52.136  52.373  1.00  0.00    -0.266 N
HETATM   18  O2  UNL     1      47.727  52.358  51.650  1.00  0.00    -0.241 OA
ATOM     19  H8  UNL     1      49.046  52.648  53.214  1.00  0.00     0.194 HD
ENDBRANCH  12  13
ENDBRANCH  10  12
ENDBRANCH   1  10
BRANCH   4  20
HETATM   20  N3  UNL     1      41.559  50.472  50.354  1.00  0.00    -0.201 N
ATOM     21  H3  UNL     1      40.930  49.902  50.920  1.00  0.00     0.179 HD
BRANCH  20  22
HETATM   22  C8  UNL     1      41.401  50.475  48.921  1.00  0.00     0.368 C
BRANCH  22  23
HETATM   23  N4  UNL     1      41.644  49.127  48.439  1.00  0.00    -0.063 N
ATOM     24  H43 UNL     1      41.801  48.461  49.194  1.00  0.00     0.276 HD
ATOM     25  H42 UNL     1      40.810  48.692  48.044  1.00  0.00     0.276 HD
ATOM     26  H41 UNL     1      42.421  49.164  47.778  1.00  0.00     0.276 HD
ENDBRANCH  22  23
ENDBRANCH  20  22
ENDBRANCH   4  20
BRANCH   7  27
HETATM   27  N6  UNL     1      43.256  52.633  53.971  1.00  0.00    -0.223 N
ATOM     28  H6  UNL     1      43.553  53.574  54.228  1.00  0.00     0.177 HD
BRANCH  27  29
HETATM   29  C10 UNL     1      42.753  51.756  54.986  1.00  0.00     0.164 C
BRANCH  29  30
HETATM   30  C11 UNL     1      42.412  52.561  56.237  1.00  0.00     0.184 C
BRANCH  30  31
HETATM   31  O1  UNL     1      43.317  53.612  56.326  1.00  0.00    -0.399 OA
ATOM     32  H1  UNL     1      42.989  54.223  56.975  1.00  0.00     0.209 HD
ENDBRANCH  30  31
ENDBRANCH  29  30
ENDBRANCH  27  29
ENDBRANCH   7  27
TORSDOF 10
ENDMDL