MODEL 5
REMARK VINA RESULT: -6.552893695      2.474      3.393
REMARK  14 active torsions:
REMARK  status: ('A' for Active; 'I' for Inactive)
REMARK    1  A    between atoms: N1_1  and  C1_5
REMARK    2  A    between atoms: C1_5  and  C2_6
REMARK    3  A    between atoms: C2_6  and  C3_7
REMARK    4  A    between atoms: C3_7  and  N2_8
REMARK    5  A    between atoms: N2_8  and  C4_11
REMARK    6  A    between atoms: C4_11  and  C5_12
REMARK    7  A    between atoms: C6_14  and  C7_15
REMARK    8  A    between atoms: N3_19  and  C11_20
REMARK    9  A    between atoms: C11_20  and  C12_21
REMARK   10  A    between atoms: C12_21  and  C13_22
REMARK   11  A    between atoms: C13_22  and  C14_23
REMARK   12  A    between atoms: C14_23  and  C15_24
REMARK   13  A    between atoms: C15_24  and  C16_25
REMARK   14  A    between atoms: N6_35  and  N7_37
ROOT
HETATM    1  C5  UNL     1      70.977   8.948  11.194  1.00  0.00     0.194 C
HETATM    2  O1  UNL     1      70.639  10.023  12.036  1.00  0.00    -0.371 OA
HETATM    3  C6  UNL     1      71.300  11.167  11.566  1.00  0.00     0.156 C
HETATM    4  C19 UNL     1      70.947  11.291  10.072  1.00  0.00     0.040 C
HETATM    5  C20 UNL     1      71.970  10.399   9.372  1.00  0.00     0.059 C
HETATM    6  C21 UNL     1      72.147   9.248  10.329  1.00  0.00     0.033 C
HETATM    7  N6  UNL     1      73.249   8.612  10.351  1.00  0.00    -0.313 N
ATOM      8  H6  UNL     1      73.365   7.835  11.000  1.00  0.00     0.185 HD
ENDROOT
BRANCH   3   9
HETATM    9  C7  UNL     1      70.830  12.414  12.222  1.00  0.00     0.251 C
HETATM   10  C8  UNL     1      71.104  13.607  11.327  1.00  0.00     0.040 C
HETATM   11  C9  UNL     1      72.527  14.074  11.664  1.00  0.00     0.032 C
HETATM   12  C10 UNL     1      72.823  13.245  12.867  1.00  0.00     0.273 C
HETATM   13  N3  UNL     1      71.608  12.777  13.392  1.00  0.00     0.095 N
BRANCH  13  14
HETATM   14  C11 UNL     1      70.839  13.638  14.209  1.00  0.00     0.273 C
BRANCH  14  15
HETATM   15  C12 UNL     1      69.484  13.189  14.586  1.00  0.00     0.030 C
BRANCH  15  16
HETATM   16  C13 UNL     1      68.637  14.314  15.135  1.00  0.00     0.002 C
BRANCH  16  17
HETATM   17  C14 UNL     1      68.571  14.304  16.642  1.00  0.00     0.006 C
BRANCH  17  18
HETATM   18  C15 UNL     1      69.167  15.600  17.193  1.00  0.00     0.058 C
BRANCH  18  19
HETATM   19  C16 UNL     1      70.115  15.289  18.287  1.00  0.00     0.025 A
HETATM   20  C17 UNL     1      69.893  15.274  19.651  1.00  0.00     0.113 A
HETATM   21  N4  UNL     1      71.044  14.934  20.288  1.00  0.00    -0.360 N
HETATM   22  C18 UNL     1      71.984  14.735  19.332  1.00  0.00     0.180 A
ATOM     23  H4  UNL     1      71.176  14.845  21.296  1.00  0.00     0.166 HD
HETATM   24  N5  UNL     1      71.418  14.950  18.137  1.00  0.00    -0.355 N
ATOM     25  H5  UNL     1      71.901  14.870  17.241  1.00  0.00     0.166 HD
ENDBRANCH  18  19
ENDBRANCH  17  18
ENDBRANCH  16  17
ENDBRANCH  15  16
ENDBRANCH  14  15
ENDBRANCH  13  14
ENDBRANCH   3   9
BRANCH   1  26
HETATM   26  C4  UNL     1      71.307   7.714  12.001  1.00  0.00     0.270 C
BRANCH  26  27
HETATM   27  N2  UNL     1      70.312   6.694  11.894  1.00  0.00    -0.072 N
ATOM     28  H22 UNL     1      69.487   7.040  11.402  1.00  0.00     0.277 HD
ATOM     29  H21 UNL     1      69.892   6.497  12.803  1.00  0.00     0.277 HD
BRANCH  27  30
HETATM   30  C3  UNL     1      70.809   5.480  11.281  1.00  0.00     0.234 C
BRANCH  30  31
HETATM   31  C2  UNL     1      71.205   4.467  12.329  1.00  0.00     0.055 C
BRANCH  31  32
HETATM   32  C1  UNL     1      72.701   4.327  12.443  1.00  0.00     0.231 C
BRANCH  32  33
HETATM   33  N1  UNL     1      73.190   5.131  13.539  1.00  0.00    -0.079 N
ATOM     34  H13 UNL     1      72.913   6.108  13.449  1.00  0.00     0.274 HD
ATOM     35  H12 UNL     1      72.708   4.920  14.413  1.00  0.00     0.274 HD
ATOM     36  H11 UNL     1      74.201   5.026  13.624  1.00  0.00     0.274 HD
ENDBRANCH  32  33
ENDBRANCH  31  32
ENDBRANCH  30  31
ENDBRANCH  27  30
ENDBRANCH  26  27
ENDBRANCH   1  26
BRANCH   7  37
HETATM   37  N7  UNL     1      74.284   8.954   9.516  1.00  0.00    -0.345 N
ATOM     38  H72 UNL     1      74.250   9.858   9.046  1.00  0.00     0.176 HD
ATOM     39  H71 UNL     1      75.072   8.323   9.365  1.00  0.00     0.176 HD
ENDBRANCH   7  37
TORSDOF 14
ENDMDL