MODEL 4
REMARK VINA RESULT: -6.460380714      1.181      1.859
REMARK  16 active torsions:
REMARK  status: ('A' for Active; 'I' for Inactive)
REMARK    1  A    between atoms: O1_1  and  C1_3
REMARK    2  A    between atoms: C1_3  and  C2_4
REMARK    3  A    between atoms: C3_5  and  O2_6
REMARK    4  A    between atoms: C4_8  and  O3_9
REMARK    5  A    between atoms: C5_11  and  O4_12
REMARK    6  A    between atoms: N1_15  and  C7_16
REMARK    7  A    between atoms: C7_16  and  C8_17
REMARK    8  A    between atoms: C8_17  and  C9_18
REMARK    9  A    between atoms: C9_18  and  C10_19
REMARK   10  A    between atoms: C10_19  and  C11_20
REMARK   11  A    between atoms: C11_20  and  C12_21
REMARK   12  A    between atoms: C12_21  and  O5_22
REMARK   13  A    between atoms: O5_22  and  C13_23
REMARK   14  A    between atoms: C13_23  and  C14_24
REMARK   15  A    between atoms: C15_25  and  C16_26
REMARK   16  A    between atoms: C16_26  and  N2_27
ROOT
HETATM    1  C7  UNL     1      72.764   8.310  10.690  1.00  0.00     0.064 C
ENDROOT
BRANCH   1   2
HETATM    2  N1  UNL     1      72.176   7.502  11.664  1.00  0.00    -0.362 N
HETATM    3  C2  UNL     1      70.813   7.201  11.622  1.00  0.00     0.143 C
HETATM    4  C3  UNL     1      70.481   5.727  11.653  1.00  0.00     0.175 C
HETATM    5  C4  UNL     1      71.713   4.855  11.690  1.00  0.00     0.182 C
HETATM    6  C5  UNL     1      72.752   5.343  12.677  1.00  0.00     0.188 C
HETATM    7  C6  UNL     1      72.939   6.827  12.623  1.00  0.00     0.098 C
BRANCH   3   8
HETATM    8  C1  UNL     1      70.072   7.794  10.441  1.00  0.00     0.192 C
BRANCH   8   9
HETATM    9  O1  UNL     1      69.403   8.940  10.898  1.00  0.00    -0.399 OA
ATOM     10  H1  UNL     1      69.980   9.682  10.758  1.00  0.00     0.209 HD
ENDBRANCH   8   9
ENDBRANCH   3   8
BRANCH   4  11
HETATM   11  O2  UNL     1      69.681   5.390  12.759  1.00  0.00    -0.391 OA
ATOM     12  H2  UNL     1      69.220   6.144  13.108  1.00  0.00     0.210 HD
ENDBRANCH   4  11
BRANCH   5  13
HETATM   13  O3  UNL     1      71.308   3.569  12.057  1.00  0.00    -0.390 OA
ATOM     14  H3  UNL     1      71.251   3.049  11.264  1.00  0.00     0.210 HD
ENDBRANCH   5  13
BRANCH   6  15
HETATM   15  O4  UNL     1      72.345   4.926  13.941  1.00  0.00    -0.388 OA
ATOM     16  H4  UNL     1      72.728   4.070  14.090  1.00  0.00     0.210 HD
ENDBRANCH   6  15
ENDBRANCH   1   2
BRANCH   1  17
HETATM   17  C8  UNL     1      73.183   7.590   9.454  1.00  0.00     0.044 C
BRANCH  17  18
HETATM   18  C9  UNL     1      73.169   8.563   8.298  1.00  0.00     0.005 C
BRANCH  18  19
HETATM   19  C10 UNL     1      72.882   9.976   8.680  1.00  0.00     0.002 C
BRANCH  19  20
HETATM   20  C11 UNL     1      73.921  10.945   8.126  1.00  0.00     0.026 C
BRANCH  20  21
HETATM   21  C12 UNL     1      75.139  10.814   9.003  1.00  0.00     0.168 C
BRANCH  21  22
HETATM   22  O5  UNL     1      75.793  11.978   9.279  1.00  0.00    -0.387 OA
BRANCH  22  23
HETATM   23  C13 UNL     1      75.699  12.392  10.624  1.00  0.00     0.194 C
BRANCH  23  24
HETATM   24  C14 UNL     1      74.771  13.518  10.804  1.00  0.00    -0.003 C
HETATM   25  C15 UNL     1      73.545  13.422  11.227  1.00  0.00     0.001 C
BRANCH  25  26
HETATM   26  C16 UNL     1      72.846  12.191  11.607  1.00  0.00     0.299 C
BRANCH  26  27
HETATM   27  N2  UNL     1      71.540  12.410  12.197  1.00  0.00     0.091 N
HETATM   28  C17 UNL     1      71.424  13.638  12.907  1.00  0.00     0.272 C
HETATM   29  C18 UNL     1      70.689  13.503  14.220  1.00  0.00     0.030 C
HETATM   30  C19 UNL     1      69.436  12.690  13.972  1.00  0.00     0.003 C
HETATM   31  C20 UNL     1      69.766  11.298  13.472  1.00  0.00     0.030 C
HETATM   32  C21 UNL     1      71.192  11.247  12.946  1.00  0.00     0.272 C
ENDBRANCH  26  27
ENDBRANCH  25  26
ENDBRANCH  23  24
ENDBRANCH  22  23
ENDBRANCH  21  22
ENDBRANCH  20  21
ENDBRANCH  19  20
ENDBRANCH  18  19
ENDBRANCH  17  18
ENDBRANCH   1  17
TORSDOF 16
ENDMDL