MODEL 2
REMARK VINA RESULT: -6.334723955      3.474      7.572
REMARK  16 active torsions:
REMARK  status: ('A' for Active; 'I' for Inactive)
REMARK    1  A    between atoms: C2_3  and  C3_4
REMARK    2  A    between atoms: C3_4  and  C4_5
REMARK    3  A    between atoms: C4_5  and  C5_6
REMARK    4  A    between atoms: C5_6  and  C6_7
REMARK    5  A    between atoms: C6_7  and  O1_8
REMARK    6  A    between atoms: O1_8  and  C7_9
REMARK    7  A    between atoms: C7_9  and  C8_10
REMARK    8  A    between atoms: C8_10  and  C9_11
REMARK    9  A    between atoms: C9_11  and  N2_12
REMARK   10  A    between atoms: N2_12  and  C10_14
REMARK   11  A    between atoms: C11_17  and  N4_18
REMARK   12  A    between atoms: N4_18  and  C12_20
REMARK   13  A    between atoms: C12_20  and  C13_21
REMARK   14  A    between atoms: C13_21  and  O2_22
REMARK   15  A    between atoms: C14_26  and  N6_27
REMARK   16  A    between atoms: N6_27  and  C15_29
ROOT
HETATM    1  N1  UNL     1      73.116   4.872  13.846  1.00  0.00    -0.197 NA
HETATM    2  C1  UNL     1      72.333   4.749  13.000  1.00  0.00     0.059 C
HETATM    3  C2  UNL     1      71.344   4.597  11.908  1.00  0.00     0.124 C
ENDROOT
BRANCH   3   4
HETATM    4  C3  UNL     1      70.341   5.701  11.977  1.00  0.00     0.014 C
BRANCH   4   5
HETATM    5  C4  UNL     1      70.268   6.518  10.727  1.00  0.00     0.003 C
BRANCH   5   6
HETATM    6  C5  UNL     1      70.865   7.865  10.957  1.00  0.00     0.026 C
BRANCH   6   7
HETATM    7  C6  UNL     1      72.383   7.802  10.929  1.00  0.00     0.167 C
BRANCH   7   8
HETATM    8  O1  UNL     1      72.884   7.164   9.821  1.00  0.00    -0.391 OA
BRANCH   8   9
HETATM    9  C7  UNL     1      73.735   7.920   9.053  1.00  0.00     0.169 C
BRANCH   9  10
HETATM   10  C8  UNL     1      73.013   8.945   8.207  1.00  0.00     0.046 C
BRANCH  10  11
HETATM   11  C9  UNL     1      73.234  10.344   8.703  1.00  0.00     0.140 C
BRANCH  11  12
HETATM   12  N2  UNL     1      72.039  10.843   9.352  1.00  0.00    -0.225 N
ATOM     13  H2  UNL     1      71.149  10.783   8.856  1.00  0.00     0.177 HD
BRANCH  12  14
HETATM   14  C10 UNL     1      72.059  11.361  10.536  1.00  0.00     0.707 A
HETATM   15  N3  UNL     1      73.257  11.665  11.055  1.00  0.00    -0.022 N
HETATM   16  C11 UNL     1      73.319  12.206  12.284  1.00  0.00     0.707 A
ATOM     17  H3  UNL     1      74.111  11.488  10.525  1.00  0.00     0.203 HD
HETATM   18  N5  UNL     1      72.172  12.431  12.967  1.00  0.00    -0.022 N
HETATM   19  C14 UNL     1      70.943  12.130  12.461  1.00  0.00     0.707 A
ATOM     20  H5  UNL     1      72.231  12.843  13.898  1.00  0.00     0.203 HD
HETATM   21  N7  UNL     1      70.923  11.593  11.234  1.00  0.00    -0.022 N
ATOM     22  H7  UNL     1      70.026  11.353  10.813  1.00  0.00     0.203 HD
BRANCH  16  23
HETATM   23  N4  UNL     1      74.470  12.511  12.811  1.00  0.00    -0.223 N
ATOM     24  H4  UNL     1      75.133  11.786  13.087  1.00  0.00     0.177 HD
BRANCH  23  25
HETATM   25  C12 UNL     1      74.775  13.910  12.992  1.00  0.00     0.164 C
BRANCH  25  26
HETATM   26  C13 UNL     1      76.057  14.120  13.743  1.00  0.00     0.184 C
BRANCH  26  27
HETATM   27  O2  UNL     1      75.762  14.481  15.075  1.00  0.00    -0.399 OA
ATOM     28  H2  UNL     1      76.403  15.114  15.376  1.00  0.00     0.209 HD
ENDBRANCH  26  27
ENDBRANCH  25  26
ENDBRANCH  23  25
ENDBRANCH  16  23
BRANCH  19  29
HETATM   29  N6  UNL     1      69.883  12.360  13.143  1.00  0.00    -0.220 N
ATOM     30  H6  UNL     1      69.068  11.760  13.020  1.00  0.00     0.178 HD
BRANCH  29  31
HETATM   31  C15 UNL     1      69.826  13.438  14.068  1.00  0.00     0.099 C
HETATM   32  C16 UNL     1      68.647  13.325  15.020  1.00  0.00     0.026 C
HETATM   33  C17 UNL     1      68.662  14.533  15.911  1.00  0.00     0.002 C
HETATM   34  C18 UNL     1      69.901  15.365  15.777  1.00  0.00     0.000 C
HETATM   35  C19 UNL     1      70.164  15.827  14.382  1.00  0.00     0.002 C
HETATM   36  C20 UNL     1      69.678  14.794  13.390  1.00  0.00     0.026 C
ENDBRANCH  29  31
ENDBRANCH  19  29
ENDBRANCH  12  14
ENDBRANCH  11  12
ENDBRANCH  10  11
ENDBRANCH   9  10
ENDBRANCH   8   9
ENDBRANCH   7   8
ENDBRANCH   6   7
ENDBRANCH   5   6
ENDBRANCH   4   5
ENDBRANCH   3   4
TORSDOF 16
ENDMDL