MODEL 3
REMARK VINA RESULT: -6.225792956      5.037     10.025
REMARK  18 active torsions:
REMARK  status: ('A' for Active; 'I' for Inactive)
REMARK    1  A    between atoms: O1_1  and  C1_3
REMARK    2  A    between atoms: C1_3  and  C2_4
REMARK    3  A    between atoms: C3_6  and  O3_7
REMARK    4  A    between atoms: O3_7  and  C4_8
REMARK    5  A    between atoms: C4_8  and  C5_9
REMARK    6  A    between atoms: C5_9  and  C6_10
REMARK    7  A    between atoms: C6_10  and  C7_11
REMARK    8  A    between atoms: C7_11  and  C8_12
REMARK    9  A    between atoms: C8_12  and  C9_13
REMARK   10  A    between atoms: C9_13  and  C10_14
REMARK   11  A    between atoms: C10_14  and  C11_15
REMARK   12  A    between atoms: C11_15  and  C12_16
REMARK   13  A    between atoms: C12_16  and  C13_17
REMARK   14  A    between atoms: C13_17  and  N1_18
REMARK   15  A    between atoms: N1_18  and  C14_19
REMARK   16  A    between atoms: C19_24  and  O4_25
REMARK   17  A    between atoms: C20_27  and  O5_28
REMARK   18  A    between atoms: C21_30  and  O6_31
ROOT
HETATM    1  O3  UNL     1      73.922  11.619  10.889  1.00  0.00    -0.359 OA
ENDROOT
BRANCH   1   2
HETATM    2  C3  UNL     1      72.570  11.525  11.100  1.00  0.00     0.291 C
HETATM    3  O2  UNL     1      72.065  12.746  11.583  1.00  0.00    -0.348 OA
HETATM    4  C2  UNL     1      70.687  12.648  11.640  1.00  0.00     0.179 C
HETATM    5  C21 UNL     1      70.331  11.795  12.835  1.00  0.00     0.180 C
HETATM    6  C20 UNL     1      70.905  10.419  12.578  1.00  0.00     0.183 C
HETATM    7  C19 UNL     1      72.348  10.489  12.196  1.00  0.00     0.204 C
BRANCH   4   8
HETATM    8  C1  UNL     1      70.013  13.982  11.757  1.00  0.00     0.198 C
BRANCH   8   9
HETATM    9  O1  UNL     1      70.768  14.793  12.607  1.00  0.00    -0.398 OA
ATOM     10  H1  UNL     1      71.470  15.191  12.105  1.00  0.00     0.209 HD
ENDBRANCH   8   9
ENDBRANCH   4   8
BRANCH   5  11
HETATM   11  O6  UNL     1      70.829  12.270  14.024  1.00  0.00    -0.390 OA
ATOM     12  H6  UNL     1      70.191  12.742  14.545  1.00  0.00     0.210 HD
ENDBRANCH   5  11
BRANCH   6  13
HETATM   13  O5  UNL     1      70.117   9.750  11.631  1.00  0.00    -0.390 OA
ATOM     14  H5  UNL     1      69.303   9.418  11.991  1.00  0.00     0.210 HD
ENDBRANCH   6  13
BRANCH   7  15
HETATM   15  O4  UNL     1      73.117  10.760  13.309  1.00  0.00    -0.388 OA
ATOM     16  H4  UNL     1      74.041  10.627  13.133  1.00  0.00     0.210 HD
ENDBRANCH   7  15
ENDBRANCH   1   2
BRANCH   1  17
HETATM   17  C4  UNL     1      74.321  12.518   9.933  1.00  0.00     0.171 C
BRANCH  17  18
HETATM   18  C5  UNL     1      75.823  12.645   9.854  1.00  0.00     0.026 C
BRANCH  18  19
HETATM   19  C6  UNL     1      76.415  11.817   8.755  1.00  0.00     0.002 C
BRANCH  19  20
HETATM   20  C7  UNL     1      75.382  11.417   7.707  1.00  0.00     0.000 C
BRANCH  20  21
HETATM   21  C8  UNL     1      75.972  10.483   6.692  1.00  0.00     0.000 C
BRANCH  21  22
HETATM   22  C9  UNL     1      76.117   9.071   7.246  1.00  0.00     0.000 C
BRANCH  22  23
HETATM   23  C10 UNL     1      75.012   8.205   6.776  1.00  0.00     0.000 C
BRANCH  23  24
HETATM   24  C11 UNL     1      74.196   7.520   7.798  1.00  0.00     0.006 C
BRANCH  24  25
HETATM   25  C12 UNL     1      73.749   8.356   8.932  1.00  0.00     0.059 C
BRANCH  25  26
HETATM   26  C13 UNL     1      72.390   8.310   9.375  1.00  0.00     0.154 C
BRANCH  26  27
HETATM   27  N1  UNL     1      72.053   7.435  10.221  1.00  0.00    -0.431 NA
BRANCH  27  28
HETATM   28  C14 UNL     1      71.863   6.613  11.136  1.00  0.00     0.061 C
HETATM   29  C15 UNL     1      70.971   5.487  11.027  1.00  0.00     0.068 C
HETATM   30  C16 UNL     1      71.302   4.674  12.263  1.00  0.00     0.007 C
HETATM   31  C17 UNL     1      72.553   5.230  12.856  1.00  0.00     0.007 C
HETATM   32  C18 UNL     1      72.525   6.699  12.417  1.00  0.00     0.068 C
ENDBRANCH  27  28
ENDBRANCH  26  27
ENDBRANCH  25  26
ENDBRANCH  24  25
ENDBRANCH  23  24
ENDBRANCH  22  23
ENDBRANCH  21  22
ENDBRANCH  20  21
ENDBRANCH  19  20
ENDBRANCH  18  19
ENDBRANCH  17  18
ENDBRANCH   1  17
TORSDOF 18
ENDMDL