MODEL 4
REMARK VINA RESULT: -6.476838184      9.241     12.580
REMARK  14 active torsions:
REMARK  status: ('A' for Active; 'I' for Inactive)
REMARK    1  A    between atoms: C7_7  and  C8_8
REMARK    2  A    between atoms: C8_8  and  C9_9
REMARK    3  A    between atoms: C9_9  and  C10_10
REMARK    4  A    between atoms: C10_10  and  O1_11
REMARK    5  A    between atoms: O1_11  and  C11_12
REMARK    6  A    between atoms: C11_12  and  C12_13
REMARK    7  A    between atoms: C12_13  and  O2_14
REMARK    8  A    between atoms: O2_14  and  C13_15
REMARK    9  A    between atoms: C13_15  and  O3_16
REMARK   10  A    between atoms: O3_16  and  C14_17
REMARK   11  A    between atoms: C14_17  and  C15_18
REMARK   12  A    between atoms: C15_18  and  N1_19
REMARK   13  A    between atoms: N1_19  and  C16_21
REMARK   14  A    between atoms: C17_24  and  N3_25
REMARK       I    between atoms: N3_25  and  C18_27
ROOT
HETATM    1  C14 UNL     1      76.808   7.399   7.115  1.00  0.00     0.190 C
ENDROOT
BRANCH   1   2
HETATM    2  O3  UNL     1      75.724   6.855   7.739  1.00  0.00    -0.365 OA
BRANCH   2   3
HETATM    3  C13 UNL     1      74.626   6.736   6.904  1.00  0.00     0.337 C
BRANCH   3   4
HETATM    4  O2  UNL     1      73.824   7.839   7.133  1.00  0.00    -0.365 OA
BRANCH   4   5
HETATM    5  C12 UNL     1      73.502   7.906   8.474  1.00  0.00     0.196 C
BRANCH   5   6
HETATM    6  C11 UNL     1      73.214   9.276   8.993  1.00  0.00     0.193 C
BRANCH   6   7
HETATM    7  O1  UNL     1      71.918   9.708   8.817  1.00  0.00    -0.389 OA
BRANCH   7   8
HETATM    8  C10 UNL     1      71.414  10.485   9.833  1.00  0.00     0.168 C
BRANCH   8   9
HETATM    9  C9  UNL     1      72.059  10.102  11.137  1.00  0.00     0.031 C
BRANCH   9  10
HETATM   10  C8  UNL     1      71.078   9.332  11.969  1.00  0.00     0.041 C
BRANCH  10  11
HETATM   11  C7  UNL     1      71.385   7.896  11.937  1.00  0.00    -0.052 A
HETATM   12  C2  UNL     1      70.607   7.046  11.193  1.00  0.00    -0.056 A
HETATM   13  C1  UNL     1      69.444   7.487  10.394  1.00  0.00     0.049 C
HETATM   14  C3  UNL     1      70.891   5.686  11.153  1.00  0.00     0.007 A
HETATM   15  C4  UNL     1      71.966   5.207  11.871  1.00  0.00     0.001 A
HETATM   16  C5  UNL     1      72.764   6.054  12.629  1.00  0.00     0.001 A
HETATM   17  C6  UNL     1      72.451   7.403  12.646  1.00  0.00     0.007 A
ENDBRANCH  10  11
ENDBRANCH   9  10
ENDBRANCH   8   9
ENDBRANCH   7   8
ENDBRANCH   6   7
ENDBRANCH   5   6
ENDBRANCH   4   5
ENDBRANCH   3   4
ENDBRANCH   2   3
ENDBRANCH   1   2
BRANCH   1  18
HETATM   18  C15 UNL     1      77.982   6.482   6.922  1.00  0.00     0.148 C
BRANCH  18  19
HETATM   19  N1  UNL     1      77.570   5.168   7.334  1.00  0.00    -0.367 N
ATOM     20  H1  UNL     1      77.326   4.967   8.304  1.00  0.00     0.161 HD
BRANCH  19  21
HETATM   21  C16 UNL     1      77.519   4.236   6.408  1.00  0.00     0.176 A
HETATM   22  N2  UNL     1      77.888   2.955   6.491  1.00  0.00    -0.168 N
HETATM   23  C17 UNL     1      77.753   2.200   5.437  1.00  0.00     0.693 A
ATOM     24  H2  UNL     1      78.266   2.576   7.359  1.00  0.00     0.186 HD
HETATM   25  N6  UNL     1      77.250   2.758   4.326  1.00  0.00    -0.157 N
HETATM   26  S1  UNL     1      76.974   4.348   4.794  1.00  0.00     0.039 SA
ATOM     27  H6  UNL     1      77.076   2.323   3.420  1.00  0.00     0.193 HD
BRANCH  23  28
HETATM   28  N3  UNL     1      78.080   0.918   5.388  1.00  0.00    -0.163 N
HETATM   29  C18 UNL     1      77.439   0.029   6.258  1.00  0.00     0.200 C
HETATM   30  N4  UNL     1      76.356  -0.556   5.894  1.00  0.00    -0.373 N
HETATM   31  N5  UNL     1      77.974  -0.226   7.531  1.00  0.00    -0.063 NA
ATOM     32  H42 UNL     1      75.968  -0.370   4.970  1.00  0.00     0.158 HD
ATOM     33  H41 UNL     1      75.889  -1.204   6.529  1.00  0.00     0.158 HD
ATOM     34  H3  UNL     1      78.784   0.585   4.729  1.00  0.00     0.187 HD
ENDBRANCH  23  28
ENDBRANCH  19  21
ENDBRANCH  18  19
ENDBRANCH   1  18
TORSDOF 14
ENDMDL