MODEL 1
REMARK VINA RESULT: -6.642216100      0.000      0.000
REMARK  14 active torsions:
REMARK  status: ('A' for Active; 'I' for Inactive)
REMARK    1  A    between atoms: N1_1  and  C1_4
REMARK    2  A    between atoms: C5_10  and  C6_11
REMARK    3  A    between atoms: C7_12  and  C8_13
REMARK    4  A    between atoms: C13_18  and  N3_19
REMARK    5  A    between atoms: N3_19  and  C14_21
REMARK    6  A    between atoms: C14_21  and  C15_22
REMARK    7  A    between atoms: C15_22  and  O1_23
REMARK    8  A    between atoms: O1_23  and  C16_24
REMARK    9  A    between atoms: C16_24  and  C17_25
REMARK   10  A    between atoms: C17_25  and  O2_26
REMARK   11  A    between atoms: O2_26  and  C18_27
REMARK   12  A    between atoms: C18_27  and  C19_28
REMARK   13  A    between atoms: C19_28  and  N4_29
REMARK   14  A    between atoms: C21_31  and  N5_32
ROOT
HETATM    1  C8  UNL     1      71.710  11.492  12.413  1.00  0.00    -0.009 A
HETATM    2  C9  UNL     1      70.599  11.959  13.113  1.00  0.00     0.013 A
HETATM    3  C10 UNL     1      70.264  13.290  13.194  1.00  0.00     0.001 A
HETATM    4  C11 UNL     1      71.066  14.190  12.550  1.00  0.00     0.002 A
HETATM    5  C12 UNL     1      72.186  13.736  11.847  1.00  0.00     0.030 A
HETATM    6  C13 UNL     1      72.519  12.378  11.775  1.00  0.00     0.042 A
ENDROOT
BRANCH   6   7
HETATM    7  N3  UNL     1      73.767  11.972  11.253  1.00  0.00    -0.367 N
ATOM      8  H3  UNL     1      74.376  11.559  11.960  1.00  0.00     0.165 HD
BRANCH   7   9
HETATM    9  C14 UNL     1      74.360  12.007   9.982  1.00  0.00     0.087 C
BRANCH   9  10
HETATM   10  C15 UNL     1      74.233  10.864   9.037  1.00  0.00     0.212 C
BRANCH  10  11
HETATM   11  O1  UNL     1      72.868  10.554   8.832  1.00  0.00    -0.384 OA
BRANCH  11  12
HETATM   12  C16 UNL     1      72.614   9.232   8.645  1.00  0.00     0.194 C
BRANCH  12  13
HETATM   13  C17 UNL     1      73.674   8.375   9.242  1.00  0.00     0.193 C
BRANCH  13  14
HETATM   14  O2  UNL     1      73.870   7.192   8.475  1.00  0.00    -0.387 OA
BRANCH  14  15
HETATM   15  C18 UNL     1      74.487   7.572   7.318  1.00  0.00     0.198 C
BRANCH  15  16
HETATM   16  C19 UNL     1      75.897   7.094   7.171  1.00  0.00     0.298 C
BRANCH  16  17
HETATM   17  N4  UNL     1      76.153   6.226   6.101  1.00  0.00     0.094 N
HETATM   18  C20 UNL     1      75.087   5.688   5.328  1.00  0.00     0.306 C
HETATM   19  C21 UNL     1      75.631   4.291   5.657  1.00  0.00     0.239 C
HETATM   20  C22 UNL     1      76.808   4.981   6.338  1.00  0.00     0.306 C
BRANCH  19  21
HETATM   21  N5  UNL     1      76.006   3.524   4.485  1.00  0.00    -0.072 N
ATOM     22  H53 UNL     1      76.949   3.767   4.181  1.00  0.00     0.274 HD
ATOM     23  H52 UNL     1      76.152   2.544   4.727  1.00  0.00     0.274 HD
ATOM     24  H51 UNL     1      75.345   3.609   3.713  1.00  0.00     0.274 HD
ENDBRANCH  19  21
ENDBRANCH  16  17
ENDBRANCH  15  16
ENDBRANCH  14  15
ENDBRANCH  13  14
ENDBRANCH  12  13
ENDBRANCH  11  12
ENDBRANCH  10  11
ENDBRANCH   9  10
ENDBRANCH   7   9
ENDBRANCH   6   7
BRANCH   1  25
HETATM   25  C7  UNL     1      71.920  10.035  12.417  1.00  0.00     0.014 C
HETATM   26  C6  UNL     1      71.166   9.107  11.973  1.00  0.00     0.016 C
BRANCH  26  27
HETATM   27  C5  UNL     1      71.350   7.686  11.958  1.00  0.00     0.007 A
HETATM   28  C1  UNL     1      70.538   6.811  11.307  1.00  0.00     0.108 A
HETATM   29  N2  UNL     1      70.756   5.452  11.321  1.00  0.00    -0.352 N
HETATM   30  C2  UNL     1      71.800   4.961  11.999  1.00  0.00     0.089 A
ATOM     31  H2  UNL     1      70.127   4.824  10.820  1.00  0.00     0.166 HD
HETATM   32  C3  UNL     1      72.658   5.774  12.678  1.00  0.00     0.018 A
HETATM   33  C4  UNL     1      72.440   7.120  12.661  1.00  0.00     0.016 A
BRANCH  28  34
HETATM   34  N1  UNL     1      69.521   7.158  10.626  1.00  0.00    -0.385 N
ATOM     35  H12 UNL     1      68.794   6.512  10.320  1.00  0.00     0.157 HD
ATOM     36  H11 UNL     1      69.491   8.155  10.414  1.00  0.00     0.157 HD
ENDBRANCH  28  34
ENDBRANCH  26  27
ENDBRANCH   1  25
TORSDOF 14
ENDMDL