MODEL 2
REMARK VINA RESULT: -5.946187182      6.796      9.123
REMARK  16 active torsions:
REMARK  status: ('A' for Active; 'I' for Inactive)
REMARK    1  A    between atoms: C3_3  and  C4_4
REMARK    2  A    between atoms: C4_4  and  C5_5
REMARK    3  A    between atoms: C5_5  and  C6_6
REMARK    4  A    between atoms: C6_6  and  C7_7
REMARK    5  A    between atoms: C7_7  and  C8_8
REMARK    6  A    between atoms: C11_11  and  C12_12
REMARK    7  A    between atoms: C12_12  and  C13_13
REMARK    8  A    between atoms: C13_13  and  C14_14
REMARK    9  A    between atoms: C14_14  and  C15_15
REMARK   10  A    between atoms: C15_15  and  O1_16
REMARK   11  A    between atoms: O1_16  and  C16_17
REMARK   12  A    between atoms: C17_19  and  C18_20
REMARK   13  A    between atoms: C18_20  and  O3_21
REMARK   14  A    between atoms: C19_23  and  O4_24
REMARK   15  A    between atoms: C20_26  and  O5_27
REMARK   16  A    between atoms: C21_29  and  O6_30
ROOT
HETATM    1  C1  UNL     1      73.046   7.430  12.830  1.00  0.00     0.012 C
HETATM    2  C2  UNL     1      72.743   6.258  12.813  1.00  0.00    -0.117 C
HETATM    3  C3  UNL     1      72.368   4.828  12.809  1.00  0.00     0.093 C
ENDROOT
BRANCH   3   4
HETATM    4  C4  UNL     1      71.258   4.627  11.782  1.00  0.00     0.012 C
BRANCH   4   5
HETATM    5  C5  UNL     1      70.368   5.859  11.818  1.00  0.00     0.001 C
BRANCH   5   6
HETATM    6  C6  UNL     1      70.229   6.450  10.437  1.00  0.00     0.005 C
BRANCH   6   7
HETATM    7  C7  UNL     1      70.051   7.952  10.607  1.00  0.00     0.038 C
BRANCH   7   8
HETATM    8  C8  UNL     1      71.177   8.708  10.013  1.00  0.00    -0.058 A
HETATM    9  C9  UNL     1      72.249   8.045   9.462  1.00  0.00     0.007 A
HETATM   10  C10 UNL     1      73.271   8.808   8.923  1.00  0.00     0.007 A
HETATM   11  C11 UNL     1      73.297  10.175   8.894  1.00  0.00    -0.058 A
HETATM   12  C22 UNL     1      72.182  10.809   9.468  1.00  0.00     0.007 A
HETATM   13  C23 UNL     1      71.144  10.086  10.015  1.00  0.00     0.007 A
BRANCH  11  14
HETATM   14  C12 UNL     1      74.374  11.014   8.316  1.00  0.00     0.038 C
BRANCH  14  15
HETATM   15  C13 UNL     1      75.248  10.158   7.453  1.00  0.00     0.007 C
BRANCH  15  16
HETATM   16  C14 UNL     1      76.264  10.881   6.635  1.00  0.00     0.027 C
BRANCH  16  17
HETATM   17  C15 UNL     1      76.637  10.194   5.345  1.00  0.00     0.171 C
BRANCH  17  18
HETATM   18  O1  UNL     1      75.568   9.355   5.021  1.00  0.00    -0.359 OA
BRANCH  18  19
HETATM   19  C16 UNL     1      75.940   8.287   4.243  1.00  0.00     0.291 C
HETATM   20  O2  UNL     1      76.860   7.533   4.915  1.00  0.00    -0.348 OA
HETATM   21  C17 UNL     1      76.319   6.785   5.954  1.00  0.00     0.179 C
HETATM   22  C19 UNL     1      75.235   5.847   5.476  1.00  0.00     0.180 C
HETATM   23  C20 UNL     1      74.141   6.656   4.840  1.00  0.00     0.183 C
HETATM   24  C21 UNL     1      74.776   7.482   3.716  1.00  0.00     0.204 C
BRANCH  21  25
HETATM   25  C18 UNL     1      77.392   6.068   6.745  1.00  0.00     0.198 C
BRANCH  25  26
HETATM   26  O3  UNL     1      76.780   5.047   7.467  1.00  0.00    -0.398 OA
ATOM     27  H3  UNL     1      77.174   4.225   7.201  1.00  0.00     0.209 HD
ENDBRANCH  25  26
ENDBRANCH  21  25
BRANCH  22  28
HETATM   28  O4  UNL     1      75.683   4.885   4.605  1.00  0.00    -0.390 OA
ATOM     29  H4  UNL     1      75.061   4.671   3.920  1.00  0.00     0.210 HD
ENDBRANCH  22  28
BRANCH  23  30
HETATM   30  O5  UNL     1      73.618   7.512   5.813  1.00  0.00    -0.390 OA
ATOM     31  H5  UNL     1      73.310   8.298   5.378  1.00  0.00     0.210 HD
ENDBRANCH  23  30
BRANCH  24  32
HETATM   32  O6  UNL     1      75.237   6.598   2.744  1.00  0.00    -0.388 OA
ATOM     33  H6  UNL     1      74.743   5.789   2.802  1.00  0.00     0.210 HD
ENDBRANCH  24  32
ENDBRANCH  18  19
ENDBRANCH  17  18
ENDBRANCH  16  17
ENDBRANCH  15  16
ENDBRANCH  14  15
ENDBRANCH  11  14
ENDBRANCH   7   8
ENDBRANCH   6   7
ENDBRANCH   5   6
ENDBRANCH   4   5
ENDBRANCH   3   4
TORSDOF 16
ENDMDL