MODEL 4
REMARK VINA RESULT: -6.425813795      4.201      6.107
REMARK  12 active torsions:
REMARK  status: ('A' for Active; 'I' for Inactive)
REMARK    1  A    between atoms: C1_4  and  C2_6
REMARK    2  A    between atoms: N3_8  and  C4_9
REMARK    3  A    between atoms: C4_9  and  C5_10
REMARK    4  A    between atoms: C5_10  and  C6_11
REMARK    5  A    between atoms: C6_11  and  C7_12
REMARK    6  A    between atoms: C7_12  and  C8_13
REMARK    7  A    between atoms: C8_13  and  C9_14
REMARK    8  A    between atoms: C9_14  and  C10_15
REMARK    9  A    between atoms: C10_15  and  C11_16
REMARK   10  A    between atoms: C11_16  and  N4_17
REMARK   11  A    between atoms: C14_20  and  C15_21
REMARK   12  A    between atoms: N8_33  and  N9_34
ROOT
HETATM    1  C8  UNL     1      69.399  15.235  10.405  1.00  0.00     0.000 C
ENDROOT
BRANCH   1   2
HETATM    2  C7  UNL     1      68.834  16.606  10.453  1.00  0.00     0.000 C
BRANCH   2   3
HETATM    3  C6  UNL     1      69.141  17.356  11.718  1.00  0.00     0.002 C
BRANCH   3   4
HETATM    4  C5  UNL     1      68.238  17.001  12.856  1.00  0.00     0.020 C
BRANCH   4   5
HETATM    5  C4  UNL     1      68.323  17.995  13.962  1.00  0.00     0.129 C
BRANCH   5   6
HETATM    6  N3  UNL     1      68.090  17.445  15.280  1.00  0.00    -0.349 N
HETATM    7  C3  UNL     1      68.915  16.577  15.882  1.00  0.00     0.127 A
HETATM    8  C2  UNL     1      68.427  16.227  17.143  1.00  0.00     0.113 A
HETATM    9  N8  UNL     1      67.276  16.915  17.284  1.00  0.00    -0.254 N
HETATM   10  C21 UNL     1      67.100  17.645  16.136  1.00  0.00     0.209 A
BRANCH   8  11
HETATM   11  C1  UNL     1      69.065  15.299  18.088  1.00  0.00     0.140 C
HETATM   12  N1  UNL     1      70.297  15.028  18.129  1.00  0.00    -0.386 N
ATOM     13  H12 UNL     1      70.740  14.384  18.785  1.00  0.00     0.157 HD
ATOM     14  H11 UNL     1      70.904  15.488  17.452  1.00  0.00     0.157 HD
HETATM   15  N2  UNL     1      68.214  14.653  19.037  1.00  0.00    -0.081 NA
ENDBRANCH   8  11
BRANCH   9  16
HETATM   16  N9  UNL     1      66.413  16.903  18.378  1.00  0.00    -0.337 N
ATOM     17  H92 UNL     1      65.481  16.488  18.395  1.00  0.00     0.177 HD
ATOM     18  H91 UNL     1      66.581  17.299  19.303  1.00  0.00     0.177 HD
ENDBRANCH   9  16
ENDBRANCH   5   6
ENDBRANCH   4   5
ENDBRANCH   3   4
ENDBRANCH   2   3
ENDBRANCH   1   2
BRANCH   1  19
HETATM   19  C9  UNL     1      70.835  15.181  10.950  1.00  0.00     0.002 C
BRANCH  19  20
HETATM   20  C10 UNL     1      71.021  13.996  11.826  1.00  0.00     0.022 C
BRANCH  20  21
HETATM   21  C11 UNL     1      72.328  13.329  11.571  1.00  0.00     0.148 C
BRANCH  21  22
HETATM   22  N4  UNL     1      72.190  11.903  11.595  1.00  0.00    -0.304 N
HETATM   23  C12 UNL     1      72.595  11.169  10.558  1.00  0.00     0.111 A
HETATM   24  C13 UNL     1      72.453   9.776  10.599  1.00  0.00     0.032 A
HETATM   25  C14 UNL     1      71.897   9.178  11.704  1.00  0.00    -0.004 A
HETATM   26  C20 UNL     1      71.495   9.995  12.752  1.00  0.00     0.119 A
HETATM   27  N7  UNL     1      71.660  11.323  12.649  1.00  0.00    -0.309 N
ATOM     28  H7  UNL     1      71.359  11.910  13.426  1.00  0.00     0.186 HD
BRANCH  25  29
HETATM   29  C15 UNL     1      71.702   7.741  11.840  1.00  0.00     0.017 A
HETATM   30  C16 UNL     1      72.609   6.993  12.579  1.00  0.00     0.017 A
HETATM   31  C17 UNL     1      72.464   5.635  12.727  1.00  0.00     0.018 A
HETATM   32  C18 UNL     1      71.382   5.033  12.116  1.00  0.00     0.089 A
HETATM   33  N5  UNL     1      70.515   5.765  11.407  1.00  0.00    -0.354 N
HETATM   34  C19 UNL     1      70.642   7.100  11.251  1.00  0.00     0.127 A
ATOM     35  H5  UNL     1      69.725   5.295  10.966  1.00  0.00     0.166 HD
HETATM   36  N6  UNL     1      69.697   7.829  10.497  1.00  0.00    -0.082 NA
ENDBRANCH  25  29
ENDBRANCH  21  22
ENDBRANCH  20  21
ENDBRANCH  19  20
ENDBRANCH   1  19
TORSDOF 12
ENDMDL