MODEL 4
REMARK VINA RESULT: -7.273906317      4.294     10.318
REMARK  15 active torsions:
REMARK  status: ('A' for Active; 'I' for Inactive)
REMARK    1  A    between atoms: N1_2  and  C2_5
REMARK    2  A    between atoms: C2_5  and  C3_6
REMARK    3  A    between atoms: C3_6  and  C4_7
REMARK    4  A    between atoms: C4_7  and  N2_8
REMARK    5  A    between atoms: C7_13  and  N4_14
REMARK    6  A    between atoms: N4_14  and  C8_16
REMARK    7  A    between atoms: C8_16  and  C9_17
REMARK    8  A    between atoms: C9_17  and  C10_18
REMARK    9  A    between atoms: C10_18  and  C11_19
REMARK   10  A    between atoms: C11_19  and  C12_20
REMARK   11  A    between atoms: C12_20  and  C13_21
REMARK   12  A    between atoms: C19_29  and  N6_30
REMARK   13  A    between atoms: N6_30  and  C20_32
REMARK   14  A    between atoms: C20_32  and  C21_33
REMARK   15  A    between atoms: C21_33  and  O1_34
ROOT
HETATM    1  N2  UNL     1      73.094   8.606   8.764  1.00  0.00    -0.327 N
HETATM    2  C5  UNL     1      72.982   9.940   8.781  1.00  0.00     0.185 A
HETATM    3  N3  UNL     1      72.124  10.319   9.756  1.00  0.00    -0.346 N
ATOM      4  H3  UNL     1      71.863  11.280   9.979  1.00  0.00     0.167 HD
HETATM    5  C6  UNL     1      71.678   9.232  10.374  1.00  0.00     0.123 A
HETATM    6  C7  UNL     1      70.799   9.044  11.426  1.00  0.00     0.147 A
HETATM    7  N5  UNL     1      70.570   7.775  11.807  1.00  0.00    -0.175 N
ATOM      8  H5  UNL     1      69.927   7.601  12.580  1.00  0.00     0.186 HD
HETATM    9  C19 UNL     1      71.167   6.715  11.196  1.00  0.00     0.681 A
HETATM   10  N7  UNL     1      72.034   6.899  10.158  1.00  0.00    -0.174 N
ATOM     11  H7  UNL     1      72.479   6.100   9.704  1.00  0.00     0.186 HD
HETATM   12  C22 UNL     1      72.291   8.145   9.748  1.00  0.00     0.155 A
ENDROOT
BRANCH   6  13
HETATM   13  N4  UNL     1      70.256  10.047  11.978  1.00  0.00    -0.374 N
ATOM     14  H4  UNL     1      69.294  10.264  11.714  1.00  0.00     0.161 HD
BRANCH  13  15
HETATM   15  C8  UNL     1      70.888  10.908  12.947  1.00  0.00     0.121 C
BRANCH  15  16
HETATM   16  C9  UNL     1      70.193  12.249  13.052  1.00  0.00     0.020 C
BRANCH  16  17
HETATM   17  C10 UNL     1      69.176  12.305  14.154  1.00  0.00     0.002 C
BRANCH  17  18
HETATM   18  C11 UNL     1      68.946  13.685  14.677  1.00  0.00     0.005 C
BRANCH  18  19
HETATM   19  C12 UNL     1      70.240  14.190  15.319  1.00  0.00     0.038 C
BRANCH  19  20
HETATM   20  C13 UNL     1      69.977  14.595  16.711  1.00  0.00    -0.058 A
HETATM   21  C14 UNL     1      71.033  14.972  17.541  1.00  0.00     0.007 A
HETATM   22  C15 UNL     1      70.741  15.344  18.838  1.00  0.00     0.001 A
HETATM   23  C16 UNL     1      69.462  15.356  19.335  1.00  0.00     0.000 A
HETATM   24  C17 UNL     1      68.424  14.987  18.523  1.00  0.00     0.001 A
HETATM   25  C18 UNL     1      68.695  14.607  17.207  1.00  0.00     0.007 A
ENDBRANCH  19  20
ENDBRANCH  18  19
ENDBRANCH  17  18
ENDBRANCH  16  17
ENDBRANCH  15  16
ENDBRANCH  13  15
ENDBRANCH   6  13
BRANCH   9  26
HETATM   26  N6  UNL     1      70.961   5.513  11.540  1.00  0.00    -0.224 N
ATOM     27  H6  UNL     1      70.076   5.103  11.240  1.00  0.00     0.177 HD
BRANCH  26  28
HETATM   28  C20 UNL     1      71.832   4.663  12.303  1.00  0.00     0.164 C
BRANCH  28  29
HETATM   29  C21 UNL     1      72.815   5.464  13.136  1.00  0.00     0.184 C
BRANCH  29  30
HETATM   30  O1  UNL     1      73.261   4.735  14.231  1.00  0.00    -0.399 OA
ATOM     31  H1  UNL     1      72.534   4.398  14.741  1.00  0.00     0.209 HD
ENDBRANCH  29  30
ENDBRANCH  28  29
ENDBRANCH  26  28
ENDBRANCH   9  26
BRANCH   1  32
HETATM   32  C4  UNL     1      73.928   7.840   7.856  1.00  0.00     0.133 C
BRANCH  32  33
HETATM   33  C3  UNL     1      75.352   8.371   8.079  1.00  0.00     0.048 C
BRANCH  33  34
HETATM   34  C2  UNL     1      76.092   8.492   6.789  1.00  0.00     0.233 C
BRANCH  34  35
HETATM   35  N1  UNL     1      75.146   8.624   5.703  1.00  0.00    -0.079 N
HETATM   36  C1  UNL     1      75.653   8.233   4.426  1.00  0.00     0.266 C
ATOM     37  H12 UNL     1      74.781   9.576   5.664  1.00  0.00     0.276 HD
ATOM     38  H11 UNL     1      74.288   8.116   5.916  1.00  0.00     0.276 HD
ENDBRANCH  34  35
ENDBRANCH  33  34
ENDBRANCH  32  33
ENDBRANCH   1  32
TORSDOF 15
ENDMDL