MODEL 2
REMARK VINA RESULT: -6.968546183      4.319      7.034
REMARK  16 active torsions:
REMARK  status: ('A' for Active; 'I' for Inactive)
REMARK    1  A    between atoms: C5_6  and  C6_7
REMARK    2  A    between atoms: C6_7  and  C7_8
REMARK    3  A    between atoms: C7_8  and  C8_9
REMARK    4  A    between atoms: C8_9  and  C9_10
REMARK    5  A    between atoms: C9_10  and  C10_11
REMARK    6  A    between atoms: C10_11  and  C11_12
REMARK    7  A    between atoms: C11_12  and  C12_13
REMARK    8  A    between atoms: C12_13  and  C13_14
REMARK    9  A    between atoms: C13_14  and  C14_15
REMARK   10  A    between atoms: C14_15  and  C15_16
REMARK   11  A    between atoms: C15_16  and  N1_17
REMARK   12  A    between atoms: C17_19  and  O2_20
REMARK   13  A    between atoms: C18_22  and  O3_23
REMARK   14  A    between atoms: C19_25  and  O4_26
REMARK   15  A    between atoms: C20_28  and  C21_29
REMARK   16  A    between atoms: C21_29  and  O5_30
ROOT
HETATM    1  C14 UNL     1      73.033   8.421   8.977  1.00  0.00     0.030 C
ENDROOT
BRANCH   1   2
HETATM    2  C13 UNL     1      72.741   9.881   9.208  1.00  0.00     0.002 C
BRANCH   2   3
HETATM    3  C12 UNL     1      73.760  10.768   8.577  1.00  0.00     0.000 C
BRANCH   3   4
HETATM    4  C11 UNL     1      75.066  10.096   8.260  1.00  0.00     0.000 C
BRANCH   4   5
HETATM    5  C10 UNL     1      76.233  10.707   8.980  1.00  0.00     0.000 C
BRANCH   5   6
HETATM    6  C9  UNL     1      76.010  12.124   9.395  1.00  0.00     0.000 C
BRANCH   6   7
HETATM    7  C8  UNL     1      76.528  12.463  10.750  1.00  0.00     0.000 C
BRANCH   7   8
HETATM    8  C7  UNL     1      75.438  12.946  11.650  1.00  0.00     0.005 C
BRANCH   8   9
HETATM    9  C6  UNL     1      74.261  13.563  10.974  1.00  0.00     0.038 C
BRANCH   9  10
HETATM   10  C5  UNL     1      72.999  13.189  11.640  1.00  0.00    -0.058 C
HETATM   11  C4  UNL     1      71.909  14.023  11.600  1.00  0.00     0.007 C
HETATM   12  C3  UNL     1      70.800  14.081  12.409  1.00  0.00     0.004 C
HETATM   13  C2  UNL     1      70.269  12.972  13.075  1.00  0.00     0.055 C
HETATM   14  C1  UNL     1      70.704  11.657  13.123  1.00  0.00     0.171 C
HETATM   15  O1  UNL     1      69.895  10.767  13.487  1.00  0.00    -0.289 OA
HETATM   16  C23 UNL     1      71.992  11.242  12.794  1.00  0.00     0.055 C
HETATM   17  C22 UNL     1      73.046  11.954  12.283  1.00  0.00     0.011 C
ENDBRANCH   9  10
ENDBRANCH   8   9
ENDBRANCH   7   8
ENDBRANCH   6   7
ENDBRANCH   5   6
ENDBRANCH   4   5
ENDBRANCH   3   4
ENDBRANCH   2   3
ENDBRANCH   1   2
BRANCH   1  18
HETATM   18  C15 UNL     1      73.131   7.690  10.269  1.00  0.00     0.273 C
BRANCH  18  19
HETATM   19  N1  UNL     1      71.933   7.810  11.073  1.00  0.00     0.100 N
HETATM   20  C16 UNL     1      72.321   7.376  12.408  1.00  0.00     0.307 C
HETATM   21  C17 UNL     1      72.745   5.937  12.401  1.00  0.00     0.177 C
HETATM   22  C18 UNL     1      71.769   5.058  11.643  1.00  0.00     0.179 C
HETATM   23  C19 UNL     1      70.502   5.807  11.354  1.00  0.00     0.184 C
HETATM   24  C20 UNL     1      70.813   7.068  10.574  1.00  0.00     0.277 C
BRANCH  21  25
HETATM   25  O2  UNL     1      72.812   5.548  13.752  1.00  0.00    -0.391 OA
ATOM     26  H2  UNL     1      72.673   4.608  13.759  1.00  0.00     0.210 HD
ENDBRANCH  21  25
BRANCH  22  27
HETATM   27  O3  UNL     1      71.409   3.927  12.400  1.00  0.00    -0.390 OA
ATOM     28  H3  UNL     1      71.415   4.120  13.330  1.00  0.00     0.210 HD
ENDBRANCH  22  27
BRANCH  23  29
HETATM   29  O4  UNL     1      69.820   6.053  12.526  1.00  0.00    -0.391 OA
ATOM     30  H4  UNL     1      68.884   6.052  12.366  1.00  0.00     0.210 HD
ENDBRANCH  23  29
BRANCH  24  31
HETATM   31  C21 UNL     1      69.531   7.874  10.482  1.00  0.00     0.202 C
BRANCH  31  32
HETATM   32  O5  UNL     1      69.709   9.198  10.837  1.00  0.00    -0.399 OA
ATOM     33  H5  UNL     1      69.580   9.348  11.767  1.00  0.00     0.209 HD
ENDBRANCH  31  32
ENDBRANCH  24  31
ENDBRANCH  18  19
ENDBRANCH   1  18
TORSDOF 16
ENDMDL