MODEL 1
REMARK VINA RESULT: -5.829494044      0.000      0.000
REMARK  7 active torsions:
REMARK  status: ('A' for Active; 'I' for Inactive)
REMARK    1  A    between atoms: N1_1  and  C1_4
REMARK    2  A    between atoms: C3_9  and  C4_10
REMARK    3  A    between atoms: C4_10  and  O1_11
REMARK    4  A    between atoms: O1_11  and  C5_12
REMARK    5  A    between atoms: C5_12  and  C6_13
REMARK    6  A    between atoms: C6_13  and  C7_14
REMARK    7  A    between atoms: C7_14  and  N4_15
ROOT
HETATM    1  C1  UNL     1      35.050  42.267  -6.306  1.00  0.00     0.678 A
HETATM    2  N2  UNL     1      34.056  43.007  -6.788  1.00  0.00    -0.178 N
ATOM      3  H2  UNL     1      33.707  43.767  -6.204  1.00  0.00     0.185 HD
HETATM    4  C2  UNL     1      33.484  42.830  -7.977  1.00  0.00     0.144 A
HETATM    5  N3  UNL     1      32.422  43.637  -8.467  1.00  0.00    -0.081 NA
HETATM    6  C3  UNL     1      33.937  41.798  -8.806  1.00  0.00     0.051 A
HETATM    7  C8  UNL     1      34.953  41.030  -8.336  1.00  0.00     0.126 A
HETATM    8  N5  UNL     1      35.523  40.098  -9.003  1.00  0.00    -0.384 N
ATOM      9  H51 UNL     1      36.287  39.521  -8.649  1.00  0.00     0.157 HD
ATOM     10  H52 UNL     1      35.124  39.915  -9.924  1.00  0.00     0.157 HD
HETATM   11  N6  UNL     1      35.490  41.276  -7.099  1.00  0.00    -0.177 N
ATOM     12  H6  UNL     1      36.252  40.685  -6.767  1.00  0.00     0.186 HD
ENDROOT
BRANCH   6  13
HETATM   13  C4  UNL     1      33.336  41.691 -10.138  1.00  0.00     0.213 C
BRANCH  13  14
HETATM   14  O1  UNL     1      34.002  42.118 -11.222  1.00  0.00    -0.386 OA
BRANCH  14  15
HETATM   15  C5  UNL     1      33.266  42.910 -12.082  1.00  0.00     0.169 C
BRANCH  15  16
HETATM   16  C6  UNL     1      33.575  44.372 -11.746  1.00  0.00     0.053 C
BRANCH  16  17
HETATM   17  C7  UNL     1      32.253  45.135 -11.717  1.00  0.00     0.231 C
BRANCH  17  18
HETATM   18  N4  UNL     1      32.403  46.459 -12.270  1.00  0.00    -0.079 N
ATOM     19  H43 UNL     1      33.263  46.905 -11.949  1.00  0.00     0.274 HD
ATOM     20  H42 UNL     1      32.606  46.426 -13.269  1.00  0.00     0.274 HD
ATOM     21  H41 UNL     1      31.585  47.035 -12.072  1.00  0.00     0.274 HD
ENDBRANCH  17  18
ENDBRANCH  16  17
ENDBRANCH  15  16
ENDBRANCH  14  15
ENDBRANCH  13  14
ENDBRANCH   6  13
BRANCH   1  22
HETATM   22  N1  UNL     1      35.587  42.468  -5.136  1.00  0.00    -0.234 N
ATOM     23  H12 UNL     1      35.347  43.297  -4.590  1.00  0.00     0.174 HD
ATOM     24  H11 UNL     1      36.258  41.828  -4.711  1.00  0.00     0.174 HD
ENDBRANCH   1  22
TORSDOF 7
ENDMDL