MODEL 5
REMARK VINA RESULT: -6.046803526      3.222      6.942
REMARK  8 active torsions:
REMARK  status: ('A' for Active; 'I' for Inactive)
REMARK    1  A    between atoms: C2_2  and  O1_3
REMARK    2  A    between atoms: O1_3  and  C3_4
REMARK    3  A    between atoms: C3_4  and  C4_5
REMARK    4  A    between atoms: C4_5  and  O2_6
REMARK    5  A    between atoms: O2_6  and  N1_7
REMARK    6  A    between atoms: N1_7  and  C5_9
REMARK    7  A    between atoms: C6_12  and  N3_13
REMARK    8  A    between atoms: C7_18  and  N5_19
ROOT
HETATM    1  C5  UNL     1      36.857  42.325  -3.587  1.00  0.00     0.731 A
HETATM    2  N2  UNL     1      36.768  41.206  -2.827  1.00  0.00    -0.020 N
ATOM      3  H2  UNL     1      36.736  40.289  -3.274  1.00  0.00     0.203 HD
HETATM    4  C6  UNL     1      36.723  41.298  -1.484  1.00  0.00     0.705 A
HETATM    5  N4  UNL     1      36.765  42.517  -0.885  1.00  0.00    -0.022 N
ATOM      6  H4  UNL     1      36.730  42.585   0.132  1.00  0.00     0.203 HD
HETATM    7  C7  UNL     1      36.852  43.635  -1.627  1.00  0.00     0.705 A
HETATM    8  N6  UNL     1      36.896  43.508  -2.965  1.00  0.00    -0.020 N
ATOM      9  H6  UNL     1      36.962  44.353  -3.531  1.00  0.00     0.203 HD
ENDROOT
BRANCH   1  10
HETATM   10  N1  UNL     1      36.900  42.239  -4.872  1.00  0.00    -0.095 N
ATOM     11  H1  UNL     1      37.506  41.556  -5.327  1.00  0.00     0.213 HD
BRANCH  10  12
HETATM   12  O2  UNL     1      36.122  43.076  -5.611  1.00  0.00    -0.264 OA
BRANCH  12  13
HETATM   13  C4  UNL     1      34.925  42.692  -6.258  1.00  0.00     0.228 C
BRANCH  13  14
HETATM   14  C3  UNL     1      35.340  42.067  -7.592  1.00  0.00     0.196 C
BRANCH  14  15
HETATM   15  O1  UNL     1      35.127  43.021  -8.562  1.00  0.00    -0.389 OA
BRANCH  15  16
HETATM   16  C2  UNL     1      33.977  42.822  -9.292  1.00  0.00     0.163 C
HETATM   17  C1  UNL     1      33.883  43.712 -10.514  1.00  0.00     0.033 C
ENDBRANCH  15  16
ENDBRANCH  14  15
ENDBRANCH  13  14
ENDBRANCH  12  13
ENDBRANCH  10  12
ENDBRANCH   1  10
BRANCH   4  18
HETATM   18  N3  UNL     1      36.638  40.228  -0.750  1.00  0.00    -0.234 N
ATOM     19  H32 UNL     1      37.466  39.890  -0.259  1.00  0.00     0.174 HD
ATOM     20  H31 UNL     1      35.753  39.729  -0.661  1.00  0.00     0.174 HD
ENDBRANCH   4  18
BRANCH   7  21
HETATM   21  N5  UNL     1      36.897  44.821  -1.126  1.00  0.00    -0.234 N
ATOM     22  H52 UNL     1      37.332  45.561  -1.678  1.00  0.00     0.174 HD
ATOM     23  H51 UNL     1      36.521  45.060  -0.209  1.00  0.00     0.174 HD
ENDBRANCH   7  21
TORSDOF 8
ENDMDL