MODEL 1
REMARK VINA RESULT: -6.203080968      0.000      0.000
REMARK  8 active torsions:
REMARK  status: ('A' for Active; 'I' for Inactive)
REMARK    1  A    between atoms: N1_1  and  C1_4
REMARK    2  A    between atoms: C3_6  and  C4_7
REMARK    3  A    between atoms: C4_7  and  C5_8
REMARK    4  A    between atoms: C5_8  and  O1_9
REMARK    5  A    between atoms: O1_9  and  N2_10
REMARK    6  A    between atoms: C6_12  and  C7_13
REMARK    7  A    between atoms: C7_13  and  N3_14
REMARK    8  A    between atoms: C8_20  and  N5_21
ROOT
HETATM    1  C1  UNL     1      32.860  45.669 -12.404  1.00  0.00     0.116 A
HETATM    2  C2  UNL     1      33.542  44.706 -11.687  1.00  0.00     0.074 A
HETATM    3  C3  UNL     1      32.949  43.498 -11.365  1.00  0.00     0.032 A
HETATM    4  N4  UNL     1      31.684  43.317 -11.786  1.00  0.00    -0.196 N
ATOM      5  H4  UNL     1      31.211  42.440 -11.569  1.00  0.00     0.184 HD
HETATM    6  C8  UNL     1      31.019  44.267 -12.490  1.00  0.00     0.677 A
HETATM    7  N6  UNL     1      31.595  45.450 -12.807  1.00  0.00    -0.177 N
ATOM      8  H6  UNL     1      31.084  46.155 -13.337  1.00  0.00     0.185 HD
ENDROOT
BRANCH   3   9
HETATM    9  C4  UNL     1      33.658  42.446 -10.596  1.00  0.00     0.086 C
BRANCH   9  10
HETATM   10  C5  UNL     1      33.692  42.735  -9.118  1.00  0.00     0.207 C
BRANCH  10  11
HETATM   11  O1  UNL     1      35.064  43.007  -8.799  1.00  0.00    -0.281 OA
BRANCH  11  12
HETATM   12  N2  UNL     1      35.724  42.334  -7.800  1.00  0.00    -0.280 N
HETATM   13  C6  UNL     1      35.207  42.171  -6.634  1.00  0.00     0.114 C
ATOM     14  H2  UNL     1      36.651  41.952  -7.988  1.00  0.00     0.193 HD
BRANCH  13  15
HETATM   15  C7  UNL     1      35.929  41.437  -5.547  1.00  0.00     0.276 C
BRANCH  15  16
HETATM   16  N3  UNL     1      35.601  42.072  -4.287  1.00  0.00    -0.075 N
ATOM     17  H33 UNL     1      35.003  42.891  -4.401  1.00  0.00     0.274 HD
ATOM     18  H32 UNL     1      34.962  41.516  -3.718  1.00  0.00     0.274 HD
ATOM     19  H31 UNL     1      36.475  42.284  -3.806  1.00  0.00     0.274 HD
ENDBRANCH  15  16
ENDBRANCH  13  15
ENDBRANCH  11  12
ENDBRANCH  10  11
ENDBRANCH   9  10
ENDBRANCH   3   9
BRANCH   1  20
HETATM   20  N1  UNL     1      33.399  46.792 -12.708  1.00  0.00    -0.385 N
ATOM     21  H12 UNL     1      33.017  47.634 -12.278  1.00  0.00     0.157 HD
ATOM     22  H11 UNL     1      34.183  46.852 -13.357  1.00  0.00     0.157 HD
ENDBRANCH   1  20
BRANCH   6  23
HETATM   23  N5  UNL     1      29.802  44.098 -12.898  1.00  0.00    -0.234 N
ATOM     24  H52 UNL     1      29.614  44.348 -13.869  1.00  0.00     0.174 HD
ATOM     25  H51 UNL     1      29.069  43.737 -12.287  1.00  0.00     0.174 HD
ENDBRANCH   6  23
TORSDOF 8
ENDMDL