MODEL 5
REMARK VINA RESULT: -5.747456999      1.548      2.699
REMARK  6 active torsions:
REMARK  status: ('A' for Active; 'I' for Inactive)
REMARK    1  A    between atoms: N1_1  and  C1_4
REMARK    2  A    between atoms: N3_9  and  C4_10
REMARK    3  A    between atoms: C4_10  and  C5_11
REMARK    4  A    between atoms: C5_11  and  C6_12
REMARK    5  A    between atoms: C6_12  and  N4_13
REMARK    6  A    between atoms: N4_13  and  C7_15
ROOT
HETATM    1  C5  UNL     1      35.841  41.451  -1.851  1.00  0.00     0.040 C
ENDROOT
BRANCH   1   2
HETATM    2  C4  UNL     1      35.796  42.691  -1.021  1.00  0.00     0.148 C
BRANCH   2   3
HETATM    3  N3  UNL     1      36.903  42.899  -0.150  1.00  0.00    -0.192 N
HETATM    4  C1  UNL     1      37.887  43.839  -0.189  1.00  0.00     0.677 A
HETATM    5  N2  UNL     1      38.716  43.638   0.849  1.00  0.00    -0.201 N
HETATM    6  C2  UNL     1      38.308  42.590   1.573  1.00  0.00     0.124 A
ATOM      7  H2  UNL     1      39.539  44.203   1.054  1.00  0.00     0.183 HD
HETATM    8  C3  UNL     1      37.169  42.137   0.934  1.00  0.00     0.126 A
BRANCH   4   9
HETATM    9  N1  UNL     1      37.939  44.734  -1.103  1.00  0.00    -0.234 N
ATOM     10  H12 UNL     1      38.655  45.460  -1.112  1.00  0.00     0.174 HD
ATOM     11  H11 UNL     1      37.329  44.866  -1.909  1.00  0.00     0.174 HD
ENDBRANCH   4   9
ENDBRANCH   2   3
ENDBRANCH   1   2
BRANCH   1  12
HETATM   12  C6  UNL     1      36.817  41.676  -2.985  1.00  0.00     0.124 C
BRANCH  12  13
HETATM   13  N4  UNL     1      36.322  42.586  -3.974  1.00  0.00    -0.362 N
ATOM     14  H4  UNL     1      36.513  43.583  -3.870  1.00  0.00     0.162 HD
BRANCH  13  15
HETATM   15  C7  UNL     1      35.568  42.135  -5.105  1.00  0.00     0.171 C
HETATM   16  N5  UNL     1      35.559  40.882  -5.445  1.00  0.00    -0.361 N
HETATM   17  C8  UNL     1      34.742  40.646  -6.603  1.00  0.00     0.142 C
ATOM     18  H5  UNL     1      36.071  40.153  -4.949  1.00  0.00     0.162 HD
HETATM   19  C9  UNL     1      34.315  42.001  -7.071  1.00  0.00     0.142 C
HETATM   20  N6  UNL     1      34.760  42.888  -5.992  1.00  0.00    -0.361 N
ATOM     21  H6  UNL     1      34.527  43.876  -5.896  1.00  0.00     0.162 HD
ENDBRANCH  13  15
ENDBRANCH  12  13
ENDBRANCH   1  12
TORSDOF 6
ENDMDL