MODEL 1
REMARK VINA RESULT: -5.922083489      0.000      0.000
REMARK  7 active torsions:
REMARK  status: ('A' for Active; 'I' for Inactive)
REMARK    1  A    between atoms: N2_3  and  C2_4
REMARK    2  A    between atoms: N2_3  and  C5_9
REMARK    3  A    between atoms: C2_4  and  C3_5
REMARK    4  A    between atoms: C3_5  and  C4_6
REMARK    5  A    between atoms: C4_6  and  O1_7
REMARK    6  A    between atoms: C7_11  and  N3_12
REMARK    7  A    between atoms: C8_17  and  N5_18
ROOT
HETATM    1  N1  UNL     1      33.136  40.096 -10.857  1.00  0.00    -0.172 NA
HETATM    2  C1  UNL     1      33.318  41.217 -10.647  1.00  0.00     0.185 C
HETATM    3  N2  UNL     1      33.521  42.591 -10.394  1.00  0.00    -0.270 N
ENDROOT
BRANCH   3   4
HETATM    4  C2  UNL     1      34.352  42.933  -9.289  1.00  0.00     0.144 C
BRANCH   4   5
HETATM    5  C3  UNL     1      33.785  42.486  -7.959  1.00  0.00     0.047 C
BRANCH   5   6
HETATM    6  C4  UNL     1      34.925  42.325  -6.992  1.00  0.00     0.165 C
BRANCH   6   7
HETATM    7  O1  UNL     1      36.155  42.650  -7.568  1.00  0.00    -0.401 OA
ATOM      8  H1  UNL     1      36.190  42.425  -8.490  1.00  0.00     0.209 HD
ENDBRANCH   6   7
ENDBRANCH   5   6
ENDBRANCH   4   5
ENDBRANCH   3   4
BRANCH   3   9
HETATM    9  C5  UNL     1      32.915  43.569 -11.215  1.00  0.00     0.135 A
HETATM   10  C6  UNL     1      33.475  44.759 -11.604  1.00  0.00     0.098 A
HETATM   11  C7  UNL     1      32.808  45.677 -12.417  1.00  0.00     0.118 A
HETATM   12  N4  UNL     1      31.573  45.413 -12.848  1.00  0.00    -0.177 N
HETATM   13  C8  UNL     1      31.003  44.247 -12.477  1.00  0.00     0.679 A
ATOM     14  H4  UNL     1      31.074  46.074 -13.442  1.00  0.00     0.185 HD
HETATM   15  N6  UNL     1      31.647  43.373 -11.699  1.00  0.00    -0.176 N
ATOM     16  H6  UNL     1      31.167  42.508 -11.449  1.00  0.00     0.186 HD
BRANCH  11  17
HETATM   17  N3  UNL     1      33.395  46.776 -12.744  1.00  0.00    -0.385 N
ATOM     18  H32 UNL     1      33.331  47.597 -12.142  1.00  0.00     0.157 HD
ATOM     19  H31 UNL     1      33.925  46.821 -13.614  1.00  0.00     0.157 HD
ENDBRANCH  11  17
BRANCH  13  20
HETATM   20  N5  UNL     1      29.788  44.009 -12.913  1.00  0.00    -0.234 N
ATOM     21  H52 UNL     1      29.553  44.086 -13.903  1.00  0.00     0.174 HD
ATOM     22  H51 UNL     1      29.088  43.744 -12.220  1.00  0.00     0.174 HD
ENDBRANCH  13  20
ENDBRANCH   3   9
TORSDOF 7
ENDMDL