MODEL 1
REMARK VINA RESULT: -6.451367686      0.000      0.000
REMARK  6 active torsions:
REMARK  status: ('A' for Active; 'I' for Inactive)
REMARK    1  A    between atoms: N3_9  and  C4_10
REMARK    2  A    between atoms: C4_10  and  C5_11
REMARK    3  A    between atoms: C5_11  and  C6_12
REMARK    4  A    between atoms: C6_12  and  C7_13
REMARK    5  A    between atoms: C7_13  and  C8_14
REMARK    6  A    between atoms: C8_14  and  N4_15
ROOT
HETATM    1  N1  UNL     1      36.654  40.297  -4.828  1.00  0.00    -0.234 N
ATOM      2  H11 UNL     1      36.762  40.856  -3.982  1.00  0.00     0.174 HD
ATOM      3  H12 UNL     1      37.053  39.404  -5.119  1.00  0.00     0.174 HD
HETATM    4  C1  UNL     1      35.874  40.799  -5.696  1.00  0.00     0.687 C
HETATM    5  N2  UNL     1      35.723  40.011  -6.888  1.00  0.00    -0.224 N
ATOM      6  H2  UNL     1      35.881  39.020  -6.705  1.00  0.00     0.177 HD
HETATM    7  C2  UNL     1      35.409  40.248  -8.270  1.00  0.00     0.159 C
HETATM    8  C3  UNL     1      34.034  40.792  -8.501  1.00  0.00     0.164 C
HETATM    9  N3  UNL     1      33.888  42.201  -8.225  1.00  0.00    -0.311 N
HETATM   10  N5  UNL     1      33.895  42.956  -7.072  1.00  0.00    -0.230 N
ATOM     11  H5  UNL     1      33.292  43.770  -7.184  1.00  0.00     0.209 HD
HETATM   12  N6  UNL     1      34.421  42.957  -5.903  1.00  0.00    -0.214 N
ATOM     13  H6  UNL     1      34.149  43.745  -5.315  1.00  0.00     0.210 HD
HETATM   14  N7  UNL     1      35.318  42.044  -5.291  1.00  0.00    -0.117 N
ATOM     15  H7  UNL     1      35.631  42.344  -4.367  1.00  0.00     0.207 HD
ENDROOT
BRANCH   9  16
HETATM   16  C4  UNL     1      33.727  42.967  -9.417  1.00  0.00     0.144 C
BRANCH  16  17
HETATM   17  C5  UNL     1      33.550  42.240 -10.695  1.00  0.00     0.021 C
BRANCH  17  18
HETATM   18  C6  UNL     1      33.506  43.050 -11.941  1.00  0.00     0.003 C
BRANCH  18  19
HETATM   19  C7  UNL     1      33.728  44.503 -11.568  1.00  0.00     0.027 C
BRANCH  19  20
HETATM   20  C8  UNL     1      33.280  45.449 -12.635  1.00  0.00     0.229 C
BRANCH  20  21
HETATM   21  N4  UNL     1      32.211  46.317 -12.241  1.00  0.00    -0.079 N
ATOM     22  H43 UNL     1      31.969  46.164 -11.262  1.00  0.00     0.274 HD
ATOM     23  H42 UNL     1      32.536  47.282 -12.192  1.00  0.00     0.274 HD
ATOM     24  H41 UNL     1      31.378  46.251 -12.828  1.00  0.00     0.274 HD
ENDBRANCH  20  21
ENDBRANCH  19  20
ENDBRANCH  18  19
ENDBRANCH  17  18
ENDBRANCH  16  17
ENDBRANCH   9  16
TORSDOF 6
ENDMDL