MODEL 2
REMARK VINA RESULT: -6.266247838      1.308      6.602
REMARK  7 active torsions:
REMARK  status: ('A' for Active; 'I' for Inactive)
REMARK    1  A    between atoms: N1_1  and  C1_4
REMARK    2  A    between atoms: C2_7  and  C3_8
REMARK    3  A    between atoms: C3_8  and  C4_9
REMARK    4  A    between atoms: C4_9  and  C5_10
REMARK    5  A    between atoms: C5_10  and  C6_11
REMARK    6  A    between atoms: C6_11  and  N3_12
REMARK    7  A    between atoms: C8_18  and  N6_19
ROOT
HETATM    1  C4  UNL     1      33.002  40.721  -9.794  1.00  0.00     0.009 C
ENDROOT
BRANCH   1   2
HETATM    2  C3  UNL     1      33.884  41.728 -10.430  1.00  0.00     0.078 C
BRANCH   2   3
HETATM    3  C2  UNL     1      33.267  43.049 -10.646  1.00  0.00     0.112 A
HETATM    4  N2  UNL     1      33.555  43.937 -11.644  1.00  0.00    -0.178 N
HETATM    5  C1  UNL     1      32.760  45.001 -11.540  1.00  0.00     0.691 A
ATOM      6  H2  UNL     1      34.270  43.806 -12.360  1.00  0.00     0.185 HD
HETATM    7  N8  UNL     1      31.956  44.812 -10.481  1.00  0.00    -0.131 N
HETATM    8  N7  UNL     1      32.278  43.628  -9.957  1.00  0.00    -0.274 N
ATOM      9  H8  UNL     1      31.237  45.451 -10.142  1.00  0.00     0.205 HD
ATOM     10  H7  UNL     1      31.829  43.218  -9.137  1.00  0.00     0.189 HD
BRANCH   5  11
HETATM   11  N1  UNL     1      32.773  46.043 -12.339  1.00  0.00    -0.233 N
ATOM     12  H12 UNL     1      32.084  46.270 -13.056  1.00  0.00     0.174 HD
ATOM     13  H11 UNL     1      33.484  46.774 -12.348  1.00  0.00     0.174 HD
ENDBRANCH   5  11
ENDBRANCH   2   3
ENDBRANCH   1   2
BRANCH   1  14
HETATM   14  C5  UNL     1      33.584  40.179  -8.517  1.00  0.00     0.021 C
BRANCH  14  15
HETATM   15  C6  UNL     1      35.044  40.609  -8.357  1.00  0.00     0.148 C
BRANCH  15  16
HETATM   16  N3  UNL     1      35.083  41.396  -7.116  1.00  0.00    -0.177 N
HETATM   17  C7  UNL     1      34.587  42.638  -6.941  1.00  0.00     0.218 A
HETATM   18  N4  UNL     1      34.830  42.990  -5.662  1.00  0.00    -0.281 N
HETATM   19  N5  UNL     1      35.461  42.017  -5.028  1.00  0.00    -0.131 N
ATOM     20  H4  UNL     1      34.564  43.881  -5.244  1.00  0.00     0.188 HD
HETATM   21  C8  UNL     1      35.615  41.028  -5.937  1.00  0.00     0.693 A
ATOM     22  H5  UNL     1      35.767  42.013  -4.055  1.00  0.00     0.205 HD
BRANCH  21  23
HETATM   23  N6  UNL     1      36.183  39.885  -5.743  1.00  0.00    -0.233 N
ATOM     24  H62 UNL     1      36.460  39.488  -4.844  1.00  0.00     0.174 HD
ATOM     25  H61 UNL     1      36.422  39.244  -6.499  1.00  0.00     0.174 HD
ENDBRANCH  21  23
ENDBRANCH  15  16
ENDBRANCH  14  15
ENDBRANCH   1  14
TORSDOF 7
ENDMDL