MODEL 5
REMARK VINA RESULT: -5.846075524      3.442      7.071
REMARK  8 active torsions:
REMARK  status: ('A' for Active; 'I' for Inactive)
REMARK    1  A    between atoms: C2_2  and  O1_3
REMARK    2  A    between atoms: O1_3  and  C3_4
REMARK    3  A    between atoms: C3_4  and  C4_5
REMARK    4  A    between atoms: C4_5  and  C5_6
REMARK    5  A    between atoms: C5_6  and  N1_7
REMARK    6  A    between atoms: N1_7  and  C6_9
REMARK    7  A    between atoms: C7_12  and  N3_13
REMARK    8  A    between atoms: C8_18  and  N5_19
ROOT
HETATM    1  C6  UNL     1      36.149  42.081  -3.054  1.00  0.00     0.707 A
HETATM    2  N2  UNL     1      36.596  43.345  -2.855  1.00  0.00    -0.022 N
ATOM      3  H2  UNL     1      36.490  44.047  -3.587  1.00  0.00     0.203 HD
HETATM    4  C7  UNL     1      37.179  43.668  -1.690  1.00  0.00     0.705 A
HETATM    5  N4  UNL     1      37.296  42.710  -0.755  1.00  0.00    -0.022 N
ATOM      6  H4  UNL     1      37.737  42.942   0.136  1.00  0.00     0.203 HD
HETATM    7  C8  UNL     1      36.851  41.452  -0.953  1.00  0.00     0.705 A
HETATM    8  N6  UNL     1      36.267  41.126  -2.119  1.00  0.00    -0.022 N
ATOM      9  H6  UNL     1      35.924  40.180  -2.288  1.00  0.00     0.203 HD
ENDROOT
BRANCH   1  10
HETATM   10  N1  UNL     1      35.593  41.788  -4.174  1.00  0.00    -0.225 N
ATOM     11  H1  UNL     1      34.784  41.166  -4.190  1.00  0.00     0.177 HD
BRANCH  10  12
HETATM   12  C5  UNL     1      36.097  42.322  -5.396  1.00  0.00     0.140 C
BRANCH  12  13
HETATM   13  C4  UNL     1      34.914  42.659  -6.297  1.00  0.00     0.046 C
BRANCH  13  14
HETATM   14  C3  UNL     1      35.256  42.089  -7.645  1.00  0.00     0.169 C
BRANCH  14  15
HETATM   15  O1  UNL     1      35.015  42.972  -8.639  1.00  0.00    -0.391 OA
BRANCH  15  16
HETATM   16  C2  UNL     1      33.868  42.709  -9.331  1.00  0.00     0.163 C
HETATM   17  C1  UNL     1      33.873  43.697 -10.524  1.00  0.00     0.033 C
ENDBRANCH  15  16
ENDBRANCH  14  15
ENDBRANCH  13  14
ENDBRANCH  12  13
ENDBRANCH  10  12
ENDBRANCH   1  10
BRANCH   4  18
HETATM   18  N3  UNL     1      37.628  44.870  -1.444  1.00  0.00    -0.234 N
ATOM     19  H32 UNL     1      36.976  45.654  -1.409  1.00  0.00     0.174 HD
ATOM     20  H31 UNL     1      38.617  45.060  -1.284  1.00  0.00     0.174 HD
ENDBRANCH   4  18
BRANCH   7  21
HETATM   21  N5  UNL     1      36.972  40.558  -0.053  1.00  0.00    -0.234 N
ATOM     22  H52 UNL     1      36.822  40.817   0.922  1.00  0.00     0.174 HD
ATOM     23  H51 UNL     1      37.215  39.597  -0.292  1.00  0.00     0.174 HD
ENDBRANCH   7  21
TORSDOF 8
ENDMDL