MODEL 3
REMARK VINA RESULT: -5.955916537      3.126      6.953
REMARK  8 active torsions:
REMARK  status: ('A' for Active; 'I' for Inactive)
REMARK    1  A    between atoms: N1_1  and  C1_4
REMARK    2  A    between atoms: C3_11  and  N5_12
REMARK    3  A    between atoms: N5_12  and  C4_14
REMARK    4  A    between atoms: C4_14  and  C5_15
REMARK    5  A    between atoms: C5_15  and  C6_16
REMARK    6  A    between atoms: C6_16  and  C7_17
REMARK    7  A    between atoms: C7_17  and  C8_18
REMARK    8  A    between atoms: C8_18  and  N6_19
ROOT
HETATM    1  C1  UNL     1      34.367  42.310  -6.747  1.00  0.00     0.692 A
HETATM    2  N2  UNL     1      34.617  41.040  -7.101  1.00  0.00    -0.163 N
ATOM      3  H2  UNL     1      34.175  40.654  -7.936  1.00  0.00     0.187 HD
HETATM    4  C2  UNL     1      35.444  40.266  -6.366  1.00  0.00     0.221 A
HETATM    5  N3  UNL     1      35.733  38.925  -6.701  1.00  0.00    -0.062 NA
HETATM    6  N4  UNL     1      36.021  40.798  -5.257  1.00  0.00    -0.162 N
ATOM      7  H4  UNL     1      36.647  40.218  -4.699  1.00  0.00     0.187 HD
HETATM    8  C3  UNL     1      35.793  42.068  -4.875  1.00  0.00     0.695 A
HETATM    9  N7  UNL     1      34.959  42.793  -5.647  1.00  0.00    -0.023 N
ATOM     10  H7  UNL     1      34.768  43.758  -5.379  1.00  0.00     0.203 HD
ENDROOT
BRANCH   8  11
HETATM   11  N5  UNL     1      36.343  42.574  -3.820  1.00  0.00    -0.225 N
ATOM     12  H5  UNL     1      35.993  43.445  -3.419  1.00  0.00     0.177 HD
BRANCH  11  13
HETATM   13  C4  UNL     1      37.461  41.885  -3.217  1.00  0.00     0.138 C
BRANCH  13  14
HETATM   14  C5  UNL     1      37.140  41.385  -1.828  1.00  0.00     0.020 C
BRANCH  14  15
HETATM   15  C6  UNL     1      36.460  42.539  -1.080  1.00  0.00     0.003 C
BRANCH  15  16
HETATM   16  C7  UNL     1      37.575  43.439  -0.597  1.00  0.00     0.027 C
BRANCH  16  17
HETATM   17  C8  UNL     1      37.364  44.873  -1.031  1.00  0.00     0.229 C
BRANCH  17  18
HETATM   18  N6  UNL     1      35.992  44.997  -1.489  1.00  0.00    -0.079 N
ATOM     19  H63 UNL     1      35.701  44.222  -2.085  1.00  0.00     0.274 HD
ATOM     20  H62 UNL     1      35.312  44.857  -0.743  1.00  0.00     0.274 HD
ATOM     21  H61 UNL     1      35.899  45.905  -1.945  1.00  0.00     0.274 HD
ENDBRANCH  17  18
ENDBRANCH  16  17
ENDBRANCH  15  16
ENDBRANCH  14  15
ENDBRANCH  13  14
ENDBRANCH  11  13
ENDBRANCH   8  11
BRANCH   1  22
HETATM   22  N1  UNL     1      33.580  43.051  -7.445  1.00  0.00    -0.234 N
ATOM     23  H12 UNL     1      33.390  42.829  -8.422  1.00  0.00     0.174 HD
ATOM     24  H11 UNL     1      33.132  43.873  -7.039  1.00  0.00     0.174 HD
ENDBRANCH   1  22
TORSDOF 8
ENDMDL