MODEL 3
REMARK VINA RESULT: -6.127489582      1.105      1.584
REMARK  6 active torsions:
REMARK  status: ('A' for Active; 'I' for Inactive)
REMARK    1  A    between atoms: C3_6  and  C4_7
REMARK    2  A    between atoms: C4_7  and  N2_8
REMARK    3  A    between atoms: N2_8  and  C5_11
REMARK    4  A    between atoms: C5_11  and  C6_12
REMARK    5  A    between atoms: C6_12  and  N3_13
REMARK    6  A    between atoms: N3_13  and  C7_15
ROOT
HETATM    1  N2  UNL     1      36.514  43.092  -3.027  1.00  0.00    -0.072 N
ATOM      2  H21 UNL     1      35.658  43.528  -3.371  1.00  0.00     0.277 HD
ATOM      3  H22 UNL     1      36.095  42.329  -2.496  1.00  0.00     0.277 HD
ENDROOT
BRANCH   1   4
HETATM    4  C4  UNL     1      37.270  43.995  -2.167  1.00  0.00     0.265 C
BRANCH   4   5
HETATM    5  C3  UNL     1      37.074  43.555  -0.741  1.00  0.00     0.211 C
HETATM    6  N1  UNL     1      36.878  42.117  -0.618  1.00  0.00    -0.069 N
HETATM    7  C2  UNL     1      37.022  41.899   0.808  1.00  0.00     0.233 C
ATOM      8  H12 UNL     1      37.492  41.550  -1.203  1.00  0.00     0.277 HD
ATOM      9  H11 UNL     1      36.007  41.767  -1.019  1.00  0.00     0.277 HD
HETATM   10  C1  UNL     1      38.123  42.857   1.263  1.00  0.00     0.029 C
HETATM   11  C10 UNL     1      38.387  43.717   0.047  1.00  0.00     0.036 C
ENDBRANCH   4   5
ENDBRANCH   1   4
BRANCH   1  12
HETATM   12  C5  UNL     1      37.339  42.601  -4.113  1.00  0.00     0.252 C
BRANCH  12  13
HETATM   13  C6  UNL     1      36.483  41.903  -5.116  1.00  0.00     0.150 C
BRANCH  13  14
HETATM   14  N3  UNL     1      35.290  42.690  -5.369  1.00  0.00    -0.361 N
ATOM     15  H3  UNL     1      34.863  43.236  -4.620  1.00  0.00     0.162 HD
BRANCH  14  16
HETATM   16  C7  UNL     1      34.712  42.694  -6.691  1.00  0.00     0.171 C
HETATM   17  N4  UNL     1      33.526  43.119  -6.958  1.00  0.00    -0.361 N
HETATM   18  C8  UNL     1      33.233  42.993  -8.362  1.00  0.00     0.142 C
ATOM     19  H4  UNL     1      32.878  43.495  -6.266  1.00  0.00     0.162 HD
HETATM   20  C9  UNL     1      34.499  42.522  -8.970  1.00  0.00     0.142 C
HETATM   21  N5  UNL     1      35.358  42.239  -7.851  1.00  0.00    -0.361 N
ATOM     22  H5  UNL     1      36.272  41.788  -7.893  1.00  0.00     0.162 HD
ENDBRANCH  14  16
ENDBRANCH  13  14
ENDBRANCH  12  13
ENDBRANCH   1  12
TORSDOF 6
ENDMDL