MODEL 1
REMARK VINA RESULT: -6.845223433      0.000      0.000
REMARK  7 active torsions:
REMARK  status: ('A' for Active; 'I' for Inactive)
REMARK    1  A    between atoms: C3_4  and  S1_5
REMARK    2  A    between atoms: S1_5  and  C4_6
REMARK    3  A    between atoms: C4_6  and  O2_7
REMARK    4  A    between atoms: N1_9  and  O3_11
REMARK    5  A    between atoms: C5_13  and  O4_14
REMARK    6  A    between atoms: C6_16  and  O5_17
REMARK    7  A    between atoms: C7_19  and  O6_20
ROOT
HETATM    1  C1  UNL     1      72.525  55.195  36.844  1.00  0.00     0.042 C
HETATM    2  C2  UNL     1      72.238  56.254  35.780  1.00  0.00     0.150 C
HETATM    3  O1  UNL     1      72.748  57.425  36.219  1.00  0.00    -0.365 OA
HETATM    4  C3  UNL     1      72.863  58.480  35.390  1.00  0.00     0.223 C
HETATM    5  C5  UNL     1      72.902  58.270  33.930  1.00  0.00     0.188 C
HETATM    6  C6  UNL     1      72.528  56.885  33.475  1.00  0.00     0.181 C
HETATM    7  C7  UNL     1      72.968  55.845  34.507  1.00  0.00     0.178 C
ENDROOT
BRANCH   4   8
HETATM    8  S1  UNL     1      74.381  59.376  35.915  1.00  0.00    -0.050 SA
BRANCH   8   9
HETATM    9  C4  UNL     1      74.486  59.421  37.696  1.00  0.00     0.202 C
HETATM   10  N1  UNL     1      75.659  59.538  38.216  1.00  0.00    -0.242 N
ATOM     11  H1  UNL     1      76.482  59.601  37.617  1.00  0.00     0.197 HD
BRANCH   9  12
HETATM   12  O2  UNL     1      73.370  59.333  38.524  1.00  0.00    -0.340 OA
ATOM     13  H2  UNL     1      73.428  59.331  39.472  1.00  0.00     0.220 HD
ENDBRANCH   9  12
BRANCH  10  14
HETATM   14  O3  UNL     1      75.794  59.578  39.582  1.00  0.00    -0.287 OA
ATOM     15  H3  UNL     1      75.781  58.767  40.078  1.00  0.00     0.244 HD
ENDBRANCH  10  14
ENDBRANCH   8   9
ENDBRANCH   4   8
BRANCH   5  16
HETATM   16  O4  UNL     1      74.189  58.533  33.428  1.00  0.00    -0.389 OA
ATOM     17  H4  UNL     1      74.336  59.469  33.363  1.00  0.00     0.210 HD
ENDBRANCH   5  16
BRANCH   6  18
HETATM   18  O5  UNL     1      73.020  56.598  32.208  1.00  0.00    -0.390 OA
ATOM     19  H5  UNL     1      73.774  56.019  32.239  1.00  0.00     0.210 HD
ENDBRANCH   6  18
BRANCH   7  20
HETATM   20  O6  UNL     1      72.497  54.596  34.067  1.00  0.00    -0.390 OA
ATOM     21  H6  UNL     1      71.564  54.528  34.230  1.00  0.00     0.210 HD
ENDBRANCH   7  20
TORSDOF 7
ENDMDL