MODEL 3
REMARK VINA RESULT: -6.634552730      2.748      5.313
REMARK  6 active torsions:
REMARK  status: ('A' for Active; 'I' for Inactive)
REMARK    1  A    between atoms: C2_2  and  O1_4
REMARK    2  A    between atoms: O1_4  and  C4_5
REMARK    3  A    between atoms: C7_9  and  O3_10
REMARK    4  A    between atoms: C8_12  and  N1_14
REMARK    5  A    between atoms: N1_14  and  O4_15
REMARK    6  A    between atoms: C10_17  and  O5_18
ROOT
HETATM    1  C4  UNL     1      73.408  57.295  35.956  1.00  0.00     0.297 C
HETATM    2  O2  UNL     1      72.176  57.946  35.710  1.00  0.00    -0.351 OA
HETATM    3  C5  UNL     1      71.950  57.809  34.353  1.00  0.00     0.151 C
HETATM    4  C6  UNL     1      70.821  58.733  33.913  1.00  0.00     0.042 C
HETATM    5  C7  UNL     1      71.735  56.410  33.899  1.00  0.00     0.175 C
HETATM    6  C8  UNL     1      72.408  55.362  34.698  1.00  0.00     0.112 C
HETATM    7  C9  UNL     1      73.419  54.608  33.820  1.00  0.00     0.042 C
HETATM    8  C10 UNL     1      73.135  55.828  35.904  1.00  0.00     0.202 C
ENDROOT
BRANCH   1   9
HETATM    9  O1  UNL     1      73.800  57.628  37.266  1.00  0.00    -0.323 OA
BRANCH   9  10
HETATM   10  C2  UNL     1      75.077  58.035  37.596  1.00  0.00     0.036 C
HETATM   11  C1  UNL     1      75.230  58.835  38.634  1.00  0.00     0.045 C
HETATM   12  C3  UNL     1      76.275  57.602  36.819  1.00  0.00     0.075 C
ENDBRANCH   9  10
ENDBRANCH   1   9
BRANCH   8  13
HETATM   13  O5  UNL     1      72.373  55.511  37.051  1.00  0.00    -0.388 OA
ATOM     14  H5  UNL     1      72.001  54.649  36.906  1.00  0.00     0.210 HD
ENDBRANCH   8  13
BRANCH   6  15
HETATM   15  N1  UNL     1      71.414  54.372  35.088  1.00  0.00    -0.088 NA
BRANCH  15  16
HETATM   16  O4  UNL     1      71.827  53.116  34.927  1.00  0.00    -0.295 OA
ATOM     17  H4  UNL     1      71.921  52.643  35.745  1.00  0.00     0.238 HD
ENDBRANCH  15  16
ENDBRANCH   6  15
BRANCH   5  18
HETATM   18  O3  UNL     1      72.161  56.339  32.551  1.00  0.00    -0.391 OA
ATOM     19  H3  UNL     1      71.891  57.146  32.129  1.00  0.00     0.210 HD
ENDBRANCH   5  18
TORSDOF 6
ENDMDL