MODEL 5
REMARK VINA RESULT: -7.057974919      2.401      3.316
REMARK  7 active torsions:
REMARK  status: ('A' for Active; 'I' for Inactive)
REMARK    1  A    between atoms: O1_1  and  N1_3
REMARK    2  A    between atoms: C1_5  and  C2_6
REMARK    3  A    between atoms: N2_9  and  C5_10
REMARK    4  A    between atoms: C6_11  and  O2_12
REMARK    5  A    between atoms: C7_14  and  O3_15
REMARK    6  A    between atoms: C8_17  and  O4_18
REMARK    7  A    between atoms: C9_20  and  O5_21
ROOT
HETATM    1  C5  UNL     1      74.877  59.555  36.460  1.00  0.00     0.151 C
HETATM    2  C6  UNL     1      76.288  59.044  36.281  1.00  0.00     0.175 C
HETATM    3  C7  UNL     1      76.763  58.701  37.675  1.00  0.00     0.180 C
HETATM    4  C8  UNL     1      75.557  58.560  38.539  1.00  0.00     0.180 C
HETATM    5  C9  UNL     1      74.339  58.883  37.697  1.00  0.00     0.175 C
ENDROOT
BRANCH   1   6
HETATM    6  N2  UNL     1      74.014  59.220  35.350  1.00  0.00    -0.356 N
HETATM    7  C4  UNL     1      73.019  58.304  35.461  1.00  0.00     0.092 A
HETATM    8  C3  UNL     1      72.371  58.194  34.256  1.00  0.00     0.031 A
HETATM    9  C2  UNL     1      73.021  59.092  33.406  1.00  0.00    -0.002 A
HETATM   10  C10 UNL     1      74.039  59.717  34.109  1.00  0.00     0.104 A
BRANCH   9  11
HETATM   11  C1  UNL     1      72.700  59.337  32.027  1.00  0.00     0.126 C
HETATM   12  N1  UNL     1      73.472  60.021  31.260  1.00  0.00    -0.280 N
ATOM     13  H1  UNL     1      74.335  60.396  31.653  1.00  0.00     0.193 HD
BRANCH  12  14
HETATM   14  O1  UNL     1      73.197  60.273  29.944  1.00  0.00    -0.290 OA
ATOM     15  H1  UNL     1      73.429  61.084  29.507  1.00  0.00     0.244 HD
ENDBRANCH  12  14
ENDBRANCH   9  11
ENDBRANCH   1   6
BRANCH   2  16
HETATM   16  O2  UNL     1      76.345  57.876  35.532  1.00  0.00    -0.391 OA
ATOM     17  H2  UNL     1      77.235  57.600  35.348  1.00  0.00     0.210 HD
ENDBRANCH   2  16
BRANCH   5  18
HETATM   18  O5  UNL     1      73.454  59.709  38.395  1.00  0.00    -0.391 OA
ATOM     19  H5  UNL     1      73.643  59.723  39.327  1.00  0.00     0.210 HD
ENDBRANCH   5  18
BRANCH   3  20
HETATM   20  O3  UNL     1      77.458  57.492  37.695  1.00  0.00    -0.390 OA
ATOM     21  H3  UNL     1      77.288  57.006  38.493  1.00  0.00     0.210 HD
ENDBRANCH   3  20
BRANCH   4  22
HETATM   22  O4  UNL     1      75.626  59.378  39.672  1.00  0.00    -0.390 OA
ATOM     23  H4  UNL     1      75.754  58.875  40.467  1.00  0.00     0.210 HD
ENDBRANCH   4  22
TORSDOF 7
ENDMDL