MODEL 5
REMARK VINA RESULT: -5.612578097      3.185      4.378
REMARK  5 active torsions:
REMARK  status: ('A' for Active; 'I' for Inactive)
REMARK    1  A    between atoms: C1_2  and  C2_4
REMARK    2  A    between atoms: C3_5  and  O3_6
REMARK    3  A    between atoms: C4_8  and  O4_9
REMARK    4  A    between atoms: C5_12  and  S1_13
REMARK    5  A    between atoms: C6_15  and  O6_16
ROOT
HETATM    1  C2  UNL     1      75.248  57.371  37.520  1.00  0.00     0.152 C
HETATM    2  C3  UNL     1      76.505  57.413  36.717  1.00  0.00     0.190 C
HETATM    3  C4  UNL     1      76.620  58.496  35.734  1.00  0.00     0.288 C
HETATM    4  O5  UNL     1      75.783  59.546  35.801  1.00  0.00    -0.340 OA
HETATM    5  C5  UNL     1      74.584  59.392  36.410  1.00  0.00     0.227 C
HETATM    6  C6  UNL     1      74.810  58.802  37.791  1.00  0.00     0.175 C
ENDROOT
BRANCH   1   7
HETATM    7  C1  UNL     1      74.214  56.614  36.768  1.00  0.00     0.182 C
HETATM    8  O1  UNL     1      73.014  56.564  37.143  1.00  0.00    -0.648 OA
HETATM    9  O2  UNL     1      74.558  55.929  35.611  1.00  0.00    -0.648 OA
ENDBRANCH   1   7
BRANCH   2  10
HETATM   10  O3  UNL     1      77.579  57.452  37.639  1.00  0.00    -0.390 OA
ATOM     11  H3  UNL     1      78.377  57.342  37.135  1.00  0.00     0.210 HD
ENDBRANCH   2  10
BRANCH   6  12
HETATM   12  O6  UNL     1      73.702  58.883  38.597  1.00  0.00    -0.391 OA
ATOM     13  H6  UNL     1      73.868  59.341  39.413  1.00  0.00     0.210 HD
ENDBRANCH   6  12
BRANCH   3  14
HETATM   14  O4  UNL     1      76.522  57.937  34.436  1.00  0.00    -0.369 OA
ATOM     15  H4  UNL     1      76.374  57.003  34.523  1.00  0.00     0.212 HD
ENDBRANCH   3  14
BRANCH   5  16
HETATM   16  S1  UNL     1      73.800  61.039  36.543  1.00  0.00    -0.050 SA
HETATM   17  S2  UNL     1      75.061  62.396  37.563  1.00  0.00    -0.011 SA
ENDBRANCH   5  16
TORSDOF 5
ENDMDL