MODEL 3
REMARK VINA RESULT: -6.454526156      2.248      5.272
REMARK  5 active torsions:
REMARK  status: ('A' for Active; 'I' for Inactive)
REMARK    1  A    between atoms: O1_1  and  C1_3
REMARK    2  A    between atoms: N1_6  and  C4_7
REMARK    3  A    between atoms: C5_9  and  C6_10
REMARK    4  A    between atoms: C7_12  and  O3_13
REMARK    5  A    between atoms: C8_15  and  O4_16
ROOT
HETATM    1  C4  UNL     1      73.717  57.696  35.623  1.00  0.00     0.259 C
HETATM    2  O2  UNL     1      72.501  57.381  36.227  1.00  0.00    -0.355 OA
HETATM    3  C5  UNL     1      71.799  56.672  35.261  1.00  0.00     0.165 C
HETATM    4  C7  UNL     1      72.797  55.942  34.404  1.00  0.00     0.180 C
HETATM    5  C8  UNL     1      74.111  56.305  35.107  1.00  0.00     0.198 C
ENDROOT
BRANCH   1   6
HETATM    6  N1  UNL     1      74.682  58.200  36.543  1.00  0.00    -0.335 N
HETATM    7  C3  UNL     1      75.981  58.354  36.292  1.00  0.00     0.096 A
HETATM    8  C2  UNL     1      76.619  58.873  37.424  1.00  0.00     0.055 A
HETATM    9  C1  UNL     1      75.611  59.015  38.363  1.00  0.00     0.082 A
HETATM   10  C9  UNL     1      74.413  58.593  37.798  1.00  0.00     0.129 A
BRANCH   9  11
HETATM   11  O1  UNL     1      75.775  59.500  39.652  1.00  0.00    -0.359 OA
ATOM     12  H1  UNL     1      76.308  59.099  40.328  1.00  0.00     0.217 HD
ENDBRANCH   9  11
ENDBRANCH   1   6
BRANCH   5  13
HETATM   13  O4  UNL     1      74.247  55.444  36.167  1.00  0.00    -0.388 OA
ATOM     14  H4  UNL     1      73.571  54.778  36.124  1.00  0.00     0.210 HD
ENDBRANCH   5  13
BRANCH   3  15
HETATM   15  C6  UNL     1      70.982  57.669  34.466  1.00  0.00     0.120 C
HETATM   16  S1  UNL     1      71.413  57.479  32.713  1.00  0.00    -0.095 SA
ENDBRANCH   3  15
BRANCH   4  17
HETATM   17  O3  UNL     1      72.593  54.576  34.375  1.00  0.00    -0.390 OA
ATOM     18  H3  UNL     1      72.441  54.239  33.500  1.00  0.00     0.210 HD
ENDBRANCH   4  17
TORSDOF 5
ENDMDL