MODEL 4
REMARK VINA RESULT: -6.299680246      1.746      1.950
REMARK  5 active torsions:
REMARK  status: ('A' for Active; 'I' for Inactive)
REMARK       I    between atoms: C1_2  and  N1_4
REMARK    1  A    between atoms: N1_4  and  C2_6
REMARK    2  A    between atoms: C2_6  and  C3_7
REMARK    3  A    between atoms: C4_9  and  O4_10
REMARK    4  A    between atoms: C5_12  and  O5_13
REMARK    5  A    between atoms: C6_15  and  O6_16
ROOT
HETATM    1  C3  UNL     1      74.025  57.308  36.165  1.00  0.00     0.159 C
HETATM    2  O3  UNL     1      73.110  58.128  36.696  1.00  0.00    -0.351 OA
HETATM    3  C4  UNL     1      73.449  59.318  37.202  1.00  0.00     0.288 C
HETATM    4  C5  UNL     1      74.706  59.960  36.778  1.00  0.00     0.203 C
HETATM    5  C6  UNL     1      75.738  59.045  36.187  1.00  0.00     0.168 C
HETATM    6  C7  UNL     1      75.453  57.590  36.448  1.00  0.00     0.120 C
HETATM    7  S1  UNL     1      76.460  56.639  35.246  1.00  0.00    -0.087 SA
ENDROOT
BRANCH   1   8
HETATM    8  C2  UNL     1      73.748  55.883  36.659  1.00  0.00     0.159 C
BRANCH   8   9
HETATM    9  N1  UNL     1      72.798  55.247  35.749  1.00  0.00    -0.333 N
HETATM   10  C1  UNL     1      72.632  53.846  35.808  1.00  0.00     0.283 C
HETATM   11  O1  UNL     1      73.278  53.143  36.618  1.00  0.00    -0.630 OA
HETATM   12  O2  UNL     1      71.740  53.234  34.956  1.00  0.00    -0.630 OA
ATOM     13  H1  UNL     1      72.264  55.805  35.082  1.00  0.00     0.165 HD
ENDBRANCH   8   9
ENDBRANCH   1   8
BRANCH   3  14
HETATM   14  O4  UNL     1      73.452  59.214  38.615  1.00  0.00    -0.369 OA
ATOM     15  H4  UNL     1      74.336  59.377  38.923  1.00  0.00     0.212 HD
ENDBRANCH   3  14
BRANCH   5  16
HETATM   16  O6  UNL     1      77.023  59.299  36.674  1.00  0.00    -0.392 OA
ATOM     17  H6  UNL     1      77.639  58.607  36.462  1.00  0.00     0.210 HD
ENDBRANCH   5  16
BRANCH   4  18
HETATM   18  O5  UNL     1      75.310  60.619  37.856  1.00  0.00    -0.388 OA
ATOM     19  H5  UNL     1      75.991  61.207  37.549  1.00  0.00     0.210 HD
ENDBRANCH   4  18
TORSDOF 5
ENDMDL