MODEL 5
REMARK VINA RESULT: -5.210224076      1.694      2.235
REMARK  6 active torsions:
REMARK  status: ('A' for Active; 'I' for Inactive)
REMARK    1  A    between atoms: N1_2  and  C2_4
REMARK    2  A    between atoms: C3_5  and  C4_6
REMARK    3  A    between atoms: C4_6  and  O1_7
REMARK    4  A    between atoms: C5_10  and  S1_11
REMARK    5  A    between atoms: C6_13  and  O3_14
REMARK    6  A    between atoms: C7_16  and  O4_17
ROOT
HETATM    1  C2  UNL     1      75.150  58.106  36.702  1.00  0.00     0.139 C
HETATM    2  C3  UNL     1      76.324  58.825  37.384  1.00  0.00     0.171 C
HETATM    3  O2  UNL     1      76.251  60.124  36.856  1.00  0.00    -0.362 OA
HETATM    4  C5  UNL     1      75.221  60.834  37.499  1.00  0.00     0.226 C
HETATM    5  C6  UNL     1      73.896  60.195  37.133  1.00  0.00     0.188 C
HETATM    6  C7  UNL     1      73.920  58.683  37.363  1.00  0.00     0.175 C
ENDROOT
BRANCH   1   7
HETATM    7  N1  UNL     1      75.347  56.731  36.822  1.00  0.00    -0.416 N
HETATM    8  C1  UNL     1      74.337  55.826  36.382  1.00  0.00     0.140 C
ATOM      9  H1  UNL     1      76.214  56.373  37.223  1.00  0.00     0.153 HD
ENDBRANCH   1   7
BRANCH   2  10
HETATM   10  C4  UNL     1      77.674  58.323  36.891  1.00  0.00     0.198 C
BRANCH  10  11
HETATM   11  O1  UNL     1      77.981  57.263  37.793  1.00  0.00    -0.398 OA
ATOM     12  H1  UNL     1      77.577  56.505  37.387  1.00  0.00     0.209 HD
ENDBRANCH  10  11
ENDBRANCH   2  10
BRANCH   6  13
HETATM   13  O4  UNL     1      74.041  58.468  38.723  1.00  0.00    -0.391 OA
ATOM     14  H4  UNL     1      74.635  59.126  39.064  1.00  0.00     0.210 HD
ENDBRANCH   6  13
BRANCH   5  15
HETATM   15  O3  UNL     1      73.536  60.484  35.809  1.00  0.00    -0.389 OA
ATOM     16  H3  UNL     1      72.828  59.924  35.513  1.00  0.00     0.210 HD
ENDBRANCH   5  15
BRANCH   4  17
HETATM   17  S1  UNL     1      75.321  62.505  36.802  1.00  0.00    -0.050 SA
HETATM   18  S2  UNL     1      75.334  63.942  38.366  1.00  0.00    -0.011 SA
ENDBRANCH   4  17
TORSDOF 6
ENDMDL