MODEL 4
REMARK VINA RESULT: -6.883062371      0.749      1.231
REMARK  6 active torsions:
REMARK  status: ('A' for Active; 'I' for Inactive)
REMARK    1  A    between atoms: O1_1  and  C1_3
REMARK    2  A    between atoms: N1_6  and  N2_7
REMARK    3  A    between atoms: C4_9  and  C5_10
REMARK    4  A    between atoms: C6_12  and  O3_13
REMARK    5  A    between atoms: C7_15  and  O4_16
REMARK    6  A    between atoms: C8_18  and  O5_19
ROOT
HETATM    1  C5  UNL     1      71.872  55.907  35.337  1.00  0.00     0.196 C
HETATM    2  O2  UNL     1      71.615  56.219  33.995  1.00  0.00    -0.346 OA
HETATM    3  C6  UNL     1      72.808  55.935  33.325  1.00  0.00     0.289 C
HETATM    4  C7  UNL     1      73.349  54.675  33.989  1.00  0.00     0.204 C
HETATM    5  C8  UNL     1      72.516  54.563  35.248  1.00  0.00     0.185 C
ENDROOT
BRANCH   1   6
HETATM    6  C4  UNL     1      72.810  56.877  35.911  1.00  0.00     0.115 C
HETATM    7  N2  UNL     1      73.810  56.465  36.606  1.00  0.00    -0.307 N
ATOM      8  H2  UNL     1      73.929  55.462  36.743  1.00  0.00     0.186 HD
BRANCH   7   9
HETATM    9  N1  UNL     1      74.734  57.332  37.177  1.00  0.00    -0.277 N
HETATM   10  C3  UNL     1      76.039  57.487  36.856  1.00  0.00     0.118 A
HETATM   11  C2  UNL     1      76.571  58.450  37.674  1.00  0.00     0.057 A
HETATM   12  C1  UNL     1      75.558  58.889  38.514  1.00  0.00     0.084 A
HETATM   13  C9  UNL     1      74.424  58.178  38.184  1.00  0.00     0.152 A
BRANCH  12  14
HETATM   14  O1  UNL     1      75.670  59.865  39.501  1.00  0.00    -0.359 OA
ATOM     15  H1  UNL     1      75.393  59.785  40.406  1.00  0.00     0.217 HD
ENDBRANCH  12  14
ENDBRANCH   7   9
ENDBRANCH   1   6
BRANCH   5  16
HETATM   16  O5  UNL     1      71.629  53.511  35.197  1.00  0.00    -0.390 OA
ATOM     17  H5  UNL     1      71.862  52.833  34.573  1.00  0.00     0.210 HD
ENDBRANCH   5  16
BRANCH   3  18
HETATM   18  O3  UNL     1      72.562  55.709  31.973  1.00  0.00    -0.368 OA
ATOM     19  H3  UNL     1      71.944  56.348  31.640  1.00  0.00     0.212 HD
ENDBRANCH   3  18
BRANCH   4  20
HETATM   20  O4  UNL     1      73.156  53.557  33.178  1.00  0.00    -0.388 OA
ATOM     21  H4  UNL     1      72.748  52.848  33.662  1.00  0.00     0.210 HD
ENDBRANCH   4  20
TORSDOF 6
ENDMDL