MODEL 5
REMARK VINA RESULT: -6.997931074      2.110      5.514
REMARK  7 active torsions:
REMARK  status: ('A' for Active; 'I' for Inactive)
REMARK    1  A    between atoms: O1_1  and  C1_3
REMARK    2  A    between atoms: C1_3  and  C2_4
REMARK    3  A    between atoms: C3_6  and  C4_7
REMARK    4  A    between atoms: C4_7  and  O3_8
REMARK    5  A    between atoms: C5_10  and  O4_11
REMARK    6  A    between atoms: C6_13  and  N1_14
REMARK    7  A    between atoms: C9_17  and  O5_18
ROOT
HETATM    1  C2  UNL     1      76.655  58.210  35.947  1.00  0.00     0.286 C
HETATM    2  O2  UNL     1      75.894  58.935  36.829  1.00  0.00    -0.349 OA
HETATM    3  C3  UNL     1      74.661  59.331  36.313  1.00  0.00     0.181 C
HETATM    4  C5  UNL     1      74.006  58.192  35.665  1.00  0.00     0.198 C
HETATM    5  C6  UNL     1      74.786  56.924  36.004  1.00  0.00     0.261 C
HETATM    6  O6  UNL     1      76.087  57.006  35.562  1.00  0.00    -0.332 OA
ENDROOT
BRANCH   5   7
HETATM    7  N1  UNL     1      74.102  55.790  35.399  1.00  0.00    -0.335 N
HETATM    8  C7  UNL     1      74.202  55.444  34.104  1.00  0.00     0.096 A
HETATM    9  C8  UNL     1      73.424  54.327  33.883  1.00  0.00     0.055 A
HETATM   10  C9  UNL     1      72.827  53.972  35.072  1.00  0.00     0.082 A
HETATM   11  C10 UNL     1      73.276  54.907  35.985  1.00  0.00     0.129 A
BRANCH  10  12
HETATM   12  O5  UNL     1      71.957  52.896  35.295  1.00  0.00    -0.359 OA
ATOM     13  H5  UNL     1      71.640  52.273  34.653  1.00  0.00     0.217 HD
ENDBRANCH  10  12
ENDBRANCH   5   7
BRANCH   4  14
HETATM   14  O4  UNL     1      72.690  57.957  36.012  1.00  0.00    -0.388 OA
ATOM     15  H4  UNL     1      72.412  57.049  36.029  1.00  0.00     0.210 HD
ENDBRANCH   4  14
BRANCH   3  16
HETATM   16  C4  UNL     1      73.905  60.015  37.406  1.00  0.00     0.199 C
BRANCH  16  17
HETATM   17  O3  UNL     1      73.610  59.238  38.489  1.00  0.00    -0.398 OA
ATOM     18  H3  UNL     1      74.125  58.445  38.574  1.00  0.00     0.209 HD
ENDBRANCH  16  17
ENDBRANCH   3  16
BRANCH   1  19
HETATM   19  C1  UNL     1      77.992  57.962  36.662  1.00  0.00     0.224 C
BRANCH  19  20
HETATM   20  O1  UNL     1      77.690  57.343  37.856  1.00  0.00    -0.396 OA
ATOM     21  H1  UNL     1      76.946  57.806  38.222  1.00  0.00     0.209 HD
ENDBRANCH  19  20
ENDBRANCH   1  19
TORSDOF 7
ENDMDL