MODEL 2
REMARK VINA RESULT: -5.073349480      1.083      1.236
REMARK  3 active torsions:
REMARK  status: ('A' for Active; 'I' for Inactive)
REMARK    1  A    between atoms: C2_2  and  C5_5
REMARK    2  A    between atoms: C5_5  and  N1_6
REMARK    3  A    between atoms: N1_6  and  C6_9
ROOT
HETATM    1  N1  UNL     1     -21.560  15.533   6.607  1.00  0.00    -0.070 N
ATOM      2  H11 UNL     1     -21.260  14.666   6.162  1.00  0.00     0.277 HD
ATOM      3  H12 UNL     1     -22.546  15.505   6.348  1.00  0.00     0.277 HD
ENDROOT
BRANCH   1   4
HETATM    4  C5  UNL     1     -20.893  16.680   6.047  1.00  0.00     0.241 C
BRANCH   4   5
HETATM    5  C2  UNL     1     -21.746  17.417   5.047  1.00  0.00    -0.028 C
HETATM    6  C1  UNL     1     -22.983  16.633   4.683  1.00  0.00     0.016 C
HETATM    7  C3  UNL     1     -20.924  17.700   3.835  1.00  0.00     0.016 C
HETATM    8  C4  UNL     1     -22.175  18.728   5.688  1.00  0.00     0.016 C
ENDBRANCH   4   5
ENDBRANCH   1   4
BRANCH   1   9
HETATM    9  C6  UNL     1     -21.386  15.490   8.000  1.00  0.00     0.189 C
HETATM   10  C7  UNL     1     -20.724  16.680   8.602  1.00  0.00     0.052 C
HETATM   11  C8  UNL     1     -20.529  16.522  10.093  1.00  0.00     0.115 C
HETATM   12  N2  UNL     1     -21.649  15.952  10.772  1.00  0.00    -0.421 N
HETATM   13  C9  UNL     1     -22.222  14.795  10.149  1.00  0.00     0.115 C
ATOM     14  H2  UNL     1     -22.016  16.341  11.641  1.00  0.00     0.153 HD
HETATM   15  C10 UNL     1     -22.681  15.238   8.761  1.00  0.00     0.052 C
ENDBRANCH   1   9
TORSDOF 3
ENDMDL