MODEL 5
REMARK VINA RESULT: -5.354854565      2.507      4.045
REMARK  3 active torsions:
REMARK  status: ('A' for Active; 'I' for Inactive)
REMARK    1  A    between atoms: C2_2  and  C3_3
REMARK    2  A    between atoms: C5_5  and  C6_6
REMARK    3  A    between atoms: C6_6  and  N1_7
ROOT
HETATM    1  C3  UNL     1     -21.951  16.130  10.181  1.00  0.00     0.208 C
HETATM    2  C4  UNL     1     -21.552  16.834   8.900  1.00  0.00     0.043 C
HETATM    3  C5  UNL     1     -22.055  16.035   7.737  1.00  0.00     0.015 C
HETATM    4  C8  UNL     1     -21.272  14.752   7.677  1.00  0.00     0.039 C
HETATM    5  C9  UNL     1     -21.301  14.112   9.044  1.00  0.00     0.183 C
HETATM    6  C10 UNL     1     -21.714  12.640   8.953  1.00  0.00     0.040 C
HETATM    7  N2  UNL     1     -22.277  14.750   9.905  1.00  0.00    -0.064 N
ATOM      8  H21 UNL     1     -23.217  14.665   9.521  1.00  0.00     0.278 HD
ATOM      9  H22 UNL     1     -22.404  14.223  10.769  1.00  0.00     0.278 HD
ENDROOT
BRANCH   3  10
HETATM   10  C6  UNL     1     -22.037  16.796   6.443  1.00  0.00     0.236 C
BRANCH  10  11
HETATM   11  N1  UNL     1     -20.960  16.376   5.568  1.00  0.00    -0.079 N
HETATM   12  C7  UNL     1     -20.917  17.321   4.466  1.00  0.00     0.267 C
ATOM     13  H12 UNL     1     -20.066  16.282   6.051  1.00  0.00     0.276 HD
ATOM     14  H11 UNL     1     -21.045  15.407   5.263  1.00  0.00     0.276 HD
ENDBRANCH  10  11
ENDBRANCH   3  10
BRANCH   1  15
HETATM   15  C2  UNL     1     -23.126  16.769  10.812  1.00  0.00    -0.005 C
HETATM   16  C1  UNL     1     -23.191  18.055  11.109  1.00  0.00     0.009 C
ENDBRANCH   1  15
TORSDOF 3
ENDMDL