MODEL 2
REMARK VINA RESULT: -5.066829834      1.751      4.735
REMARK  3 active torsions:
REMARK  status: ('A' for Active; 'I' for Inactive)
REMARK    1  A    between atoms: C2_2  and  N1_4
REMARK    2  A    between atoms: N1_4  and  C4_7
REMARK    3  A    between atoms: C4_7  and  C6_9
ROOT
HETATM    1  C4  UNL     1     -21.595  14.203   9.206  1.00  0.00     0.212 C
HETATM    2  C5  UNL     1     -21.265  12.946   8.514  1.00  0.00     0.042 C
ENDROOT
BRANCH   1   3
HETATM    3  N1  UNL     1     -22.490  14.066  10.324  1.00  0.00    -0.066 N
ATOM      4  H12 UNL     1     -22.150  14.581  11.136  1.00  0.00     0.278 HD
ATOM      5  H11 UNL     1     -22.460  13.122  10.709  1.00  0.00     0.278 HD
BRANCH   3   6
HETATM    6  C2  UNL     1     -23.825  14.447   9.989  1.00  0.00     0.178 C
HETATM    7  C1  UNL     1     -24.743  13.322   9.615  1.00  0.00     0.039 C
HETATM    8  C3  UNL     1     -24.401  15.253  11.152  1.00  0.00     0.039 C
ENDBRANCH   3   6
ENDBRANCH   1   3
BRANCH   1   9
HETATM    9  C6  UNL     1     -20.504  15.132   9.551  1.00  0.00     0.216 C
HETATM   10  C7  UNL     1     -20.791  15.985  10.769  1.00  0.00     0.037 C
HETATM   11  C8  UNL     1     -19.446  16.655  10.954  1.00  0.00     0.029 C
HETATM   12  C9  UNL     1     -18.504  15.530  10.621  1.00  0.00     0.233 C
HETATM   13  N2  UNL     1     -19.263  14.502   9.942  1.00  0.00    -0.069 N
ATOM     14  H22 UNL     1     -19.391  13.654  10.494  1.00  0.00     0.277 HD
ATOM     15  H21 UNL     1     -18.763  14.067   9.167  1.00  0.00     0.277 HD
ENDBRANCH   1   9
TORSDOF 3
ENDMDL