MODEL 5
REMARK VINA RESULT: -4.815126121      1.719      4.779
REMARK  4 active torsions:
REMARK  status: ('A' for Active; 'I' for Inactive)
REMARK    1  A    between atoms: C2_2  and  C3_3
REMARK    2  A    between atoms: C2_2  and  C8_10
REMARK    3  A    between atoms: C3_3  and  N1_4
REMARK    4  A    between atoms: N1_4  and  C4_6
ROOT
HETATM    1  C1  UNL     1     -22.492  16.396   5.900  1.00  0.00     0.014 C
HETATM    2  C2  UNL     1     -21.156  16.323   6.650  1.00  0.00     0.029 C
ENDROOT
BRANCH   2   3
HETATM    3  C3  UNL     1     -21.375  15.393   7.843  1.00  0.00     0.120 C
BRANCH   3   4
HETATM    4  N1  UNL     1     -22.502  15.891   8.560  1.00  0.00    -0.413 N
ATOM      5  H1  UNL     1     -23.356  16.188   8.088  1.00  0.00     0.153 HD
BRANCH   4   6
HETATM    6  C4  UNL     1     -22.364  15.951   9.986  1.00  0.00     0.014 C
HETATM    7  C5  UNL     1     -23.455  15.153  10.668  1.00  0.00     0.037 C
HETATM    8  C6  UNL     1     -22.522  17.396  10.408  1.00  0.00     0.037 C
HETATM    9  C7  UNL     1     -20.995  15.482  10.446  1.00  0.00     0.037 C
ENDBRANCH   4   6
ENDBRANCH   3   4
ENDBRANCH   2   3
BRANCH   2  10
HETATM   10  C8  UNL     1     -20.885  17.731   7.104  1.00  0.00     0.192 C
HETATM   11  C9  UNL     1     -21.133  18.685   5.931  1.00  0.00     0.061 C
HETATM   12  C10 UNL     1     -20.071  19.499   6.688  1.00  0.00     0.235 C
HETATM   13  N2  UNL     1     -19.534  18.191   7.103  1.00  0.00    -0.070 N
ATOM     14  H22 UNL     1     -18.939  18.097   7.926  1.00  0.00     0.277 HD
ATOM     15  H21 UNL     1     -18.809  17.717   6.563  1.00  0.00     0.277 HD
ENDBRANCH   2  10
TORSDOF 4
ENDMDL