MODEL 1
REMARK VINA RESULT: -5.435674716      0.000      0.000
REMARK  3 active torsions:
REMARK  status: ('A' for Active; 'I' for Inactive)
REMARK    1  A    between atoms: C2_2  and  N1_3
REMARK    2  A    between atoms: N1_3  and  C3_5
REMARK    3  A    between atoms: C3_5  and  C5_7
ROOT
HETATM    1  C5  UNL     1     -22.292  15.576   9.188  1.00  0.00     0.033 C
HETATM    2  C6  UNL     1     -23.464  14.662   9.334  1.00  0.00     0.008 C
HETATM    3  C7  UNL     1     -23.182  13.431  10.155  1.00  0.00     0.002 C
HETATM    4  C8  UNL     1     -22.765  12.268   9.270  1.00  0.00     0.027 C
HETATM    5  C9  UNL     1     -21.301  12.418   8.892  1.00  0.00     0.232 C
HETATM    6  N2  UNL     1     -21.180  13.635   8.137  1.00  0.00    -0.075 N
ATOM      7  H21 UNL     1     -21.971  13.770   7.508  1.00  0.00     0.277 HD
ATOM      8  H22 UNL     1     -20.438  13.575   7.440  1.00  0.00     0.277 HD
HETATM    9  C10 UNL     1     -21.000  14.754   9.012  1.00  0.00     0.238 C
ENDROOT
BRANCH   1  10
HETATM   10  C3  UNL     1     -22.019  16.372  10.455  1.00  0.00     0.082 C
HETATM   11  C4  UNL     1     -20.555  16.142  10.765  1.00  0.00     0.032 C
BRANCH  10  12
HETATM   12  N1  UNL     1     -22.369  17.719  10.271  1.00  0.00    -0.398 N
ATOM     13  H1  UNL     1     -22.052  18.211   9.437  1.00  0.00     0.159 HD
BRANCH  12  14
HETATM   14  C2  UNL     1     -23.148  18.396  11.215  1.00  0.00     0.051 C
HETATM   15  C1  UNL     1     -24.252  17.645  11.892  1.00  0.00     0.054 C
ENDBRANCH  12  14
ENDBRANCH  10  12
ENDBRANCH   1  10
TORSDOF 3
ENDMDL