MODEL 3
REMARK VINA RESULT: -5.138714876      2.093      3.790
REMARK  3 active torsions:
REMARK  status: ('A' for Active; 'I' for Inactive)
REMARK    1  A    between atoms: N1_2  and  C2_5
REMARK    2  A    between atoms: C2_5  and  C3_6
REMARK    3  A    between atoms: C2_5  and  C6_9
ROOT
HETATM    1  C6  UNL     1     -21.877  14.520   9.492  1.00  0.00     0.216 C
HETATM    2  C7  UNL     1     -21.292  13.418   8.712  1.00  0.00     0.035 C
HETATM    3  C8  UNL     1     -21.727  12.038   9.207  1.00  0.00     0.004 C
HETATM    4  C9  UNL     1     -23.232  12.020   9.185  1.00  0.00     0.027 C
HETATM    5  C10 UNL     1     -23.770  13.208   9.962  1.00  0.00     0.233 C
HETATM    6  N2  UNL     1     -22.670  13.907  10.567  1.00  0.00    -0.069 N
ATOM      7  H21 UNL     1     -22.970  14.581  11.271  1.00  0.00     0.277 HD
ATOM      8  H22 UNL     1     -22.112  13.311  11.179  1.00  0.00     0.277 HD
ENDROOT
BRANCH   1   9
HETATM    9  C2  UNL     1     -21.056  15.557  10.089  1.00  0.00     0.219 C
BRANCH   9  10
HETATM   10  N1  UNL     1     -19.619  15.279   9.968  1.00  0.00    -0.072 N
HETATM   11  C1  UNL     1     -18.853  15.994  10.974  1.00  0.00     0.267 C
ATOM     12  H12 UNL     1     -19.279  15.479   9.027  1.00  0.00     0.277 HD
ATOM     13  H11 UNL     1     -19.430  14.278   9.995  1.00  0.00     0.277 HD
ENDBRANCH   9  10
BRANCH   9  14
HETATM   14  C3  UNL     1     -21.228  16.988   9.701  1.00  0.00     0.010 C
HETATM   15  C4  UNL     1     -21.180  17.257   8.227  1.00  0.00     0.011 C
HETATM   16  C5  UNL     1     -22.356  17.689  10.419  1.00  0.00     0.011 C
ENDBRANCH   9  14
ENDBRANCH   1   9
TORSDOF 3
ENDMDL