MODEL 3
REMARK VINA RESULT: -5.104444284      0.903      1.407
REMARK  4 active torsions:
REMARK  status: ('A' for Active; 'I' for Inactive)
REMARK    1  A    between atoms: O1_2  and  C2_3
REMARK    2  A    between atoms: C2_3  and  C3_4
REMARK    3  A    between atoms: C5_6  and  N1_7
REMARK    4  A    between atoms: N1_7  and  C6_10
ROOT
HETATM    1  N1  UNL     1     -20.889  15.159   8.381  1.00  0.00    -0.066 N
ATOM      2  H11 UNL     1     -20.167  15.768   8.767  1.00  0.00     0.278 HD
ATOM      3  H12 UNL     1     -20.304  14.542   7.817  1.00  0.00     0.278 HD
ENDROOT
BRANCH   1   4
HETATM    4  C5  UNL     1     -21.790  15.899   7.555  1.00  0.00     0.193 A
HETATM    5  C3  UNL     1     -21.484  16.325   6.189  1.00  0.00     0.042 A
HETATM    6  C4  UNL     1     -21.353  17.337   7.318  1.00  0.00     0.042 A
BRANCH   5   7
HETATM    7  C2  UNL     1     -22.589  16.679   5.229  1.00  0.00     0.173 C
BRANCH   7   8
HETATM    8  O1  UNL     1     -23.283  15.604   4.730  1.00  0.00    -0.396 OA
HETATM    9  C1  UNL     1     -24.061  15.843   3.630  1.00  0.00     0.201 C
ENDBRANCH   7   8
ENDBRANCH   5   7
ENDBRANCH   1   4
BRANCH   1  10
HETATM   10  C6  UNL     1     -21.550  14.419   9.430  1.00  0.00     0.186 C
HETATM   11  C7  UNL     1     -22.827  15.059   9.887  1.00  0.00     0.033 C
HETATM   12  C8  UNL     1     -23.914  14.092   9.448  1.00  0.00     0.002 C
HETATM   13  C9  UNL     1     -23.214  12.753   9.665  1.00  0.00     0.002 C
HETATM   14  C10 UNL     1     -21.874  13.028   8.971  1.00  0.00     0.033 C
ENDBRANCH   1  10
TORSDOF 4
ENDMDL