MODEL 1
REMARK VINA RESULT: -5.283105669      0.000      0.000
REMARK  3 active torsions:
REMARK  status: ('A' for Active; 'I' for Inactive)
REMARK    1  A    between atoms: C2_2  and  N1_4
REMARK    2  A    between atoms: N1_4  and  C4_6
REMARK    3  A    between atoms: C4_6  and  C7_9
ROOT
HETATM    1  C4  UNL     1     -21.423  15.990   9.816  1.00  0.00     0.047 C
HETATM    2  C5  UNL     1     -22.279  17.117  10.361  1.00  0.00     0.039 C
HETATM    3  C6  UNL     1     -20.215  15.932  10.787  1.00  0.00     0.039 C
ENDROOT
BRANCH   1   4
HETATM    4  N1  UNL     1     -20.908  16.265   8.590  1.00  0.00    -0.408 N
ATOM      5  H1  UNL     1     -20.042  15.775   8.368  1.00  0.00     0.154 HD
BRANCH   4   6
HETATM    6  C2  UNL     1     -21.364  17.094   7.608  1.00  0.00     0.069 C
HETATM    7  C1  UNL     1     -20.494  18.148   7.023  1.00  0.00     0.031 C
HETATM    8  C3  UNL     1     -21.867  16.263   6.432  1.00  0.00     0.031 C
ENDBRANCH   4   6
ENDBRANCH   1   4
BRANCH   1   9
HETATM    9  C7  UNL     1     -22.140  14.705  10.054  1.00  0.00     0.212 C
HETATM   10  C8  UNL     1     -23.652  14.827  10.003  1.00  0.00     0.037 C
HETATM   11  C9  UNL     1     -24.126  13.401   9.686  1.00  0.00     0.029 C
HETATM   12  C10 UNL     1     -22.807  12.648   9.589  1.00  0.00     0.233 C
HETATM   13  N2  UNL     1     -21.964  13.709   9.007  1.00  0.00    -0.069 N
ATOM     14  H22 UNL     1     -22.189  14.001   8.055  1.00  0.00     0.277 HD
ATOM     15  H21 UNL     1     -21.004  13.455   8.774  1.00  0.00     0.277 HD
ENDBRANCH   1   9
TORSDOF 3
ENDMDL