MODEL 3
REMARK VINA RESULT: -6.873711102      1.502      1.962
REMARK  7 active torsions:
REMARK  status: ('A' for Active; 'I' for Inactive)
REMARK    1  A    between atoms: O1_2  and  C2_3
REMARK    2  A    between atoms: C2_3  and  C3_4
REMARK    3  A    between atoms: C3_4  and  S1_5
REMARK    4  A    between atoms: S1_5  and  C4_6
REMARK    5  A    between atoms: C8_19  and  C9_20
REMARK    6  A    between atoms: N6_28  and  C14_29
REMARK    7  A    between atoms: C14_29  and  C15_30
ROOT
HETATM    1  C4  UNL     1      32.539  51.514  46.046  1.00  0.00     0.117 A
HETATM    2  N1  UNL     1      32.418  52.780  45.622  1.00  0.00    -0.184 N
ATOM      3  H1  UNL     1      33.258  53.332  45.442  1.00  0.00     0.185 HD
HETATM    4  C5  UNL     1      31.189  53.341  45.427  1.00  0.00     0.678 A
HETATM    5  N2  UNL     1      31.093  54.568  45.016  1.00  0.00    -0.234 N
ATOM      6  H21 UNL     1      30.175  54.987  44.871  1.00  0.00     0.174 HD
ATOM      7  H22 UNL     1      31.954  55.088  44.847  1.00  0.00     0.174 HD
HETATM    8  N3  UNL     1      30.060  52.659  45.650  1.00  0.00    -0.174 N
ATOM      9  H3  UNL     1      29.152  53.100  45.498  1.00  0.00     0.186 HD
HETATM   10  C6  UNL     1      30.138  51.366  46.083  1.00  0.00     0.154 A
HETATM   11  C7  UNL     1      31.382  50.803  46.278  1.00  0.00     0.113 A
HETATM   12  N4  UNL     1      31.185  49.554  46.689  1.00  0.00    -0.340 N
ATOM     13  H4  UNL     1      31.929  48.893  46.913  1.00  0.00     0.167 HD
HETATM   14  C8  UNL     1      29.876  49.284  46.770  1.00  0.00     0.090 A
HETATM   15  N6  UNL     1      29.236  50.420  46.389  1.00  0.00    -0.320 N
ENDROOT
BRANCH  14  16
HETATM   16  C9  UNL     1      29.230  47.989  47.193  1.00  0.00     0.057 C
HETATM   17  C10 UNL     1      30.054  46.819  46.672  1.00  0.00     0.040 C
HETATM   18  C11 UNL     1      30.463  45.874  47.762  1.00  0.00     0.233 C
HETATM   19  N5  UNL     1      29.235  45.520  48.492  1.00  0.00    -0.075 N
HETATM   20  C12 UNL     1      28.908  46.663  49.306  1.00  0.00     0.233 C
ATOM     21  H52 UNL     1      28.473  45.224  47.883  1.00  0.00     0.277 HD
ATOM     22  H51 UNL     1      29.315  44.653  49.023  1.00  0.00     0.277 HD
HETATM   23  C13 UNL     1      29.283  47.973  48.701  1.00  0.00     0.040 C
ENDBRANCH  14  16
BRANCH  15  24
HETATM   24  C14 UNL     1      27.803  50.566  46.341  1.00  0.00     0.136 C
BRANCH  24  25
HETATM   25  C15 UNL     1      27.148  49.886  45.165  1.00  0.00     0.004 C
HETATM   26  C16 UNL     1      25.903  50.591  44.769  1.00  0.00     0.006 C
HETATM   27  C17 UNL     1      25.315  49.926  43.514  1.00  0.00     0.005 C
HETATM   28  C18 UNL     1      26.278  50.249  42.391  1.00  0.00    -0.019 C
HETATM   29  C19 UNL     1      25.684  49.763  41.097  1.00  0.00     0.010 C
HETATM   30  C20 UNL     1      27.547  49.457  42.714  1.00  0.00     0.005 C
HETATM   31  C21 UNL     1      28.130  49.890  44.011  1.00  0.00     0.006 C
ENDBRANCH  24  25
ENDBRANCH  15  24
BRANCH   1  32
HETATM   32  S1  UNL     1      34.106  50.714  46.322  1.00  0.00    -0.107 SA
BRANCH  32  33
HETATM   33  C3  UNL     1      34.312  50.495  48.109  1.00  0.00     0.107 C
BRANCH  33  34
HETATM   34  C2  UNL     1      33.954  51.749  48.869  1.00  0.00     0.177 C
BRANCH  34  35
HETATM   35  O1  UNL     1      32.788  51.520  49.597  1.00  0.00    -0.395 OA
HETATM   36  C1  UNL     1      31.940  52.618  49.576  1.00  0.00     0.201 C
ENDBRANCH  34  35
ENDBRANCH  33  34
ENDBRANCH  32  33
ENDBRANCH   1  32
TORSDOF 7
ENDMDL