MODEL 2
REMARK VINA RESULT: -7.965422676      2.022      3.297
REMARK  9 active torsions:
REMARK  status: ('A' for Active; 'I' for Inactive)
REMARK    1  A    between atoms: C2_2  and  C3_3
REMARK    2  A    between atoms: C2_2  and  C16_23
REMARK    3  A    between atoms: C3_3  and  C4_4
REMARK    4  A    between atoms: C4_4  and  O1_6
REMARK    5  A    between atoms: C4_4  and  C6_8
REMARK    6  A    between atoms: C7_9  and  C8_10
REMARK    7  A    between atoms: N1_12  and  C10_13
REMARK    8  A    between atoms: C17_24  and  O2_25
REMARK    9  A    between atoms: C19_29  and  O3_30
ROOT
HETATM    1  C4  UNL     1      27.028  48.220  46.367  1.00  0.00     0.076 C
HETATM    2  C5  UNL     1      26.176  48.441  47.505  1.00  0.00     0.050 C
ENDROOT
BRANCH   1   3
HETATM    3  C3  UNL     1      28.500  47.791  46.609  1.00  0.00     0.076 C
BRANCH   3   4
HETATM    4  C2  UNL     1      28.931  48.013  47.966  1.00  0.00    -0.063 C
HETATM    5  C1  UNL     1      29.177  46.926  48.962  1.00  0.00     0.044 C
BRANCH   4   6
HETATM    6  C16 UNL     1      30.048  49.021  48.140  1.00  0.00     0.052 A
HETATM    7  C17 UNL     1      31.401  48.834  48.149  1.00  0.00     0.103 A
HETATM    8  C18 UNL     1      32.028  50.098  48.183  1.00  0.00     0.048 A
HETATM    9  N4  UNL     1      31.056  51.020  48.187  1.00  0.00    -0.328 N
HETATM   10  C23 UNL     1      33.417  50.572  48.322  1.00  0.00     0.060 C
HETATM   11  C19 UNL     1      29.854  50.412  48.164  1.00  0.00     0.156 A
HETATM   12  C20 UNL     1      31.535  52.412  48.177  1.00  0.00     0.131 C
HETATM   13  C21 UNL     1      32.394  52.619  49.411  1.00  0.00     0.021 C
HETATM   14  C22 UNL     1      33.394  51.519  49.550  1.00  0.00     0.008 C
BRANCH   7  15
HETATM   15  O2  UNL     1      32.171  47.729  48.136  1.00  0.00    -0.358 OA
ATOM     16  H2  UNL     1      32.582  47.223  48.827  1.00  0.00     0.217 HD
ENDBRANCH   7  15
BRANCH  11  17
HETATM   17  O3  UNL     1      28.625  51.017  48.164  1.00  0.00    -0.345 OA
ATOM     18  H3  UNL     1      28.066  51.088  48.929  1.00  0.00     0.219 HD
ENDBRANCH  11  17
ENDBRANCH   4   6
ENDBRANCH   3   4
ENDBRANCH   1   3
BRANCH   1  19
HETATM   19  O1  UNL     1      27.321  49.650  45.939  1.00  0.00    -0.386 OA
ATOM     20  H1  UNL     1      26.418  49.923  45.822  1.00  0.00     0.211 HD
ENDBRANCH   1  19
BRANCH   1  21
HETATM   21  C6  UNL     1      26.600  47.653  45.109  1.00  0.00     0.013 C
HETATM   22  C7  UNL     1      26.956  46.344  44.609  1.00  0.00     0.031 C
BRANCH  22  23
HETATM   23  C8  UNL     1      26.682  45.115  45.336  1.00  0.00     0.066 A
HETATM   24  C9  UNL     1      25.643  44.808  46.224  1.00  0.00     0.143 A
HETATM   25  N1  UNL     1      25.746  43.494  46.575  1.00  0.00    -0.282 N
HETATM   26  N2  UNL     1      26.807  43.040  45.925  1.00  0.00    -0.240 N
HETATM   27  N3  UNL     1      27.363  43.963  45.201  1.00  0.00    -0.285 N
ATOM     28  H2  UNL     1      27.147  42.080  45.986  1.00  0.00     0.208 HD
ATOM     29  H3  UNL     1      28.191  43.834  44.619  1.00  0.00     0.188 HD
BRANCH  25  30
HETATM   30  C10 UNL     1      24.936  42.668  47.419  1.00  0.00     0.109 C
HETATM   31  C11 UNL     1      24.801  43.353  48.774  1.00  0.00     0.027 C
HETATM   32  C12 UNL     1      24.059  42.519  49.757  1.00  0.00     0.002 C
HETATM   33  C13 UNL     1      24.640  41.126  49.891  1.00  0.00     0.000 C
HETATM   34  C14 UNL     1      24.859  40.477  48.551  1.00  0.00     0.002 C
HETATM   35  C15 UNL     1      25.641  41.358  47.632  1.00  0.00     0.027 C
ENDBRANCH  25  30
ENDBRANCH  22  23
ENDBRANCH   1  21
TORSDOF 9
ENDMDL