MODEL 5
REMARK VINA RESULT: -6.758807485      2.287      3.156
REMARK  9 active torsions:
REMARK  status: ('A' for Active; 'I' for Inactive)
REMARK    1  A    between atoms: C4_4  and  C5_5
REMARK    2  A    between atoms: C5_5  and  C6_6
REMARK    3  A    between atoms: C6_6  and  C7_7
REMARK    4  A    between atoms: C9_9  and  C10_10
REMARK    5  A    between atoms: C10_10  and  C11_11
REMARK    6  A    between atoms: C12_12  and  O1_13
REMARK    7  A    between atoms: C13_15  and  O2_16
REMARK    8  A    between atoms: C14_18  and  C15_19
REMARK    9  A    between atoms: C15_19  and  N1_20
ROOT
HETATM    1  C11 UNL     1      29.241  47.613  47.746  1.00  0.00     0.032 C
HETATM    2  C12 UNL     1      30.635  47.745  47.850  1.00  0.00     0.110 C
HETATM    3  C13 UNL     1      31.385  48.926  47.916  1.00  0.00     0.113 C
HETATM    4  C14 UNL     1      30.862  50.238  47.899  1.00  0.00     0.038 C
HETATM    5  C18 UNL     1      29.706  50.609  47.266  1.00  0.00     0.062 A
HETATM    6  N2  UNL     1      29.834  51.839  46.757  1.00  0.00    -0.333 N
ATOM      7  H2  UNL     1      30.703  52.361  46.878  1.00  0.00     0.168 HD
HETATM    8  C19 UNL     1      28.802  52.381  46.085  1.00  0.00     0.171 A
HETATM    9  C20 UNL     1      27.600  51.686  45.906  1.00  0.00     0.082 A
HETATM   10  C21 UNL     1      27.455  50.417  46.425  1.00  0.00     0.051 A
HETATM   11  C22 UNL     1      28.517  49.881  47.107  1.00  0.00     0.045 A
HETATM   12  C23 UNL     1      28.279  48.587  47.557  1.00  0.00     0.193 C
HETATM   13  O3  UNL     1      27.078  48.343  47.792  1.00  0.00    -0.287 OA
HETATM   14  N3  UNL     1      26.689  52.486  45.164  1.00  0.00    -0.365 N
ATOM     15  H3  UNL     1      25.732  52.244  44.909  1.00  0.00     0.162 HD
HETATM   16  C24 UNL     1      27.399  53.730  44.839  1.00  0.00     0.300 A
HETATM   17  O4  UNL     1      28.644  53.611  45.457  1.00  0.00    -0.314 OA
ENDROOT
BRANCH   1  18
HETATM   18  C10 UNL     1      28.748  46.224  47.849  1.00  0.00     0.073 C
BRANCH  18  19
HETATM   19  C9  UNL     1      28.419  45.626  46.517  1.00  0.00    -0.019 C
HETATM   20  C7  UNL     1      27.236  45.055  46.259  1.00  0.00    -0.087 C
HETATM   21  C8  UNL     1      26.180  44.987  47.299  1.00  0.00     0.043 C
BRANCH  20  22
HETATM   22  C6  UNL     1      27.003  44.495  44.921  1.00  0.00     0.037 C
BRANCH  22  23
HETATM   23  C5  UNL     1      25.860  45.237  44.270  1.00  0.00     0.031 C
BRANCH  23  24
HETATM   24  C4  UNL     1      26.468  46.416  43.548  1.00  0.00    -0.024 C
HETATM   25  C2  UNL     1      26.099  47.650  43.861  1.00  0.00    -0.091 C
HETATM   26  C1  UNL     1      25.071  47.863  44.940  1.00  0.00     0.042 C
HETATM   27  C3  UNL     1      26.715  48.781  43.134  1.00  0.00     0.042 C
ENDBRANCH  23  24
ENDBRANCH  22  23
ENDBRANCH  20  22
ENDBRANCH  18  19
ENDBRANCH   1  18
BRANCH   2  28
HETATM   28  O1  UNL     1      31.270  46.532  47.889  1.00  0.00    -0.357 OA
ATOM     29  H1  UNL     1      31.480  46.262  48.776  1.00  0.00     0.217 HD
ENDBRANCH   2  28
BRANCH   3  30
HETATM   30  O2  UNL     1      32.731  48.819  48.005  1.00  0.00    -0.357 OA
ATOM     31  H2  UNL     1      33.220  48.678  47.203  1.00  0.00     0.217 HD
ENDBRANCH   3  30
BRANCH   4  32
HETATM   32  C15 UNL     1      31.667  51.211  48.577  1.00  0.00     0.075 C
BRANCH  32  33
HETATM   33  N1  UNL     1      32.852  51.718  48.015  1.00  0.00    -0.300 NA
HETATM   34  C16 UNL     1      32.720  53.129  47.608  1.00  0.00     0.115 C
HETATM   35  C17 UNL     1      33.912  51.692  49.005  1.00  0.00     0.115 C
ENDBRANCH  32  33
ENDBRANCH   4  32
TORSDOF 9
ENDMDL