MODEL 2
REMARK VINA RESULT: -6.852425458      3.380      5.127
REMARK  12 active torsions:
REMARK  status: ('A' for Active; 'I' for Inactive)
REMARK    1  A    between atoms: C2_3  and  S1_4
REMARK    2  A    between atoms: S1_4  and  C3_5
REMARK    3  A    between atoms: C7_9  and  C8_10
REMARK    4  A    between atoms: C8_10  and  O1_11
REMARK    5  A    between atoms: O1_11  and  C9_12
REMARK       I    between atoms: C9_12  and  N2_14
REMARK    6  A    between atoms: N2_14  and  C10_16
REMARK    7  A    between atoms: C10_16  and  C11_17
REMARK    8  A    between atoms: C11_17  and  O3_18
REMARK    9  A    between atoms: N3_20  and  O4_22
REMARK   10  A    between atoms: C14_26  and  N4_27
REMARK   11  A    between atoms: N4_27  and  N5_29
REMARK   12  A    between atoms: N5_29  and  N6_30
ROOT
HETATM    1  N1  UNL     1      25.297  40.019  47.935  1.00  0.00    -0.197 NA
HETATM    2  C1  UNL     1      24.848  41.079  47.843  1.00  0.00     0.069 C
HETATM    3  C2  UNL     1      24.295  42.444  47.730  1.00  0.00     0.197 C
ENDROOT
BRANCH   3   4
HETATM    4  S1  UNL     1      23.803  42.686  46.023  1.00  0.00    -0.150 SA
BRANCH   4   5
HETATM    5  C3  UNL     1      25.046  43.614  45.143  1.00  0.00     0.048 C
HETATM    6  C4  UNL     1      26.454  43.314  45.616  1.00  0.00     0.015 C
HETATM    7  C5  UNL     1      27.435  44.094  44.768  1.00  0.00     0.002 C
HETATM    8  C6  UNL     1      26.749  44.749  43.590  1.00  0.00     0.007 C
HETATM    9  C7  UNL     1      25.633  45.681  44.015  1.00  0.00     0.011 C
HETATM   10  C17 UNL     1      24.867  45.115  45.199  1.00  0.00     0.022 C
BRANCH   9  11
HETATM   11  C8  UNL     1      26.201  47.026  44.289  1.00  0.00     0.185 C
BRANCH  11  12
HETATM   12  O1  UNL     1      26.087  47.361  45.631  1.00  0.00    -0.304 OA
BRANCH  12  13
HETATM   13  C9  UNL     1      27.131  47.448  46.514  1.00  0.00     0.361 C
HETATM   14  O2  UNL     1      27.340  46.499  47.311  1.00  0.00    -0.238 OA
HETATM   15  N2  UNL     1      27.989  48.616  46.535  1.00  0.00    -0.320 N
ATOM     16  H2  UNL     1      27.822  49.388  45.889  1.00  0.00     0.166 HD
BRANCH  15  17
HETATM   17  C10 UNL     1      29.101  48.680  47.496  1.00  0.00     0.101 C
HETATM   18  C12 UNL     1      29.545  50.145  47.499  1.00  0.00     0.042 C
HETATM   19  C13 UNL     1      30.803  50.219  48.331  1.00  0.00     0.030 C
HETATM   20  C14 UNL     1      31.885  49.553  47.478  1.00  0.00     0.114 C
HETATM   21  C15 UNL     1      31.566  48.105  47.348  1.00  0.00     0.030 C
HETATM   22  C16 UNL     1      30.157  47.768  47.006  1.00  0.00     0.042 C
BRANCH  17  23
HETATM   23  C11 UNL     1      28.578  48.430  48.850  1.00  0.00     0.164 C
HETATM   24  N3  UNL     1      28.727  47.450  49.618  1.00  0.00    -0.249 N
ATOM     25  H3  UNL     1      28.239  47.560  50.507  1.00  0.00     0.196 HD
BRANCH  23  26
HETATM   26  O3  UNL     1      27.773  49.481  49.363  1.00  0.00    -0.346 OA
ATOM     27  H3  UNL     1      26.973  49.630  48.873  1.00  0.00     0.219 HD
ENDBRANCH  23  26
BRANCH  24  28
HETATM   28  O4  UNL     1      29.384  46.300  49.522  1.00  0.00    -0.288 OA
ATOM     29  H4  UNL     1      29.312  45.462  49.966  1.00  0.00     0.244 HD
ENDBRANCH  24  28
ENDBRANCH  17  23
BRANCH  20  30
HETATM   30  N4  UNL     1      33.158  49.694  48.161  1.00  0.00    -0.248 N
ATOM     31  H4  UNL     1      33.952  49.120  47.879  1.00  0.00     0.197 HD
BRANCH  30  32
HETATM   32  N5  UNL     1      33.283  50.506  49.082  1.00  0.00    -0.248 NA
BRANCH  32  33
HETATM   33  N6  UNL     1      33.530  51.437  49.861  1.00  0.00    -0.261 N
ATOM     34  H62 UNL     1      33.740  52.029  49.057  1.00  0.00     0.193 HD
ATOM     35  H61 UNL     1      33.692  52.082  50.633  1.00  0.00     0.193 HD
ENDBRANCH  32  33
ENDBRANCH  30  32
ENDBRANCH  20  30
ENDBRANCH  15  17
ENDBRANCH  12  13
ENDBRANCH  11  12
ENDBRANCH   9  11
ENDBRANCH   4   5
ENDBRANCH   3   4
TORSDOF 12
ENDMDL