MODEL 4
REMARK VINA RESULT: -6.603143933      3.883      5.911
REMARK  8 active torsions:
REMARK  status: ('A' for Active; 'I' for Inactive)
REMARK    1  A    between atoms: C2_2  and  C3_3
REMARK    2  A    between atoms: C5_5  and  C6_6
REMARK    3  A    between atoms: C10_13  and  C11_14
REMARK    4  A    between atoms: C13_16  and  O1_17
REMARK    5  A    between atoms: C15_19  and  O2_20
REMARK    6  A    between atoms: C17_22  and  O3_23
REMARK    7  A    between atoms: C21_29  and  O4_30
REMARK    8  A    between atoms: C23_32  and  O5_33
ROOT
HETATM    1  C6  UNL     1      28.898  51.339  45.714  1.00  0.00     0.315 C
HETATM    2  N1  UNL     1      28.187  52.142  46.671  1.00  0.00    -0.046 N
ATOM      3  H11 UNL     1      28.820  52.729  47.215  1.00  0.00     0.280 HD
ATOM      4  H12 UNL     1      27.810  51.577  47.432  1.00  0.00     0.280 HD
HETATM    5  C7  UNL     1      27.156  52.924  46.024  1.00  0.00     0.187 C
HETATM    6  C8  UNL     1      27.700  53.988  45.103  1.00  0.00     0.040 C
HETATM    7  C9  UNL     1      26.188  52.008  45.375  1.00  0.00     0.062 C
HETATM    8  C10 UNL     1      26.686  50.672  44.969  1.00  0.00     0.114 C
HETATM    9  N2  UNL     1      28.075  50.440  44.976  1.00  0.00    -0.384 N
ATOM     10  H2  UNL     1      28.479  49.653  44.469  1.00  0.00     0.156 HD
ENDROOT
BRANCH   1  11
HETATM   11  C5  UNL     1      30.034  50.688  46.418  1.00  0.00    -0.006 A
HETATM   12  C4  UNL     1      31.358  50.983  46.126  1.00  0.00     0.021 A
HETATM   13  C3  UNL     1      32.406  50.372  46.784  1.00  0.00    -0.022 A
HETATM   14  C23 UNL     1      32.174  49.436  47.768  1.00  0.00     0.105 A
HETATM   15  C21 UNL     1      30.873  49.123  48.081  1.00  0.00     0.102 A
HETATM   16  C20 UNL     1      29.843  49.748  47.408  1.00  0.00     0.050 A
BRANCH  13  17
HETATM   17  C2  UNL     1      33.812  50.756  46.404  1.00  0.00     0.037 C
HETATM   18  C1  UNL     1      33.861  52.120  45.791  1.00  0.00     0.010 C
ENDBRANCH  13  17
BRANCH  14  19
HETATM   19  O5  UNL     1      33.263  48.853  48.399  1.00  0.00    -0.357 OA
ATOM     20  H5  UNL     1      33.115  48.098  48.956  1.00  0.00     0.217 HD
ENDBRANCH  14  19
BRANCH  15  21
HETATM   21  O4  UNL     1      30.645  48.173  49.081  1.00  0.00    -0.353 OA
HETATM   22  C22 UNL     1      29.362  47.564  49.097  1.00  0.00     0.210 C
ENDBRANCH  15  21
ENDBRANCH   1  11
BRANCH   8  23
HETATM   23  C11 UNL     1      26.180  50.408  43.589  1.00  0.00    -0.030 A
HETATM   24  C12 UNL     1      24.877  50.676  43.225  1.00  0.00     0.049 A
HETATM   25  C13 UNL     1      24.401  50.430  41.951  1.00  0.00     0.104 A
HETATM   26  C15 UNL     1      25.242  49.898  40.996  1.00  0.00     0.135 A
HETATM   27  C17 UNL     1      26.540  49.623  41.328  1.00  0.00     0.104 A
HETATM   28  C19 UNL     1      27.004  49.878  42.620  1.00  0.00     0.049 A
BRANCH  25  29
HETATM   29  O1  UNL     1      23.077  50.725  41.656  1.00  0.00    -0.353 OA
HETATM   30  C14 UNL     1      22.032  50.215  42.439  1.00  0.00     0.210 C
ENDBRANCH  25  29
BRANCH  26  31
HETATM   31  O2  UNL     1      24.721  49.668  39.734  1.00  0.00    -0.351 OA
HETATM   32  C16 UNL     1      24.743  50.651  38.713  1.00  0.00     0.210 C
ENDBRANCH  26  31
BRANCH  27  33
HETATM   33  O3  UNL     1      27.357  49.091  40.348  1.00  0.00    -0.353 OA
HETATM   34  C18 UNL     1      28.531  49.744  39.899  1.00  0.00     0.210 C
ENDBRANCH  27  33
ENDBRANCH   8  23
TORSDOF 8
ENDMDL