MODEL 1
REMARK VINA RESULT: -7.204898797      0.000      0.000
REMARK  9 active torsions:
REMARK  status: ('A' for Active; 'I' for Inactive)
REMARK    1  A    between atoms: O1_2  and  C2_3
REMARK    2  A    between atoms: C4_5  and  O2_6
REMARK    3  A    between atoms: O2_6  and  C5_7
REMARK    4  A    between atoms: C5_7  and  C6_8
REMARK    5  A    between atoms: C6_8  and  C9_11
REMARK    6  A    between atoms: C9_11  and  O3_12
REMARK    7  A    between atoms: C18_23  and  O5_24
REMARK    8  A    between atoms: C19_26  and  O6_27
REMARK    9  A    between atoms: C20_29  and  O7_30
ROOT
HETATM    1  C2  UNL     1      27.238  51.670  45.118  1.00  0.00     0.071 A
HETATM    2  C3  UNL     1      28.173  52.585  45.544  1.00  0.00     0.074 A
HETATM    3  C4  UNL     1      29.455  52.257  45.978  1.00  0.00     0.083 A
HETATM    4  C10 UNL     1      29.733  50.919  45.954  1.00  0.00     0.019 A
HETATM    5  C11 UNL     1      28.779  49.965  45.528  1.00  0.00    -0.019 A
HETATM    6  C12 UNL     1      27.550  50.346  45.112  1.00  0.00     0.049 A
HETATM    7  C13 UNL     1      28.917  48.577  45.656  1.00  0.00     0.023 C
HETATM    8  C14 UNL     1      29.578  47.935  46.712  1.00  0.00    -0.010 C
HETATM    9  C15 UNL     1      29.158  46.541  46.917  1.00  0.00     0.052 C
HETATM   10  C16 UNL     1      30.557  48.462  47.553  1.00  0.00     0.191 C
HETATM   11  O4  UNL     1      30.754  47.927  48.632  1.00  0.00    -0.287 OA
HETATM   12  C17 UNL     1      31.334  49.559  47.248  1.00  0.00     0.062 A
HETATM   13  C18 UNL     1      32.620  49.453  47.703  1.00  0.00     0.116 A
HETATM   14  C19 UNL     1      33.545  50.375  47.335  1.00  0.00     0.133 A
HETATM   15  C20 UNL     1      33.192  51.460  46.472  1.00  0.00     0.105 A
HETATM   16  C22 UNL     1      31.900  51.584  46.009  1.00  0.00     0.053 A
HETATM   17  C23 UNL     1      31.008  50.643  46.408  1.00  0.00    -0.003 A
ENDROOT
BRANCH   3  18
HETATM   18  O2  UNL     1      30.293  53.209  46.387  1.00  0.00    -0.349 OA
BRANCH  18  19
HETATM   19  C5  UNL     1      30.484  54.130  47.343  1.00  0.00     0.186 C
BRANCH  19  20
HETATM   20  C6  UNL     1      31.114  54.208  48.619  1.00  0.00    -0.004 C
HETATM   21  C7  UNL     1      31.014  52.876  49.430  1.00  0.00     0.019 C
HETATM   22  C8  UNL     1      30.204  55.152  49.501  1.00  0.00     0.019 C
BRANCH  20  23
HETATM   23  C9  UNL     1      32.478  54.679  48.928  1.00  0.00     0.175 C
BRANCH  23  24
HETATM   24  O3  UNL     1      33.436  53.720  49.024  1.00  0.00    -0.400 OA
ATOM     25  H3  UNL     1      34.045  53.662  48.298  1.00  0.00     0.209 HD
ENDBRANCH  23  24
ENDBRANCH  20  23
ENDBRANCH  19  20
ENDBRANCH  18  19
ENDBRANCH   3  18
BRANCH   1  26
HETATM   26  O1  UNL     1      25.973  52.076  44.690  1.00  0.00    -0.356 OA
HETATM   27  C1  UNL     1      25.495  51.578  43.461  1.00  0.00     0.210 C
ENDBRANCH   1  26
BRANCH  13  28
HETATM   28  O5  UNL     1      32.878  48.365  48.538  1.00  0.00    -0.357 OA
ATOM     29  H5  UNL     1      33.749  47.992  48.470  1.00  0.00     0.217 HD
ENDBRANCH  13  28
BRANCH  15  30
HETATM   30  O7  UNL     1      34.191  52.318  46.149  1.00  0.00    -0.353 OA
HETATM   31  C21 UNL     1      34.296  53.630  45.865  1.00  0.00     0.210 C
ENDBRANCH  15  30
BRANCH  14  32
HETATM   32  O6  UNL     1      34.851  50.300  47.778  1.00  0.00    -0.356 OA
ATOM     33  H6  UNL     1      35.430  51.051  47.740  1.00  0.00     0.218 HD
ENDBRANCH  14  32
TORSDOF 9
ENDMDL