MODEL 4
REMARK VINA RESULT: -6.754493469      1.719      2.699
REMARK  10 active torsions:
REMARK  status: ('A' for Active; 'I' for Inactive)
REMARK    1  A    between atoms: C2_2  and  O1_3
REMARK    2  A    between atoms: O1_3  and  C3_4
REMARK    3  A    between atoms: C4_5  and  O2_6
REMARK    4  A    between atoms: C7_9  and  C8_10
REMARK    5  A    between atoms: C8_10  and  C9_11
REMARK    6  A    between atoms: C10_12  and  C11_13
REMARK    7  A    between atoms: C13_18  and  O4_19
REMARK    8  A    between atoms: C14_21  and  C15_22
REMARK    9  A    between atoms: C19_27  and  O5_28
REMARK   10  A    between atoms: C21_31  and  O6_32
ROOT
HETATM    1  C9  UNL     1      28.920  48.888  47.779  1.00  0.00     0.015 A
HETATM    2  C10 UNL     1      29.920  47.961  47.814  1.00  0.00     0.057 A
HETATM    3  C12 UNL     1      31.099  48.672  47.940  1.00  0.00     0.130 A
HETATM    4  N1  UNL     1      32.426  48.498  48.031  1.00  0.00    -0.320 N
ATOM      5  H1  UNL     1      32.912  47.600  48.026  1.00  0.00     0.169 HD
HETATM    6  C13 UNL     1      33.001  49.690  48.129  1.00  0.00     0.166 A
HETATM    7  C14 UNL     1      32.001  50.689  48.102  1.00  0.00     0.079 A
HETATM    8  N2  UNL     1      30.848  50.003  47.984  1.00  0.00    -0.275 N
HETATM    9  C19 UNL     1      29.522  50.161  47.887  1.00  0.00     0.156 A
ENDROOT
BRANCH   1  10
HETATM   10  C8  UNL     1      27.473  48.689  47.632  1.00  0.00     0.082 C
BRANCH  10  11
HETATM   11  C7  UNL     1      26.974  48.760  46.235  1.00  0.00    -0.048 A
HETATM   12  C6  UNL     1      27.118  47.704  45.375  1.00  0.00     0.047 A
HETATM   13  C4  UNL     1      26.637  47.831  44.086  1.00  0.00     0.104 A
HETATM   14  C3  UNL     1      26.016  48.986  43.634  1.00  0.00     0.135 A
HETATM   15  C21 UNL     1      25.867  50.051  44.486  1.00  0.00     0.104 A
HETATM   16  C20 UNL     1      26.349  49.908  45.764  1.00  0.00     0.047 A
BRANCH  13  17
HETATM   17  O2  UNL     1      26.791  46.737  43.211  1.00  0.00    -0.353 OA
HETATM   18  C5  UNL     1      26.478  45.460  43.682  1.00  0.00     0.210 C
ENDBRANCH  13  17
BRANCH  14  19
HETATM   19  O1  UNL     1      25.574  49.017  42.341  1.00  0.00    -0.346 OA
BRANCH  19  20
HETATM   20  C2  UNL     1      26.078  49.757  41.279  1.00  0.00     0.171 C
HETATM   21  C1  UNL     1      27.530  49.583  40.990  1.00  0.00     0.034 C
ENDBRANCH  19  20
ENDBRANCH  14  19
BRANCH  15  22
HETATM   22  O6  UNL     1      25.242  51.242  44.065  1.00  0.00    -0.353 OA
HETATM   23  C22 UNL     1      26.007  52.420  43.930  1.00  0.00     0.210 C
ENDBRANCH  15  22
ENDBRANCH  10  11
ENDBRANCH   1  10
BRANCH   2  24
HETATM   24  C11 UNL     1      29.807  46.492  47.761  1.00  0.00     0.274 C
HETATM   25  O3  UNL     1      30.677  45.869  47.109  1.00  0.00    -0.301 OA
ENDBRANCH   2  24
BRANCH   9  26
HETATM   26  O5  UNL     1      28.809  51.355  47.886  1.00  0.00    -0.345 OA
ATOM     27  H5  UNL     1      29.054  52.116  48.398  1.00  0.00     0.219 HD
ENDBRANCH   9  26
BRANCH   7  28
HETATM   28  C15 UNL     1      32.356  52.108  48.185  1.00  0.00    -0.004 C
HETATM   29  C16 UNL     1      31.671  52.708  49.403  1.00  0.00     0.021 C
HETATM   30  C17 UNL     1      31.676  52.858  46.991  1.00  0.00     0.021 C
HETATM   31  C18 UNL     1      33.788  52.485  48.097  1.00  0.00     0.021 C
ENDBRANCH   7  28
BRANCH   6  32
HETATM   32  O4  UNL     1      34.359  49.908  48.239  1.00  0.00    -0.345 OA
ATOM     33  H4  UNL     1      35.022  49.497  47.698  1.00  0.00     0.219 HD
ENDBRANCH   6  32
TORSDOF 10
ENDMDL