MODEL 1
REMARK VINA RESULT: -6.563378267      0.000      0.000
REMARK  10 active torsions:
REMARK  status: ('A' for Active; 'I' for Inactive)
REMARK    1  A    between atoms: C2_2  and  N1_3
REMARK    2  A    between atoms: N1_3  and  C3_4
REMARK    3  A    between atoms: N1_3  and  C7_8
REMARK    4  A    between atoms: C3_4  and  C4_5
REMARK    5  A    between atoms: C9_10  and  O1_11
REMARK    6  A    between atoms: C10_13  and  O2_14
REMARK    7  A    between atoms: C14_18  and  O3_19
REMARK    8  A    between atoms: C16_23  and  C17_24
REMARK    9  A    between atoms: C20_27  and  O5_28
REMARK   10  A    between atoms: C21_30  and  O6_31
ROOT
HETATM    1  C7  UNL     1      27.195  47.731  45.908  1.00  0.00     0.156 C
HETATM    2  C8  UNL     1      26.889  48.694  44.844  1.00  0.00     0.040 A
HETATM    3  C9  UNL     1      26.728  48.521  43.490  1.00  0.00     0.111 A
HETATM    4  C10 UNL     1      26.469  49.634  42.714  1.00  0.00     0.110 A
HETATM    5  C12 UNL     1      26.363  50.921  43.241  1.00  0.00     0.010 A
HETATM    6  C13 UNL     1      26.084  52.082  42.326  1.00  0.00     0.054 C
HETATM    7  C14 UNL     1      26.529  51.053  44.599  1.00  0.00     0.108 A
HETATM    8  C15 UNL     1      26.789  49.957  45.396  1.00  0.00     0.114 A
HETATM    9  O4  UNL     1      26.987  49.875  46.776  1.00  0.00    -0.335 OA
HETATM   10  C16 UNL     1      27.528  48.620  47.073  1.00  0.00     0.189 C
ENDROOT
BRANCH  10  11
HETATM   11  C17 UNL     1      28.992  48.708  47.362  1.00  0.00    -0.024 A
HETATM   12  C18 UNL     1      29.823  47.618  47.184  1.00  0.00     0.013 A
HETATM   13  C19 UNL     1      31.186  47.689  47.460  1.00  0.00     0.040 A
HETATM   14  C20 UNL     1      31.767  48.846  47.923  1.00  0.00     0.099 A
HETATM   15  C21 UNL     1      30.936  49.943  48.102  1.00  0.00     0.101 A
HETATM   16  C23 UNL     1      29.586  49.862  47.825  1.00  0.00     0.049 A
BRANCH  14  17
HETATM   17  O5  UNL     1      33.125  48.945  48.208  1.00  0.00    -0.358 OA
ATOM     18  H5  UNL     1      33.788  48.465  47.726  1.00  0.00     0.217 HD
ENDBRANCH  14  17
BRANCH  15  19
HETATM   19  O6  UNL     1      31.536  51.100  48.572  1.00  0.00    -0.353 OA
HETATM   20  C22 UNL     1      31.772  52.203  47.706  1.00  0.00     0.210 C
ENDBRANCH  15  19
ENDBRANCH  10  11
BRANCH   1  21
HETATM   21  N1  UNL     1      26.294  46.698  46.171  1.00  0.00    -0.382 N
BRANCH  21  22
HETATM   22  C2  UNL     1      24.980  46.821  46.546  1.00  0.00     0.054 C
HETATM   23  C1  UNL     1      23.884  46.908  45.545  1.00  0.00     0.054 C
ENDBRANCH  21  22
BRANCH  21  24
HETATM   24  C3  UNL     1      26.938  45.450  46.414  1.00  0.00     0.127 C
BRANCH  24  25
HETATM   25  C4  UNL     1      26.560  44.286  45.579  1.00  0.00     0.003 A
HETATM   26  C5  UNL     1      26.083  44.313  44.203  1.00  0.00     0.007 A
HETATM   27  C6  UNL     1      27.527  43.917  44.421  1.00  0.00     0.007 A
ENDBRANCH  24  25
ENDBRANCH  21  24
ENDBRANCH   1  21
BRANCH   3  28
HETATM   28  O1  UNL     1      26.817  47.265  42.880  1.00  0.00    -0.357 OA
ATOM     29  H1  UNL     1      26.223  46.992  42.190  1.00  0.00     0.217 HD
ENDBRANCH   3  28
BRANCH   7  30
HETATM   30  O3  UNL     1      26.428  52.324  45.144  1.00  0.00    -0.357 OA
ATOM     31  H3  UNL     1      26.994  52.540  45.875  1.00  0.00     0.217 HD
ENDBRANCH   7  30
BRANCH   4  32
HETATM   32  O2  UNL     1      26.310  49.448  41.357  1.00  0.00    -0.352 OA
HETATM   33  C11 UNL     1      27.377  49.475  40.427  1.00  0.00     0.210 C
ENDBRANCH   4  32
TORSDOF 10
ENDMDL