MODEL 2
REMARK VINA RESULT: -7.342845892      3.673      9.740
REMARK  9 active torsions:
REMARK  status: ('A' for Active; 'I' for Inactive)
REMARK    1  A    between atoms: C2_2  and  C3_3
REMARK    2  A    between atoms: C3_3  and  O1_4
REMARK    3  A    between atoms: O1_4  and  C4_5
REMARK    4  A    between atoms: C7_8  and  C8_9
REMARK    5  A    between atoms: C12_16  and  C13_17
REMARK    6  A    between atoms: C13_17  and  N2_18
REMARK    7  A    between atoms: C14_19  and  O2_20
REMARK    8  A    between atoms: C17_24  and  O3_25
REMARK    9  A    between atoms: C22_32  and  O5_33
ROOT
HETATM    1  C8  UNL     1      25.701  43.140  47.796  1.00  0.00     0.159 C
HETATM    2  C9  UNL     1      26.139  43.034  46.329  1.00  0.00     0.069 C
HETATM    3  C10 UNL     1      26.609  44.391  45.919  1.00  0.00     0.187 C
HETATM    4  C11 UNL     1      27.376  44.292  44.594  1.00  0.00     0.040 C
HETATM    5  N1  UNL     1      27.517  45.002  46.863  1.00  0.00    -0.043 N
ATOM      6  H11 UNL     1      27.610  46.000  46.676  1.00  0.00     0.280 HD
ATOM      7  H12 UNL     1      28.475  44.703  46.683  1.00  0.00     0.280 HD
HETATM    8  C12 UNL     1      27.169  44.779  48.228  1.00  0.00     0.340 C
HETATM    9  O4  UNL     1      26.852  43.456  48.515  1.00  0.00    -0.348 OA
ENDROOT
BRANCH   8  10
HETATM   10  C13 UNL     1      28.358  45.157  49.088  1.00  0.00     0.194 C
BRANCH  10  11
HETATM   11  N2  UNL     1      29.016  46.347  48.613  1.00  0.00    -0.303 N
HETATM   12  C14 UNL     1      28.637  47.606  48.820  1.00  0.00     0.151 A
HETATM   13  C15 UNL     1      29.526  48.450  48.203  1.00  0.00     0.004 A
HETATM   14  C16 UNL     1      30.461  47.645  47.612  1.00  0.00     0.004 A
HETATM   15  C20 UNL     1      29.884  49.881  47.917  1.00  0.00     0.044 C
HETATM   16  C17 UNL     1      30.125  46.363  47.878  1.00  0.00     0.151 A
HETATM   17  C18 UNL     1      31.484  48.482  46.907  1.00  0.00     0.044 C
HETATM   18  C19 UNL     1      31.379  49.785  47.663  1.00  0.00     0.009 C
BRANCH  12  19
HETATM   19  O2  UNL     1      27.537  48.092  49.531  1.00  0.00    -0.345 OA
ATOM     20  H2  UNL     1      26.848  48.679  49.244  1.00  0.00     0.219 HD
ENDBRANCH  12  19
BRANCH  16  21
HETATM   21  O3  UNL     1      30.838  45.235  47.445  1.00  0.00    -0.345 OA
ATOM     22  H3  UNL     1      31.677  44.944  47.784  1.00  0.00     0.219 HD
ENDBRANCH  16  21
ENDBRANCH  10  11
ENDBRANCH   8  10
BRANCH   1  23
HETATM   23  C7  UNL     1      25.048  41.918  48.267  1.00  0.00    -0.026 A
HETATM   24  C6  UNL     1      24.732  41.778  49.603  1.00  0.00     0.012 A
HETATM   25  C5  UNL     1      24.108  40.626  50.084  1.00  0.00     0.040 A
HETATM   26  C4  UNL     1      23.798  39.601  49.207  1.00  0.00     0.102 A
HETATM   27  C22 UNL     1      24.113  39.742  47.873  1.00  0.00     0.102 A
HETATM   28  C21 UNL     1      24.737  40.904  47.411  1.00  0.00     0.049 A
BRANCH  26  29
HETATM   29  O1  UNL     1      23.186  38.451  49.631  1.00  0.00    -0.348 OA
BRANCH  29  30
HETATM   30  C3  UNL     1      22.825  38.157  50.947  1.00  0.00     0.175 C
BRANCH  30  31
HETATM   31  C2  UNL     1      22.725  36.634  51.052  1.00  0.00     0.022 C
HETATM   32  C1  UNL     1      23.734  35.952  50.188  1.00  0.00     0.007 C
ENDBRANCH  30  31
ENDBRANCH  29  30
ENDBRANCH  26  29
BRANCH  27  33
HETATM   33  O5  UNL     1      23.796  38.706  47.006  1.00  0.00    -0.353 OA
HETATM   34  C23 UNL     1      23.055  39.011  45.824  1.00  0.00     0.210 C
ENDBRANCH  27  33
ENDBRANCH   1  23
TORSDOF 9
ENDMDL