MODEL 5
REMARK VINA RESULT: -6.048067473      3.049      6.800
REMARK  9 active torsions:
REMARK  status: ('A' for Active; 'I' for Inactive)
REMARK    1  A    between atoms: C2_2  and  C3_3
REMARK    2  A    between atoms: C4_4  and  O1_5
REMARK    3  A    between atoms: C9_10  and  O2_11
REMARK    4  A    between atoms: C10_13  and  C11_14
REMARK    5  A    between atoms: C13_16  and  O3_17
REMARK    6  A    between atoms: C15_19  and  O4_20
REMARK    7  A    between atoms: C17_22  and  O5_23
REMARK    8  A    between atoms: C20_26  and  C21_27
REMARK    9  A    between atoms: C22_30  and  O8_31
ROOT
HETATM    1  C3  UNL     1      31.084  52.255  45.689  1.00  0.00     0.030 A
HETATM    2  C4  UNL     1      32.405  51.919  45.795  1.00  0.00     0.081 A
HETATM    3  C6  UNL     1      32.792  50.711  46.365  1.00  0.00     0.048 A
HETATM    4  C7  UNL     1      31.829  49.845  46.827  1.00  0.00    -0.016 A
HETATM    5  C8  UNL     1      30.505  50.182  46.722  1.00  0.00    -0.006 A
HETATM    6  C9  UNL     1      30.103  51.375  46.159  1.00  0.00     0.086 A
HETATM    7  C10 UNL     1      29.735  49.043  47.326  1.00  0.00     0.072 C
HETATM    8  C20 UNL     1      30.609  47.878  47.019  1.00  0.00     0.133 C
HETATM    9  C22 UNL     1      31.961  48.470  47.472  1.00  0.00     0.167 C
ENDROOT
BRANCH   7  10
HETATM   10  C11 UNL     1      28.361  48.932  46.865  1.00  0.00    -0.043 A
HETATM   11  C12 UNL     1      27.341  49.293  47.723  1.00  0.00     0.047 A
HETATM   12  C13 UNL     1      26.006  49.219  47.370  1.00  0.00     0.104 A
HETATM   13  C15 UNL     1      25.702  48.761  46.098  1.00  0.00     0.135 A
HETATM   14  C17 UNL     1      26.685  48.390  45.207  1.00  0.00     0.104 A
HETATM   15  C19 UNL     1      27.997  48.482  45.606  1.00  0.00     0.047 A
BRANCH  12  16
HETATM   16  O3  UNL     1      25.000  49.582  48.234  1.00  0.00    -0.353 OA
HETATM   17  C14 UNL     1      24.875  49.115  49.551  1.00  0.00     0.210 C
ENDBRANCH  12  16
BRANCH  13  18
HETATM   18  O4  UNL     1      24.359  48.681  45.725  1.00  0.00    -0.351 OA
HETATM   19  C16 UNL     1      23.576  47.534  45.970  1.00  0.00     0.210 C
ENDBRANCH  13  18
BRANCH  14  20
HETATM   20  O5  UNL     1      26.332  47.939  43.949  1.00  0.00    -0.353 OA
HETATM   21  C18 UNL     1      26.407  46.537  43.689  1.00  0.00     0.210 C
ENDBRANCH  14  20
ENDBRANCH   7  10
BRANCH   8  22
HETATM   22  C21 UNL     1      30.286  46.671  47.816  1.00  0.00     0.180 C
HETATM   23  O6  UNL     1      30.490  45.524  47.390  1.00  0.00    -0.648 OA
HETATM   24  O7  UNL     1      29.739  46.844  49.072  1.00  0.00    -0.648 OA
ENDBRANCH   8  22
BRANCH   6  25
HETATM   25  O2  UNL     1      28.787  51.671  46.072  1.00  0.00    -0.359 OA
ATOM     26  H2  UNL     1      28.402  52.377  46.577  1.00  0.00     0.217 HD
ENDBRANCH   6  25
BRANCH   9  27
HETATM   27  O8  UNL     1      31.931  48.679  48.835  1.00  0.00    -0.390 OA
ATOM     28  H8  UNL     1      32.012  47.822  49.237  1.00  0.00     0.210 HD
ENDBRANCH   9  27
BRANCH   1  29
HETATM   29  C2  UNL     1      30.608  53.474  45.088  1.00  0.00     0.007 C
HETATM   30  C1  UNL     1      30.552  54.648  45.662  1.00  0.00     0.012 C
ENDBRANCH   1  29
BRANCH   2  31
HETATM   31  O1  UNL     1      33.370  52.793  45.333  1.00  0.00    -0.355 OA
HETATM   32  C5  UNL     1      34.313  53.312  46.246  1.00  0.00     0.210 C
ENDBRANCH   2  31
TORSDOF 9
ENDMDL