MODEL 2
REMARK VINA RESULT: -7.265135439      4.057      8.508
REMARK  5 active torsions:
REMARK  status: ('A' for Active; 'I' for Inactive)
REMARK    1  A    between atoms: C2_2  and  C3_3
REMARK    2  A    between atoms: C3_3  and  C4_4
REMARK    3  A    between atoms: C4_4  and  N1_5
REMARK       I    between atoms: C5_7  and  N2_8
REMARK       I    between atoms: C5_7  and  N3_11
REMARK    4  A    between atoms: N3_11  and  N4_13
REMARK    5  A    between atoms: C10_21  and  C11_22
ROOT
HETATM    1  N4  UNL     1      34.973   7.936  24.313  1.00  0.00    -0.265 N
ATOM      2  H4  UNL     1      35.028   7.715  25.307  1.00  0.00     0.189 HD
HETATM    3  C7  UNL     1      35.325   7.034  23.476  1.00  0.00     0.165 C
HETATM    4  N5  UNL     1      35.367   7.017  22.063  1.00  0.00    -0.325 N
ATOM      5  H5  UNL     1      35.326   7.878  21.515  1.00  0.00     0.169 HD
HETATM    6  C8  UNL     1      35.466   5.776  21.459  1.00  0.00     0.119 C
HETATM    7  S1  UNL     1      35.528   5.554  19.815  1.00  0.00    -0.059 SA
HETATM    8  C9  UNL     1      35.516   4.633  22.346  1.00  0.00     0.048 C
HETATM    9  C10 UNL     1      35.331   3.348  22.114  1.00  0.00     0.043 C
HETATM   10  S4  UNL     1      35.912   5.384  23.950  1.00  0.00    -0.050 SA
ENDROOT
BRANCH   1  11
HETATM   11  N3  UNL     1      34.518   9.198  23.950  1.00  0.00    -0.131 N
HETATM   12  C5  UNL     1      33.218   9.591  24.326  1.00  0.00     0.688 C
HETATM   13  N1  UNL     1      32.832  10.805  24.236  1.00  0.00    -0.225 N
HETATM   14  N2  UNL     1      32.313   8.627  24.814  1.00  0.00    -0.229 N
ATOM     15  H1  UNL     1      31.883  11.053  24.518  1.00  0.00     0.177 HD
HETATM   16  C6  UNL     1      31.700   8.816  26.102  1.00  0.00     0.165 C
ATOM     17  H2  UNL     1      32.094   7.801  24.258  1.00  0.00     0.177 HD
ATOM     18  H3  UNL     1      35.117   9.832  23.421  1.00  0.00     0.205 HD
BRANCH  13  19
HETATM   19  C4  UNL     1      33.718  11.833  23.743  1.00  0.00     0.138 C
BRANCH  19  20
HETATM   20  C3  UNL     1      32.891  13.105  23.577  1.00  0.00     0.020 C
BRANCH  20  21
HETATM   21  C2  UNL     1      31.491  12.679  23.150  1.00  0.00    -0.003 C
HETATM   22  C1  UNL     1      31.435  12.679  21.619  1.00  0.00     0.005 C
ENDBRANCH  20  21
ENDBRANCH  19  20
ENDBRANCH  13  19
ENDBRANCH   1  11
BRANCH   9  23
HETATM   23  C11 UNL     1      35.430   2.342  23.179  1.00  0.00     0.042 A
HETATM   24  S2  UNL     1      34.215   1.293  23.738  1.00  0.00    -0.049 SA
HETATM   25  S3  UNL     1      35.734   0.738  24.939  1.00  0.00    -0.039 SA
HETATM   26  C12 UNL     1      36.472   1.965  24.000  1.00  0.00     0.099 A
HETATM   27 CL1  UNL     1      38.152   2.503  24.157  1.00  0.00    -0.074 Cl
ENDBRANCH   9  23
TORSDOF 5
ENDMDL