MODEL 3
REMARK VINA RESULT: -8.660266158      3.199      9.202
REMARK  7 active torsions:
REMARK  status: ('A' for Active; 'I' for Inactive)
REMARK    1  A    between atoms: C3_3  and  C5_6
REMARK    2  A    between atoms: C5_6  and  S1_10
REMARK    3  A    between atoms: S1_10  and  C6_11
REMARK    4  A    between atoms: C6_11  and  C7_12
REMARK    5  A    between atoms: C9_16  and  C10_17
REMARK    6  A    between atoms: N4_19  and  C12_20
REMARK    7  A    between atoms: C17_27  and  N6_28
ROOT
HETATM    1  C1  UNL     1      32.901  13.908  23.612  1.00  0.00     0.098 C
HETATM    2  C2  UNL     1      32.159  13.070  23.109  1.00  0.00    -0.162 C
HETATM    3  C3  UNL     1      31.262  12.098  22.496  1.00  0.00     0.214 C
HETATM    4  C4  UNL     1      30.438  12.749  21.454  1.00  0.00     0.082 C
HETATM    5  N1  UNL     1      29.778  13.249  20.645  1.00  0.00    -0.196 NA
ENDROOT
BRANCH   3   6
HETATM    6  C5  UNL     1      30.360  11.464  23.496  1.00  0.00     0.069 C
HETATM    7  N2  UNL     1      29.096  11.396  23.265  1.00  0.00    -0.395 N
ATOM      8  H22 UNL     1      28.737  11.781  22.392  1.00  0.00     0.156 HD
ATOM      9  H21 UNL     1      28.478  10.962  23.951  1.00  0.00     0.156 HD
BRANCH   6  10
HETATM   10  S1  UNL     1      30.981  10.798  25.006  1.00  0.00    -0.110 SA
BRANCH  10  11
HETATM   11  C6  UNL     1      30.612   9.038  25.095  1.00  0.00     0.123 C
BRANCH  11  12
HETATM   12  C7  UNL     1      31.812   8.244  24.671  1.00  0.00     0.005 A
HETATM   13  C8  UNL     1      32.888   8.797  24.010  1.00  0.00     0.099 A
HETATM   14  N3  UNL     1      33.952   8.069  23.639  1.00  0.00    -0.364 N
HETATM   15  C9  UNL     1      34.085   6.755  23.866  1.00  0.00     0.050 A
ATOM     16  H3  UNL     1      34.710   8.548  23.151  1.00  0.00     0.165 HD
HETATM   17  C18 UNL     1      33.008   6.176  24.533  1.00  0.00     0.073 A
HETATM   18  C19 UNL     1      31.900   6.894  24.928  1.00  0.00     0.127 A
HETATM   19  F1  UNL     1      30.862   6.306  25.579  1.00  0.00    -0.205 F
BRANCH  15  20
HETATM   20  C10 UNL     1      35.237   5.953  23.468  1.00  0.00     0.053 A
HETATM   21  C11 UNL     1      35.724   4.914  24.231  1.00  0.00     0.128 A
HETATM   22  N4  UNL     1      36.778   4.388  23.592  1.00  0.00    -0.296 N
HETATM   23  N5  UNL     1      36.964   5.046  22.477  1.00  0.00    -0.283 N
HETATM   24  C17 UNL     1      36.033   6.023  22.358  1.00  0.00     0.127 A
ATOM     25  H5  UNL     1      37.700   4.853  21.797  1.00  0.00     0.189 HD
BRANCH  22  26
HETATM   26  C12 UNL     1      37.626   3.279  23.990  1.00  0.00     0.107 C
HETATM   27  C13 UNL     1      36.858   2.029  24.294  1.00  0.00     0.027 C
HETATM   28  C14 UNL     1      37.455   1.458  25.568  1.00  0.00     0.002 C
HETATM   29  C15 UNL     1      38.731   2.233  25.796  1.00  0.00     0.002 C
HETATM   30  C16 UNL     1      38.412   3.609  25.246  1.00  0.00     0.027 C
ENDBRANCH  22  26
BRANCH  24  31
HETATM   31  N6  UNL     1      35.937   6.851  21.377  1.00  0.00    -0.384 N
ATOM     32  H62 UNL     1      35.181   7.522  21.238  1.00  0.00     0.157 HD
ATOM     33  H61 UNL     1      36.585   6.967  20.598  1.00  0.00     0.157 HD
ENDBRANCH  24  31
ENDBRANCH  15  20
ENDBRANCH  11  12
ENDBRANCH  10  11
ENDBRANCH   6  10
ENDBRANCH   3   6
TORSDOF 7
ENDMDL