MODEL 5
REMARK VINA RESULT: -7.887912268      3.136      6.846
REMARK  7 active torsions:
REMARK  status: ('A' for Active; 'I' for Inactive)
REMARK    1  A    between atoms: C2_2  and  C3_3
REMARK    2  A    between atoms: C3_3  and  C4_4
REMARK    3  A    between atoms: C4_4  and  C5_5
REMARK    4  A    between atoms: N1_11  and  N2_13
REMARK    5  A    between atoms: C12_18  and  O1_19
REMARK    6  A    between atoms: N5_23  and  O2_24
REMARK    7  A    between atoms: C14_26  and  C15_27
ROOT
HETATM    1  N2  UNL     1      31.813   7.564  29.047  1.00  0.00    -0.130 N
ATOM      2  H2  UNL     1      31.116   8.217  29.403  1.00  0.00     0.205 HD
HETATM    3  C11 UNL     1      32.372   6.851  29.932  1.00  0.00     0.723 A
HETATM    4  N3  UNL     1      32.069   6.941  31.281  1.00  0.00    -0.164 N
ATOM      5  H3  UNL     1      31.391   7.570  31.713  1.00  0.00     0.186 HD
HETATM    6  C12 UNL     1      32.826   6.058  31.897  1.00  0.00     0.192 A
HETATM    7  C13 UNL     1      33.594   5.414  31.011  1.00  0.00     0.164 A
HETATM    8  N4  UNL     1      33.314   5.905  29.787  1.00  0.00    -0.052 N
HETATM    9  N5  UNL     1      34.040   5.357  28.708  1.00  0.00    -0.173 N
HETATM   10  C14 UNL     1      34.372   4.003  28.513  1.00  0.00     0.148 C
HETATM   11  C18 UNL     1      34.710   3.158  29.696  1.00  0.00     0.111 C
HETATM   12  S1  UNL     1      34.791   4.118  31.233  1.00  0.00    -0.103 SA
ENDROOT
BRANCH   1  13
HETATM   13  N1  UNL     1      31.987   7.600  27.723  1.00  0.00    -0.295 N
HETATM   14  C2  UNL     1      31.364   8.394  26.940  1.00  0.00     0.000 C
HETATM   15  C1  UNL     1      30.383   9.350  27.482  1.00  0.00     0.065 C
ATOM     16  H1  UNL     1      32.659   6.953  27.311  1.00  0.00     0.186 HD
BRANCH  14  17
HETATM   17  C3  UNL     1      31.630   8.351  25.493  1.00  0.00     0.058 C
BRANCH  17  18
HETATM   18  C4  UNL     1      30.863   9.437  24.736  1.00  0.00     0.044 C
BRANCH  18  19
HETATM   19  C5  UNL     1      31.864  10.475  24.375  1.00  0.00    -0.058 A
HETATM   20  C6  UNL     1      31.451  11.771  24.139  1.00  0.00     0.007 A
HETATM   21  C7  UNL     1      32.347  12.773  23.799  1.00  0.00     0.001 A
HETATM   22  C8  UNL     1      33.693  12.506  23.685  1.00  0.00     0.000 A
HETATM   23  C9  UNL     1      34.104  11.209  23.922  1.00  0.00     0.001 A
HETATM   24  C10 UNL     1      33.211  10.200  24.262  1.00  0.00     0.007 A
ENDBRANCH  18  19
ENDBRANCH  17  18
ENDBRANCH  14  17
ENDBRANCH   1  13
BRANCH   6  25
HETATM   25  O1  UNL     1      32.783   5.871  33.299  1.00  0.00    -0.344 OA
ATOM     26  H1  UNL     1      32.734   5.010  33.696  1.00  0.00     0.219 HD
ENDBRANCH   6  25
BRANCH   9  27
HETATM   27  O2  UNL     1      34.457   6.248  27.776  1.00  0.00    -0.271 OA
ATOM     28  H2  UNL     1      34.483   5.923  26.883  1.00  0.00     0.246 HD
ENDBRANCH   9  27
BRANCH  10  29
HETATM   29  C15 UNL     1      35.582   3.917  27.590  1.00  0.00     0.005 C
HETATM   30  C16 UNL     1      35.154   3.392  26.219  1.00  0.00     0.012 C
HETATM   31  C17 UNL     1      36.619   2.948  28.122  1.00  0.00     0.012 C
ENDBRANCH  10  29
TORSDOF 7
ENDMDL