MODEL 1
REMARK VINA RESULT: -8.461164984      0.000      0.000
REMARK  6 active torsions:
REMARK  status: ('A' for Active; 'I' for Inactive)
REMARK    1  A    between atoms: C2_2  and  N1_3
REMARK    2  A    between atoms: N1_3  and  C3_5
REMARK    3  A    between atoms: C5_7  and  N2_8
REMARK    4  A    between atoms: C6_11  and  S1_12
REMARK    5  A    between atoms: S1_12  and  C7_13
REMARK    6  A    between atoms: C10_21  and  N5_22
ROOT
HETATM    1  C7  UNL     1      31.768   7.671  25.223  1.00  0.00     0.088 A
HETATM    2  C8  UNL     1      31.777   6.759  26.245  1.00  0.00     0.125 A
HETATM    3 CL1  UNL     1      32.245   5.090  26.034  1.00  0.00    -0.063 Cl
HETATM    4  N3  UNL     1      31.344   7.176  27.476  1.00  0.00    -0.342 N
ATOM      5  H3  UNL     1      31.343   6.512  28.251  1.00  0.00     0.167 HD
HETATM    6  C9  UNL     1      30.921   8.430  27.695  1.00  0.00     0.183 A
HETATM    7  N4  UNL     1      30.918   9.305  26.683  1.00  0.00    -0.337 N
ATOM      8  H4  UNL     1      30.593  10.255  26.862  1.00  0.00     0.168 HD
HETATM    9  C10 UNL     1      31.329   8.984  25.427  1.00  0.00     0.124 A
ENDROOT
BRANCH   1  10
HETATM   10  S1  UNL     1      32.306   7.251  23.601  1.00  0.00    -0.080 SA
BRANCH  10  11
HETATM   11  C6  UNL     1      33.908   6.535  23.441  1.00  0.00     0.047 A
HETATM   12  C5  UNL     1      34.293   5.773  22.362  1.00  0.00     0.048 A
HETATM   13  C4  UNL     1      35.601   5.263  22.291  1.00  0.00     0.078 A
HETATM   14  C3  UNL     1      36.537   5.495  23.267  1.00  0.00     0.102 A
HETATM   15  N6  UNL     1      36.149   6.243  24.315  1.00  0.00    -0.351 N
HETATM   16  C18 UNL     1      34.909   6.736  24.401  1.00  0.00     0.111 A
ATOM     17  H6  UNL     1      36.815   6.438  25.062  1.00  0.00     0.166 HD
BRANCH  12  18
HETATM   18  N2  UNL     1      33.510   5.540  21.382  1.00  0.00    -0.398 N
ATOM     19  H22 UNL     1      32.684   4.949  21.477  1.00  0.00     0.156 HD
ATOM     20  H21 UNL     1      33.714   5.994  20.492  1.00  0.00     0.156 HD
ENDBRANCH  12  18
BRANCH  14  21
HETATM   21  N1  UNL     1      37.849   4.971  23.175  1.00  0.00    -0.377 N
ATOM     22  H1  UNL     1      38.604   5.578  22.856  1.00  0.00     0.161 HD
BRANCH  21  23
HETATM   23  C2  UNL     1      38.147   3.614  23.518  1.00  0.00     0.116 C
HETATM   24  C1  UNL     1      38.372   3.435  24.998  1.00  0.00     0.026 C
ENDBRANCH  21  23
ENDBRANCH  14  21
ENDBRANCH  10  11
ENDBRANCH   1  10
BRANCH   9  25
HETATM   25  N5  UNL     1      31.282   9.950  24.396  1.00  0.00    -0.365 N
HETATM   26  C11 UNL     1      30.131  10.447  23.700  1.00  0.00     0.125 C
HETATM   27  C12 UNL     1      30.344  11.944  23.741  1.00  0.00     0.031 C
HETATM   28  C13 UNL     1      31.844  12.059  23.685  1.00  0.00    -0.023 C
HETATM   29  C14 UNL     1      32.372  12.827  22.514  1.00  0.00     0.011 C
HETATM   30  C16 UNL     1      32.397  13.096  24.613  1.00  0.00     0.011 C
HETATM   31  C17 UNL     1      32.413  10.667  23.862  1.00  0.00     0.134 C
HETATM   32  C15 UNL     1      33.039  13.780  23.447  1.00  0.00     0.002 C
ENDBRANCH   9  25
TORSDOF 6
ENDMDL