MODEL 2
REMARK VINA RESULT: -8.276483128      1.208      1.603
REMARK  6 active torsions:
REMARK  status: ('A' for Active; 'I' for Inactive)
REMARK    1  A    between atoms: C2_2  and  C3_4
REMARK    2  A    between atoms: C3_4  and  N1_5
REMARK    3  A    between atoms: N1_5  and  C4_7
REMARK    4  A    between atoms: C4_7  and  O1_8
REMARK    5  A    between atoms: C4_7  and  C5_10
REMARK    6  A    between atoms: C11_17  and  C12_18
ROOT
HETATM    1  C3  UNL     1      33.508   7.282  25.093  1.00  0.00     0.044 C
HETATM    2  C9  UNL     1      34.945   7.127  24.683  1.00  0.00     0.033 C
HETATM    3  C10 UNL     1      35.204   5.953  23.819  1.00  0.00     0.013 C
HETATM    4  C11 UNL     1      34.501   6.188  22.481  1.00  0.00     0.038 C
HETATM    5  C17 UNL     1      33.035   6.047  22.866  1.00  0.00     0.013 C
HETATM    6  C18 UNL     1      32.554   6.674  24.091  1.00  0.00     0.033 C
ENDROOT
BRANCH   1   7
HETATM    7  C2  UNL     1      33.349   6.517  26.385  1.00  0.00     0.106 C
HETATM    8  C1  UNL     1      33.722   7.300  27.629  1.00  0.00     0.029 C
HETATM    9 CL1  UNL     1      31.634   6.064  26.623  1.00  0.00    -0.123 Cl
ENDBRANCH   1   7
BRANCH   1  10
HETATM   10  N1  UNL     1      33.273   8.621  25.362  1.00  0.00    -0.383 N
ATOM     11  H1  UNL     1      33.984   9.043  25.959  1.00  0.00     0.157 HD
BRANCH  10  12
HETATM   12  C4  UNL     1      32.304   9.482  25.001  1.00  0.00     0.249 C
BRANCH  12  13
HETATM   13  O1  UNL     1      31.291   9.698  26.012  1.00  0.00    -0.373 OA
ATOM     14  H1  UNL     1      31.150   8.957  26.590  1.00  0.00     0.212 HD
ENDBRANCH  12  13
BRANCH  12  15
HETATM   15  C5  UNL     1      32.583  10.837  24.377  1.00  0.00    -0.004 A
HETATM   16  C6  UNL     1      33.857  11.234  24.110  1.00  0.00     0.019 A
HETATM   17  C7  UNL     1      34.054  12.477  23.590  1.00  0.00     0.050 A
HETATM   18  S1  UNL     1      32.472  13.093  23.473  1.00  0.00    -0.113 SA
HETATM   19  C8  UNL     1      31.619  11.760  24.086  1.00  0.00     0.061 A
ENDBRANCH  12  15
ENDBRANCH  10  12
ENDBRANCH   1  10
BRANCH   4  20
HETATM   20  C12 UNL     1      34.813   4.947  21.668  1.00  0.00     0.045 A
HETATM   21  N2  UNL     1      34.649   3.696  22.123  1.00  0.00    -0.353 N
HETATM   22  C13 UNL     1      34.818   2.601  21.355  1.00  0.00     0.182 A
ATOM     23  H2  UNL     1      34.382   3.567  23.099  1.00  0.00     0.166 HD
HETATM   24  N3  UNL     1      35.175   2.783  20.071  1.00  0.00    -0.337 N
HETATM   25  C14 UNL     1      35.358   4.026  19.556  1.00  0.00     0.136 A
ATOM     26  H3  UNL     1      35.311   1.970  19.470  1.00  0.00     0.168 HD
HETATM   27  N4  UNL     1      35.763   4.453  18.337  1.00  0.00    -0.337 N
HETATM   28  C16 UNL     1      35.170   5.103  20.374  1.00  0.00     0.101 A
HETATM   29  C15 UNL     1      35.817   5.813  18.433  1.00  0.00     0.182 A
ATOM     30  H4  UNL     1      35.981   3.881  17.521  1.00  0.00     0.168 HD
HETATM   31  N5  UNL     1      35.455   6.197  19.662  1.00  0.00    -0.348 N
ATOM     32  H5  UNL     1      35.405   7.159  19.997  1.00  0.00     0.167 HD
ENDBRANCH   4  20
TORSDOF 6
ENDMDL