MODEL 1
REMARK VINA RESULT: -8.001504870      0.000      0.000
REMARK  7 active torsions:
REMARK  status: ('A' for Active; 'I' for Inactive)
REMARK    1  A    between atoms: C2_2  and  O1_4
REMARK    2  A    between atoms: O1_4  and  C4_5
REMARK    3  A    between atoms: C6_7  and  N1_8
REMARK    4  A    between atoms: N1_8  and  C7_10
REMARK    5  A    between atoms: C10_19  and  N5_20
REMARK    6  A    between atoms: C12_25  and  S2_26
REMARK    7  A    between atoms: S2_26  and  C13_27
ROOT
HETATM    1  N1  UNL     1      32.653   9.096  25.134  1.00  0.00    -0.340 N
ATOM      2  H1  UNL     1      32.309   9.254  26.081  1.00  0.00     0.167 HD
ENDROOT
BRANCH   1   3
HETATM    3  C6  UNL     1      32.759   7.748  24.784  1.00  0.00     0.053 A
HETATM    4  C5  UNL     1      33.353   7.275  23.654  1.00  0.00     0.071 A
HETATM    5  C4  UNL     1      33.440   5.911  23.322  1.00  0.00     0.110 A
HETATM    6  C17 UNL     1      32.890   5.011  24.193  1.00  0.00     0.151 A
HETATM    7  C16 UNL     1      32.277   5.495  25.361  1.00  0.00     0.066 A
HETATM    8  F1  UNL     1      32.910   3.651  23.984  1.00  0.00    -0.203 F
HETATM    9  C12 UNL     1      32.202   6.827  25.666  1.00  0.00     0.030 A
BRANCH   5  10
HETATM   10  O1  UNL     1      34.049   5.538  22.176  1.00  0.00    -0.344 OA
BRANCH  10  11
HETATM   11  C2  UNL     1      35.152   4.857  21.798  1.00  0.00     0.121 C
HETATM   12  C1  UNL     1      36.400   5.254  22.623  1.00  0.00     0.040 C
HETATM   13  C3  UNL     1      35.547   5.245  20.355  1.00  0.00     0.040 C
ENDBRANCH  10  11
ENDBRANCH   5  10
BRANCH   9  14
HETATM   14  S2  UNL     1      31.410   7.351  27.167  1.00  0.00    -0.123 SA
BRANCH  14  15
HETATM   15  C13 UNL     1      32.434   7.139  28.616  1.00  0.00     0.044 C
HETATM   16  C14 UNL     1      33.913   7.239  28.320  1.00  0.00     0.021 C
HETATM   17  C15 UNL     1      32.149   5.821  29.322  1.00  0.00     0.021 C
ENDBRANCH  14  15
ENDBRANCH   9  14
ENDBRANCH   1   3
BRANCH   1  18
HETATM   18  C7  UNL     1      32.902  10.144  24.500  1.00  0.00     0.128 A
HETATM   19  N2  UNL     1      34.192  10.573  24.357  1.00  0.00    -0.337 N
HETATM   20  C8  UNL     1      34.318  11.728  23.644  1.00  0.00     0.183 A
ATOM     21  H2  UNL     1      34.989  10.074  24.750  1.00  0.00     0.168 HD
HETATM   22  N3  UNL     1      33.330  12.417  23.112  1.00  0.00    -0.337 N
HETATM   23  C9  UNL     1      32.023  12.011  23.239  1.00  0.00     0.129 A
ATOM     24  H3  UNL     1      33.538  13.271  22.595  1.00  0.00     0.168 HD
HETATM   25  N4  UNL     1      30.955  12.609  22.758  1.00  0.00    -0.322 N
HETATM   26  C11 UNL     1      31.855  10.858  23.949  1.00  0.00     0.096 A
HETATM   27  C10 UNL     1      29.765  12.054  22.990  1.00  0.00     0.144 A
ATOM     28  H4  UNL     1      31.034  13.474  22.222  1.00  0.00     0.169 HD
HETATM   29  S1  UNL     1      30.158  10.665  23.902  1.00  0.00    -0.047 SA
BRANCH  27  30
HETATM   30  N5  UNL     1      28.590  12.496  22.596  1.00  0.00    -0.380 N
ATOM     31  H52 UNL     1      28.254  13.454  22.499  1.00  0.00     0.158 HD
ATOM     32  H51 UNL     1      27.785  11.938  22.312  1.00  0.00     0.158 HD
ENDBRANCH  27  30
ENDBRANCH   1  18
TORSDOF 7
ENDMDL