MODEL 5
REMARK VINA RESULT: -8.160550905      3.049      3.872
REMARK  7 active torsions:
REMARK  status: ('A' for Active; 'I' for Inactive)
REMARK    1  A    between atoms: O1_1  and  N1_3
REMARK    2  A    between atoms: C1_5  and  O2_6
REMARK    3  A    between atoms: C1_5  and  C2_8
REMARK    4  A    between atoms: C2_8  and  C3_9
REMARK    5  A    between atoms: C3_9  and  S1_10
REMARK    6  A    between atoms: S1_10  and  C4_11
REMARK    7  A    between atoms: C5_14  and  C6_15
ROOT
HETATM    1  C2  UNL     1      33.861   5.193  24.963  1.00  0.00     0.043 C
HETATM    2  C10 UNL     1      34.091   6.471  24.182  1.00  0.00     0.004 C
HETATM    3  C11 UNL     1      35.554   6.774  24.139  1.00  0.00     0.013 C
HETATM    4  C12 UNL     1      36.364   5.648  23.509  1.00  0.00     0.021 C
HETATM    5  C13 UNL     1      36.134   4.364  24.237  1.00  0.00     0.013 C
HETATM    6  C14 UNL     1      34.615   4.112  24.286  1.00  0.00     0.004 C
HETATM    7  C15 UNL     1      34.225   3.962  22.823  1.00  0.00     0.013 C
HETATM    8  C16 UNL     1      34.446   5.224  22.059  1.00  0.00     0.021 C
HETATM    9  C17 UNL     1      33.661   6.312  22.716  1.00  0.00     0.013 C
HETATM   10  C18 UNL     1      35.921   5.567  22.064  1.00  0.00     0.178 C
HETATM   11  F1  UNL     1      36.665   4.652  21.355  1.00  0.00    -0.249 F
ENDROOT
BRANCH   1  12
HETATM   12  C1  UNL     1      34.360   5.435  26.342  1.00  0.00     0.145 C
HETATM   13  N1  UNL     1      34.661   4.633  27.239  1.00  0.00    -0.250 N
ATOM     14  H1  UNL     1      34.975   5.119  28.078  1.00  0.00     0.196 HD
BRANCH  13  15
HETATM   15  O1  UNL     1      34.686   3.321  27.409  1.00  0.00    -0.288 OA
ATOM     16  H1  UNL     1      35.333   2.625  27.401  1.00  0.00     0.244 HD
ENDBRANCH  13  15
BRANCH  12  17
HETATM   17  O2  UNL     1      34.510   6.810  26.650  1.00  0.00    -0.347 OA
ATOM     18  H2  UNL     1      35.361   7.193  26.470  1.00  0.00     0.219 HD
ENDBRANCH  12  17
ENDBRANCH   1  12
BRANCH   1  19
HETATM   19  C3  UNL     1      32.406   4.876  25.107  1.00  0.00     0.101 C
BRANCH  19  20
HETATM   20  S1  UNL     1      31.440   5.915  26.101  1.00  0.00    -0.091 SA
BRANCH  20  21
HETATM   21  C4  UNL     1      31.168   7.575  25.804  1.00  0.00     0.160 A
HETATM   22  N2  UNL     1      30.971   8.263  24.690  1.00  0.00    -0.319 N
HETATM   23  C5  UNL     1      30.859   9.567  24.916  1.00  0.00     0.156 A
ATOM     24  H2  UNL     1      30.911   7.841  23.763  1.00  0.00     0.169 HD
HETATM   25  N3  UNL     1      30.995   9.694  26.247  1.00  0.00    -0.281 N
HETATM   26  N4  UNL     1      31.179   8.522  26.798  1.00  0.00    -0.278 N
ATOM     27  H3  UNL     1      30.959  10.578  26.755  1.00  0.00     0.188 HD
ATOM     28  H4  UNL     1      31.308   8.342  27.794  1.00  0.00     0.189 HD
BRANCH  23  29
HETATM   29  C6  UNL     1      30.637  10.642  23.926  1.00  0.00     0.120 A
HETATM   30  C7  UNL     1      31.550  11.566  23.530  1.00  0.00     0.043 A
HETATM   31  C8  UNL     1      30.944  12.378  22.600  1.00  0.00     0.027 A
HETATM   32  C9  UNL     1      29.657  11.884  22.482  1.00  0.00     0.142 A
HETATM   33  O3  UNL     1      29.531  10.858  23.289  1.00  0.00    -0.319 OA
ENDBRANCH  23  29
ENDBRANCH  20  21
ENDBRANCH  19  20
ENDBRANCH   1  19
TORSDOF 7
ENDMDL