MODEL 5
REMARK VINA RESULT: -6.877626276      6.664      7.451
REMARK  10 active torsions:
REMARK  status: ('A' for Active; 'I' for Inactive)
REMARK    1  A    between atoms: N1_1  and  N2_4
REMARK    2  A    between atoms: N2_4  and  N3_5
REMARK    3  A    between atoms: N3_5  and  C1_7
REMARK    4  A    between atoms: C2_8  and  O1_9
REMARK    5  A    between atoms: C4_12  and  O2_13
REMARK    6  A    between atoms: C5_15  and  C6_16
REMARK    7  A    between atoms: C6_16  and  C7_17
REMARK    8  A    between atoms: C7_17  and  C8_18
REMARK    9  A    between atoms: C8_18  and  N4_19
REMARK   10  A    between atoms: N5_25  and  O3_27
ROOT
HETATM    1  C1  UNL     1      31.047  11.796  23.532  1.00  0.00     0.114 A
HETATM    2  C2  UNL     1      32.304  12.168  23.119  1.00  0.00     0.098 A
HETATM    3  C3  UNL     1      33.406  11.387  23.359  1.00  0.00     0.076 A
HETATM    4  C4  UNL     1      33.198  10.187  24.046  1.00  0.00     0.082 A
HETATM    5  C5  UNL     1      31.968   9.752  24.485  1.00  0.00     0.041 A
HETATM    6  C14 UNL     1      30.887  10.617  24.199  1.00  0.00     0.058 A
HETATM    7 BR1  UNL     1      29.133  10.108  24.768  1.00  0.00    -0.047 Br
ENDROOT
BRANCH   5   8
HETATM    8  C6  UNL     1      31.708   8.490  25.146  1.00  0.00     0.048 C
HETATM    9  N5  UNL     1      31.323   7.510  24.376  1.00  0.00    -0.272 N
ATOM     10  H5  UNL     1      31.233   7.700  23.377  1.00  0.00     0.194 HD
BRANCH   8  11
HETATM   11  C7  UNL     1      31.944   8.218  26.539  1.00  0.00     0.080 C
BRANCH  11  12
HETATM   12  C8  UNL     1      33.310   7.785  26.948  1.00  0.00     0.133 C
BRANCH  12  13
HETATM   13  N4  UNL     1      33.191   6.982  28.123  1.00  0.00    -0.374 N
HETATM   14  C9  UNL     1      34.317   6.811  28.909  1.00  0.00     0.063 C
HETATM   15  C10 UNL     1      34.152   6.331  30.309  1.00  0.00     0.045 C
HETATM   16  C11 UNL     1      32.737   6.515  30.790  1.00  0.00     0.010 C
HETATM   17  C12 UNL     1      31.860   5.780  29.766  1.00  0.00     0.045 C
HETATM   18  C13 UNL     1      31.911   6.634  28.527  1.00  0.00     0.063 C
ENDBRANCH  12  13
ENDBRANCH  11  12
ENDBRANCH   8  11
BRANCH   9  19
HETATM   19  O3  UNL     1      31.034   6.263  24.807  1.00  0.00    -0.290 OA
ATOM     20  H3  UNL     1      30.155   5.911  24.892  1.00  0.00     0.244 HD
ENDBRANCH   9  19
ENDBRANCH   5   8
BRANCH   4  21
HETATM   21  O2  UNL     1      34.335   9.417  24.285  1.00  0.00    -0.360 OA
ATOM     22  H2  UNL     1      34.357   8.566  23.864  1.00  0.00     0.217 HD
ENDBRANCH   4  21
BRANCH   1  23
HETATM   23  N3  UNL     1      29.901  12.630  23.272  1.00  0.00    -0.213 N
ATOM     24  H3  UNL     1      29.532  13.247  23.995  1.00  0.00     0.204 HD
BRANCH  23  25
HETATM   25  N2  UNL     1      29.370  12.582  22.147  1.00  0.00    -0.243 NA
BRANCH  25  26
HETATM   26  N1  UNL     1      29.084  12.648  20.964  1.00  0.00    -0.260 N
ATOM     27  H12 UNL     1      29.656  11.830  20.755  1.00  0.00     0.193 HD
ATOM     28  H11 UNL     1      28.723  12.883  20.039  1.00  0.00     0.193 HD
ENDBRANCH  25  26
ENDBRANCH  23  25
ENDBRANCH   1  23
BRANCH   2  29
HETATM   29  O1  UNL     1      32.452  13.376  22.437  1.00  0.00    -0.358 OA
ATOM     30  H1  UNL     1      33.327  13.722  22.310  1.00  0.00     0.217 HD
ENDBRANCH   2  29
TORSDOF 10
ENDMDL