MODEL 2
REMARK VINA RESULT: -8.381513615      3.161      7.988
REMARK  8 active torsions:
REMARK  status: ('A' for Active; 'I' for Inactive)
REMARK    1  A    between atoms: C3_4  and  C4_5
REMARK    2  A    between atoms: C5_6  and  C6_7
REMARK    3  A    between atoms: C12_13  and  O1_14
REMARK    4  A    between atoms: C12_13  and  C13_16
REMARK    5  A    between atoms: C13_16  and  C14_18
REMARK    6  A    between atoms: C14_18  and  C15_19
REMARK    7  A    between atoms: C17_21  and  O3_22
REMARK    8  A    between atoms: C18_25  and  O5_26
ROOT
HETATM    1  C6  UNL     1      32.014   7.850  26.122  1.00  0.00     0.008 C
HETATM    2  C7  UNL     1      30.911   8.012  27.109  1.00  0.00     0.023 C
HETATM    3  C8  UNL     1      33.346   8.101  26.723  1.00  0.00     0.020 C
HETATM    4  C9  UNL     1      34.201   6.994  27.115  1.00  0.00    -0.014 C
HETATM    5  C10 UNL     1      33.879   6.649  28.589  1.00  0.00     0.010 C
HETATM    6  C11 UNL     1      34.287   5.722  26.423  1.00  0.00     0.053 C
HETATM    7  C12 UNL     1      34.231   5.760  24.892  1.00  0.00     0.147 C
HETATM    8  C19 UNL     1      33.136   6.612  24.482  1.00  0.00     0.200 A
HETATM    9  O6  UNL     1      31.921   6.449  23.983  1.00  0.00    -0.365 OA
HETATM   10  C20 UNL     1      32.013   6.551  25.370  1.00  0.00     0.098 A
HETATM   11  C21 UNL     1      31.161   5.503  25.911  1.00  0.00     0.050 C
ENDROOT
BRANCH   7  12
HETATM   12  O1  UNL     1      35.462   6.402  24.556  1.00  0.00    -0.379 OA
ATOM     13  H1  UNL     1      35.274   7.315  24.740  1.00  0.00     0.211 HD
ENDBRANCH   7  12
BRANCH   7  14
HETATM   14  C13 UNL     1      34.335   4.413  24.331  1.00  0.00     0.168 C
HETATM   15  O2  UNL     1      33.567   3.529  24.611  1.00  0.00    -0.294 OA
BRANCH  14  16
HETATM   16  C14 UNL     1      35.426   4.101  23.373  1.00  0.00     0.125 C
BRANCH  16  17
HETATM   17  C15 UNL     1      36.637   3.654  24.096  1.00  0.00     0.012 A
HETATM   18  C16 UNL     1      36.736   2.773  25.164  1.00  0.00     0.076 A
HETATM   19  C17 UNL     1      38.054   2.677  25.481  1.00  0.00     0.186 A
HETATM   20  O4  UNL     1      38.731   3.445  24.668  1.00  0.00    -0.264 OA
HETATM   21  C18 UNL     1      37.918   4.056  23.812  1.00  0.00     0.192 A
BRANCH  19  22
HETATM   22  O3  UNL     1      38.598   1.900  26.494  1.00  0.00    -0.341 OA
ATOM     23  H3  UNL     1      38.876   2.207  27.349  1.00  0.00     0.220 HD
ENDBRANCH  19  22
BRANCH  21  24
HETATM   24  O5  UNL     1      38.276   4.944  22.805  1.00  0.00    -0.340 OA
ATOM     25  H5  UNL     1      39.134   4.999  22.401  1.00  0.00     0.220 HD
ENDBRANCH  21  24
ENDBRANCH  16  17
ENDBRANCH  14  16
ENDBRANCH   7  14
BRANCH   1  26
HETATM   26  C5  UNL     1      31.792   8.914  25.076  1.00  0.00    -0.014 C
HETATM   27  C4  UNL     1      31.157  10.018  25.403  1.00  0.00    -0.001 C
BRANCH  27  28
HETATM   28  C3  UNL     1      30.940  11.044  24.408  1.00  0.00     0.037 C
HETATM   29  C2  UNL     1      29.806  11.102  23.750  1.00  0.00     0.090 C
HETATM   30  C1  UNL     1      29.610  12.160  22.741  1.00  0.00     0.082 C
HETATM   31  F1  UNL     1      28.837  10.173  24.024  1.00  0.00    -0.211 F
ENDBRANCH  27  28
ENDBRANCH   1  26
TORSDOF 8
ENDMDL