MODEL 5
REMARK VINA RESULT: -8.708362423      2.501      3.663
REMARK  6 active torsions:
REMARK  status: ('A' for Active; 'I' for Inactive)
REMARK    1  A    between atoms: C2_2  and  C3_3
REMARK    2  A    between atoms: C6_6  and  C7_7
REMARK    3  A    between atoms: C7_7  and  S1_8
REMARK    4  A    between atoms: S1_8  and  C8_9
REMARK    5  A    between atoms: N3_17  and  C12_18
REMARK    6  A    between atoms: C15_23  and  N5_24
ROOT
HETATM    1  C8  UNL     1      35.978   4.671  24.299  1.00  0.00     0.119 A
HETATM    2  N1  UNL     1      35.683   4.071  25.495  1.00  0.00    -0.330 N
ATOM      3  H1  UNL     1      34.826   4.319  25.990  1.00  0.00     0.168 HD
HETATM    4  C9  UNL     1      36.523   3.152  26.020  1.00  0.00     0.155 A
HETATM    5  C10 UNL     1      37.687   2.780  25.398  1.00  0.00     0.153 A
HETATM    6  N2  UNL     1      38.296   1.870  26.162  1.00  0.00    -0.335 N
ATOM      7  H2  UNL     1      39.185   1.416  25.950  1.00  0.00     0.168 HD
HETATM    8  C11 UNL     1      37.539   1.646  27.268  1.00  0.00     0.186 A
HETATM    9  N3  UNL     1      36.462   2.431  27.173  1.00  0.00    -0.322 N
HETATM   10  N4  UNL     1      38.006   3.357  24.215  1.00  0.00    -0.324 N
ATOM     11  H4  UNL     1      38.864   3.106  23.723  1.00  0.00     0.169 HD
HETATM   12  C15 UNL     1      37.150   4.280  23.705  1.00  0.00     0.135 A
ENDROOT
BRANCH   1  13
HETATM   13  S1  UNL     1      34.921   5.950  23.659  1.00  0.00    -0.080 SA
BRANCH  13  14
HETATM   14  C7  UNL     1      34.792   7.394  24.619  1.00  0.00     0.067 C
BRANCH  14  15
HETATM   15  C6  UNL     1      33.648   7.734  25.474  1.00  0.00     0.016 A
HETATM   16  C4  UNL     1      32.855   8.852  25.135  1.00  0.00    -0.040 A
HETATM   17  C3  UNL     1      31.745   9.238  25.844  1.00  0.00    -0.027 A
HETATM   18  C5  UNL     1      33.327   9.613  23.935  1.00  0.00     0.050 C
HETATM   19  C19 UNL     1      31.373   8.528  26.938  1.00  0.00     0.062 A
HETATM   20  C17 UNL     1      32.106   7.426  27.319  1.00  0.00     0.002 A
HETATM   21  N6  UNL     1      30.248   8.948  27.692  1.00  0.00    -0.101 NA
HETATM   22  C16 UNL     1      33.239   7.041  26.575  1.00  0.00     0.135 A
HETATM   23  C18 UNL     1      31.680   6.656  28.511  1.00  0.00     0.053 C
HETATM   24  F1  UNL     1      33.832   5.915  27.005  1.00  0.00    -0.205 F
BRANCH  17  25
HETATM   25  C2  UNL     1      31.024  10.393  25.291  1.00  0.00     0.036 C
HETATM   26  C1  UNL     1      29.871  10.157  24.416  1.00  0.00     0.010 C
ENDBRANCH  17  25
ENDBRANCH  14  15
ENDBRANCH  13  14
ENDBRANCH   1  13
BRANCH  12  27
HETATM   27  N5  UNL     1      37.545   4.885  22.622  1.00  0.00    -0.383 N
ATOM     28  H52 UNL     1      36.843   4.994  21.890  1.00  0.00     0.157 HD
ATOM     29  H51 UNL     1      38.527   5.147  22.528  1.00  0.00     0.157 HD
ENDBRANCH  12  27
BRANCH   9  30
HETATM   30  C12 UNL     1      35.364   2.552  28.133  1.00  0.00     0.084 C
HETATM   31  C13 UNL     1      35.594   3.752  29.058  1.00  0.00     0.032 C
HETATM   32  C14 UNL     1      35.348   1.328  29.025  1.00  0.00     0.032 C
ENDBRANCH   9  30
TORSDOF 6
ENDMDL