MODEL 3
REMARK VINA RESULT: -6.535508846      2.909      4.267
REMARK  7 active torsions:
REMARK  status: ('A' for Active; 'I' for Inactive)
REMARK    1  A    between atoms: O1_2  and  C2_3
REMARK    2  A    between atoms: C2_3  and  C3_5
REMARK    3  A    between atoms: C3_5  and  C4_6
REMARK    4  A    between atoms: C3_5  and  N1_10
REMARK    5  A    between atoms: C4_6  and  C5_7
REMARK    6  A    between atoms: C5_7  and  S1_8
REMARK       I    between atoms: N1_10  and  C7_12
REMARK       I    between atoms: C7_12  and  N2_14
REMARK    7  A    between atoms: N2_14  and  C9_16
REMARK       I    between atoms: N3_19  and  C12_20
ROOT
HETATM    1  C9  UNL     1       7.423   7.059  19.371  1.00  0.00     0.107 C
HETATM    2  C10 UNL     1       8.256   5.889  18.977  1.00  0.00     0.046 C
HETATM    3  C11 UNL     1       7.951   4.622  19.717  1.00  0.00     0.129 C
HETATM    4  N3  UNL     1       6.533   4.351  19.514  1.00  0.00    -0.334 N
HETATM    5  C12 UNL     1       6.162   3.050  19.146  1.00  0.00     0.216 C
HETATM    6  C13 UNL     1       4.747   2.696  18.922  1.00  0.00     0.117 C
HETATM    7  O4  UNL     1       7.086   2.175  19.009  1.00  0.00    -0.274 OA
HETATM    8  C14 UNL     1       5.536   5.367  19.677  1.00  0.00     0.210 C
HETATM    9  C15 UNL     1       4.648   4.957  20.767  1.00  0.00     0.086 C
HETATM   10  N4  UNL     1       3.934   4.651  21.654  1.00  0.00    -0.195 NA
HETATM   11  C16 UNL     1       6.078   6.734  19.948  1.00  0.00     0.118 C
HETATM   12 BR1  UNL     1       4.734   8.026  19.407  1.00  0.00    -0.086 Br
ENDROOT
BRANCH   1  13
HETATM   13  N2  UNL     1       8.144   8.030  20.163  1.00  0.00    -0.333 N
HETATM   14  C7  UNL     1       8.323   7.874  21.556  1.00  0.00     0.319 C
HETATM   15  N1  UNL     1       9.029   8.825  22.337  1.00  0.00    -0.329 N
HETATM   16  O3  UNL     1       7.861   6.872  22.187  1.00  0.00    -0.247 OA
ATOM     17  H1  UNL     1       9.423   9.647  21.878  1.00  0.00     0.165 HD
HETATM   18  C8  UNL     1       8.709   9.203  19.553  1.00  0.00     0.155 C
BRANCH  15  19
HETATM   19  C3  UNL     1       9.209   8.662  23.766  1.00  0.00     0.186 C
BRANCH  19  20
HETATM   20  C2  UNL     1      10.550   9.229  24.164  1.00  0.00     0.281 C
HETATM   21  O2  UNL     1      11.323   9.687  23.293  1.00  0.00    -0.263 OA
BRANCH  20  22
HETATM   22  O1  UNL     1      10.943   9.250  25.485  1.00  0.00    -0.325 OA
HETATM   23  C1  UNL     1      11.020   8.102  26.307  1.00  0.00     0.213 C
ENDBRANCH  20  22
ENDBRANCH  19  20
BRANCH  19  24
HETATM   24  C4  UNL     1       8.146   9.481  24.457  1.00  0.00     0.045 C
BRANCH  24  25
HETATM   25  C5  UNL     1       7.014   8.627  24.916  1.00  0.00     0.076 C
BRANCH  25  26
HETATM   26  S1  UNL     1       5.484   9.200  24.129  1.00  0.00    -0.173 SA
HETATM   27  C6  UNL     1       4.628   7.732  23.468  1.00  0.00     0.089 C
ENDBRANCH  25  26
ENDBRANCH  24  25
ENDBRANCH  19  24
ENDBRANCH  15  19
ENDBRANCH   1  13
TORSDOF 7
ENDMDL