MODEL 1
REMARK VINA RESULT: -10.146446164      0.000      0.000
REMARK  7 active torsions:
REMARK  status: ('A' for Active; 'I' for Inactive)
REMARK    1  A    between atoms: C10_17  and  N4_18
REMARK    2  A    between atoms: N4_18  and  C12_20
REMARK    3  A    between atoms: C12_20  and  C13_21
REMARK    4  A    between atoms: C13_21  and  C14_22
REMARK    5  A    between atoms: C14_22  and  O2_23
REMARK    6  A    between atoms: O2_23  and  N5_24
REMARK    7  A    between atoms: N5_24  and  C15_25
ROOT
HETATM    1  C1  UNL     1      11.034   9.507  24.144  1.00  0.00     0.050 C
HETATM    2  C2  UNL     1       9.589   9.237  24.348  1.00  0.00    -0.039 A
HETATM    3  C3  UNL     1       8.671   9.772  23.433  1.00  0.00     0.027 A
HETATM    4  C4  UNL     1       7.322   9.519  23.575  1.00  0.00     0.052 A
HETATM    5  C5  UNL     1       6.946   8.734  24.658  1.00  0.00     0.122 A
HETATM    6  N1  UNL     1       7.879   8.240  25.519  1.00  0.00    -0.345 N
ATOM      7  H1  UNL     1       7.556   7.668  26.299  1.00  0.00     0.167 HD
HETATM    8  C6  UNL     1       9.189   8.460  25.405  1.00  0.00     0.013 A
HETATM    9  C7  UNL     1      10.131   7.855  26.395  1.00  0.00     0.068 C
HETATM   10  N2  UNL     1       5.772   8.431  25.086  1.00  0.00    -0.311 N
ATOM     11  H2  UNL     1       5.749   7.830  25.910  1.00  0.00     0.170 HD
HETATM   12  C8  UNL     1       4.520   8.812  24.581  1.00  0.00     0.240 C
HETATM   13  O1  UNL     1       3.536   8.244  25.097  1.00  0.00    -0.271 OA
HETATM   14  C9  UNL     1       4.145   9.792  23.518  1.00  0.00     0.224 C
HETATM   15  N3  UNL     1       5.152   9.849  22.512  1.00  0.00    -0.367 N
ATOM     16  H3  UNL     1       4.792   9.781  21.560  1.00  0.00     0.161 HD
HETATM   17  C10 UNL     1       6.587   9.983  22.591  1.00  0.00     0.113 C
ENDROOT
BRANCH  17  18
HETATM   18  N4  UNL     1       7.177  10.632  21.489  1.00  0.00    -0.371 N
HETATM   19  C11 UNL     1       7.790  11.929  21.546  1.00  0.00     0.151 C
BRANCH  18  20
HETATM   20  C12 UNL     1       7.238   9.895  20.264  1.00  0.00     0.126 C
BRANCH  20  21
HETATM   21  C13 UNL     1       8.565   9.587  19.664  1.00  0.00     0.050 C
BRANCH  21  22
HETATM   22  C14 UNL     1       8.980   8.206  20.234  1.00  0.00     0.219 C
BRANCH  22  23
HETATM   23  O2  UNL     1       7.816   7.402  20.377  1.00  0.00    -0.209 OA
BRANCH  23  24
HETATM   24  N5  UNL     1       7.523   6.236  20.224  1.00  0.00    -0.285 NA
BRANCH  24  25
HETATM   25  C15 UNL     1       7.246   5.048  20.052  1.00  0.00     0.128 C
HETATM   26  C16 UNL     1       6.066   4.242  20.466  1.00  0.00     0.081 C
HETATM   27  C17 UNL     1       6.708   2.884  20.725  1.00  0.00     0.047 C
HETATM   28  C18 UNL     1       7.777   2.789  19.711  1.00  0.00    -0.043 A
HETATM   29  C19 UNL     1       8.447   1.700  19.148  1.00  0.00     0.031 A
HETATM   30  C23 UNL     1       8.084   4.054  19.334  1.00  0.00     0.009 A
HETATM   31  C20 UNL     1       9.423   1.917  18.208  1.00  0.00     0.034 A
HETATM   32 CL1  UNL     1      10.327   0.606  17.446  1.00  0.00    -0.084 Cl
HETATM   33  C21 UNL     1       9.724   3.217  17.834  1.00  0.00     0.025 A
HETATM   34  C22 UNL     1       9.069   4.299  18.383  1.00  0.00     0.017 A
ENDBRANCH  24  25
ENDBRANCH  23  24
ENDBRANCH  22  23
ENDBRANCH  21  22
ENDBRANCH  20  21
ENDBRANCH  18  20
ENDBRANCH  17  18
TORSDOF 7
ENDMDL