MODEL 4
REMARK VINA RESULT: -9.239077354      1.908      2.719
REMARK  7 active torsions:
REMARK  status: ('A' for Active; 'I' for Inactive)
REMARK    1  A    between atoms: N2_5  and  C3_6
REMARK    2  A    between atoms: C3_6  and  C4_7
REMARK    3  A    between atoms: N3_10  and  C7_11
REMARK    4  A    between atoms: C7_11  and  S1_12
REMARK    5  A    between atoms: S1_12  and  C8_14
REMARK    6  A    between atoms: C16_26  and  C17_27
REMARK    7  A    between atoms: C17_27  and  C18_28
ROOT
HETATM    1  C4  UNL     1       5.017   7.220  20.889  1.00  0.00     0.035 A
HETATM    2  C5  UNL     1       5.450   8.465  20.563  1.00  0.00     0.044 A
HETATM    3  C6  UNL     1       6.040   9.256  21.516  1.00  0.00     0.098 A
HETATM    4  N3  UNL     1       6.196   8.806  22.787  1.00  0.00    -0.298 N
HETATM    5  C14 UNL     1       5.753   7.574  23.057  1.00  0.00     0.327 A
HETATM    6  O2  UNL     1       5.882   7.123  24.230  1.00  0.00    -0.246 OA
HETATM    7  N4  UNL     1       5.167   6.772  22.136  1.00  0.00    -0.310 N
ATOM      8  H4  UNL     1       4.845   5.839  22.393  1.00  0.00     0.170 HD
ENDROOT
BRANCH   1   9
HETATM    9  C3  UNL     1       4.382   6.363  19.872  1.00  0.00     0.209 C
BRANCH   9  10
HETATM   10  N2  UNL     1       5.382   6.022  18.866  1.00  0.00    -0.251 N
HETATM   11  N1  UNL     1       5.239   6.239  17.597  1.00  0.00    -0.295 N
HETATM   12  C2  UNL     1       6.353   5.807  16.914  1.00  0.00     0.054 A
ATOM     13  H1  UNL     1       4.421   6.668  17.166  1.00  0.00     0.187 HD
HETATM   14  C1  UNL     1       6.449   5.916  15.620  1.00  0.00     0.045 C
HETATM   15  C16 UNL     1       7.193   5.307  17.858  1.00  0.00     0.061 A
HETATM   16  C15 UNL     1       6.550   5.453  19.126  1.00  0.00     0.274 A
HETATM   17  O3  UNL     1       7.049   5.093  20.217  1.00  0.00    -0.266 OA
BRANCH  15  18
HETATM   18  C17 UNL     1       8.370   4.781  17.721  1.00  0.00     0.030 C
BRANCH  18  19
HETATM   19  C18 UNL     1       8.697   3.411  17.460  1.00  0.00    -0.035 A
HETATM   20  C19 UNL     1       7.976   2.571  16.626  1.00  0.00     0.014 A
HETATM   21  C20 UNL     1       8.410   1.280  16.403  1.00  0.00     0.043 A
HETATM   22  C21 UNL     1       9.547   0.815  16.998  1.00  0.00     0.116 A
HETATM   23  F1  UNL     1       9.934  -0.462  16.750  1.00  0.00    -0.206 F
HETATM   24  C22 UNL     1      10.285   1.621  17.831  1.00  0.00     0.043 A
HETATM   25  C23 UNL     1       9.863   2.898  18.055  1.00  0.00     0.014 A
ENDBRANCH  18  19
ENDBRANCH  15  18
ENDBRANCH   9  10
ENDBRANCH   1   9
BRANCH   4  26
HETATM   26  C7  UNL     1       6.825   9.647  23.809  1.00  0.00     0.247 C
BRANCH  26  27
HETATM   27  S1  UNL     1       8.552   9.720  23.409  1.00  0.00     0.068 S
HETATM   28  O1  UNL     1       8.979  11.315  23.182  1.00  0.00    -0.251 OA
BRANCH  27  29
HETATM   29  C8  UNL     1       9.527   8.954  24.639  1.00  0.00     0.033 A
HETATM   30  C9  UNL     1      10.896   9.060  24.513  1.00  0.00     0.021 A
HETATM   31  C10 UNL     1      11.747   8.478  25.451  1.00  0.00     0.001 A
HETATM   32  C11 UNL     1      11.212   7.788  26.519  1.00  0.00     0.000 A
HETATM   33  C12 UNL     1       9.841   7.695  26.624  1.00  0.00     0.001 A
HETATM   34  C13 UNL     1       8.990   8.271  25.697  1.00  0.00     0.021 A
ENDBRANCH  27  29
ENDBRANCH  26  27
ENDBRANCH   4  26
TORSDOF 7
ENDMDL