MODEL 1
REMARK VINA RESULT: -8.906835479      0.000      0.000
REMARK  7 active torsions:
REMARK  status: ('A' for Active; 'I' for Inactive)
REMARK    1  A    between atoms: O1_2  and  C2_3
REMARK    2  A    between atoms: N1_7  and  O2_8
REMARK    3  A    between atoms: C6_10  and  N2_11
REMARK       I    between atoms: N2_11  and  C7_12
REMARK       I    between atoms: N2_11  and  C9_15
REMARK    4  A    between atoms: C9_15  and  C10_17
REMARK    5  A    between atoms: C10_17  and  C11_18
REMARK    6  A    between atoms: C11_18  and  C12_19
REMARK       I    between atoms: C12_19  and  N3_21
REMARK    7  A    between atoms: C14_26  and  C15_27
ROOT
HETATM    1  C12 UNL     1       4.545   6.814  21.825  1.00  0.00     0.236 C
HETATM    2  O5  UNL     1       3.293   6.980  21.622  1.00  0.00    -0.273 OA
HETATM    3  N3  UNL     1       5.324   6.266  20.838  1.00  0.00    -0.158 N
ATOM      4  H3  UNL     1       5.726   6.959  20.206  1.00  0.00     0.187 HD
HETATM    5  C13 UNL     1       5.647   5.072  20.553  1.00  0.00     0.703 A
HETATM    6  N4  UNL     1       6.455   4.694  19.505  1.00  0.00    -0.173 N
ATOM      7  H4  UNL     1       6.889   5.330  18.836  1.00  0.00     0.186 HD
HETATM    8  C14 UNL     1       6.582   3.378  19.501  1.00  0.00     0.146 A
HETATM    9  N5  UNL     1       5.864   2.927  20.533  1.00  0.00    -0.268 N
ATOM     10  H5  UNL     1       5.761   1.948  20.799  1.00  0.00     0.189 HD
HETATM   11  N6  UNL     1       5.307   3.955  21.158  1.00  0.00    -0.126 N
HETATM   12  C21 UNL     1       4.467   3.759  22.321  1.00  0.00     0.197 C
ENDROOT
BRANCH   1  13
HETATM   13  C11 UNL     1       5.062   7.241  23.149  1.00  0.00     0.113 C
BRANCH  13  14
HETATM   14  C10 UNL     1       5.570   8.667  23.118  1.00  0.00     0.113 C
BRANCH  14  15
HETATM   15  C9  UNL     1       6.878   8.758  23.855  1.00  0.00     0.232 C
HETATM   16  N2  UNL     1       8.109   8.914  23.169  1.00  0.00    -0.233 N
HETATM   17  C7  UNL     1       9.332   9.003  23.863  1.00  0.00     0.228 C
HETATM   18  C8  UNL     1       9.452   8.952  25.331  1.00  0.00     0.118 C
HETATM   19  O3  UNL     1      10.382   9.134  23.181  1.00  0.00    -0.273 OA
HETATM   20  O4  UNL     1       6.870   8.698  25.103  1.00  0.00    -0.273 OA
BRANCH  16  21
HETATM   21  C6  UNL     1       8.055   8.973  21.733  1.00  0.00     0.177 A
HETATM   22  C2  UNL     1       7.951  10.199  21.130  1.00  0.00     0.115 A
HETATM   23  C3  UNL     1       7.892  10.325  19.736  1.00  0.00     0.042 A
HETATM   24  C4  UNL     1       7.943   9.165  18.999  1.00  0.00     0.023 A
HETATM   25  C5  UNL     1       8.048   7.945  19.643  1.00  0.00     0.125 A
HETATM   26  N1  UNL     1       8.102   7.871  20.981  1.00  0.00    -0.216 N
BRANCH  22  27
HETATM   27  O1  UNL     1       7.899  11.372  21.858  1.00  0.00    -0.352 OA
HETATM   28  C1  UNL     1       7.868  12.642  21.240  1.00  0.00     0.210 C
ENDBRANCH  22  27
BRANCH  26  29
HETATM   29  O2  UNL     1       8.207   6.606  21.548  1.00  0.00    -0.281 OA
ATOM     30  H2  UNL     1       7.532   6.344  22.163  1.00  0.00     0.245 HD
ENDBRANCH  26  29
ENDBRANCH  16  21
ENDBRANCH  14  15
ENDBRANCH  13  14
ENDBRANCH   1  13
BRANCH   8  31
HETATM   31  C15 UNL     1       7.364   2.576  18.544  1.00  0.00     0.013 A
HETATM   32  C16 UNL     1       6.880   2.273  17.294  1.00  0.00     0.015 A
HETATM   33  C17 UNL     1       7.659   1.508  16.419  1.00  0.00     0.004 A
HETATM   34  C18 UNL     1       8.909   1.038  16.764  1.00  0.00     0.042 A
HETATM   35  C19 UNL     1       9.379   1.351  18.020  1.00  0.00     0.117 A
HETATM   36  F1  UNL     1      10.613   0.881  18.345  1.00  0.00    -0.206 F
HETATM   37  C20 UNL     1       8.613   2.107  18.889  1.00  0.00     0.057 A
ENDBRANCH   8  31
TORSDOF 7
ENDMDL