MODEL 5
REMARK VINA RESULT: -8.518863873      1.578      2.132
REMARK  7 active torsions:
REMARK  status: ('A' for Active; 'I' for Inactive)
REMARK    1  A    between atoms: C4_4  and  C5_5
REMARK    2  A    between atoms: C5_5  and  N1_6
REMARK    3  A    between atoms: N3_12  and  C9_14
REMARK    4  A    between atoms: C9_14  and  C10_15
REMARK       I    between atoms: C10_15  and  N4_17
REMARK    5  A    between atoms: N4_17  and  C11_18
REMARK    6  A    between atoms: N4_17  and  C13_20
REMARK    7  A    between atoms: C13_20  and  C14_21
ROOT
HETATM    1  C1  UNL     1      13.949   7.637  26.124  1.00  0.00     0.027 C
HETATM    2  C2  UNL     1      12.739   7.787  26.117  1.00  0.00    -0.026 C
HETATM    3  C3  UNL     1      11.333   7.972  26.096  1.00  0.00    -0.014 C
HETATM    4  C4  UNL     1      10.132   8.135  26.057  1.00  0.00    -0.071 C
ENDROOT
BRANCH   4   5
HETATM    5  C5  UNL     1       8.682   8.335  25.986  1.00  0.00     0.245 C
BRANCH   5   6
HETATM    6  N1  UNL     1       8.171   8.123  24.647  1.00  0.00    -0.265 N
HETATM    7  N2  UNL     1       7.099   7.446  24.345  1.00  0.00    -0.306 N
HETATM    8  C6  UNL     1       6.914   7.450  22.993  1.00  0.00     0.126 A
ATOM      9  H2  UNL     1       6.490   6.982  25.018  1.00  0.00     0.186 HD
HETATM   10  C7  UNL     1       7.937   8.173  22.446  1.00  0.00     0.070 A
HETATM   11  C8  UNL     1       8.285   8.522  21.164  1.00  0.00     0.121 A
HETATM   12  C21 UNL     1       8.710   8.583  23.519  1.00  0.00     0.139 A
HETATM   13  N3  UNL     1       7.637   8.189  20.159  1.00  0.00    -0.346 N
HETATM   14  N5  UNL     1       9.422   9.285  20.997  1.00  0.00    -0.338 N
ATOM     15  H3  UNL     1       8.045   8.537  19.291  1.00  0.00     0.167 HD
HETATM   16  C20 UNL     1      10.159   9.675  22.030  1.00  0.00     0.183 A
ATOM     17  H5  UNL     1       9.703   9.558  20.056  1.00  0.00     0.168 HD
HETATM   18  N6  UNL     1       9.802   9.324  23.276  1.00  0.00    -0.337 N
ATOM     19  H6  UNL     1      10.378   9.629  24.060  1.00  0.00     0.168 HD
BRANCH  13  20
HETATM   20  C9  UNL     1       6.467   7.440  19.951  1.00  0.00     0.164 C
BRANCH  20  21
HETATM   21  C10 UNL     1       6.529   6.689  18.657  1.00  0.00     0.259 C
HETATM   22  O1  UNL     1       6.573   7.345  17.576  1.00  0.00    -0.267 OA
HETATM   23  N4  UNL     1       6.539   5.271  18.659  1.00  0.00    -0.344 N
BRANCH  23  24
HETATM   24  C11 UNL     1       6.460   4.583  19.945  1.00  0.00     0.122 C
HETATM   25  C12 UNL     1       5.378   3.573  20.053  1.00  0.00     0.026 C
ENDBRANCH  23  24
BRANCH  23  26
HETATM   26  C13 UNL     1       6.721   4.524  17.434  1.00  0.00     0.166 C
BRANCH  26  27
HETATM   27  C14 UNL     1       7.840   3.584  17.384  1.00  0.00    -0.023 A
HETATM   28  C15 UNL     1       9.105   3.891  17.805  1.00  0.00     0.010 A
HETATM   29  C16 UNL     1      10.158   2.976  17.794  1.00  0.00     0.001 A
HETATM   30  C17 UNL     1       9.879   1.711  17.333  1.00  0.00     0.001 A
HETATM   31  C18 UNL     1       8.610   1.368  16.903  1.00  0.00     0.019 A
HETATM   32  C19 UNL     1       7.611   2.273  16.924  1.00  0.00     0.018 A
HETATM   33 BR1  UNL     1       5.827   1.848  16.334  1.00  0.00    -0.051 Br
ENDBRANCH  26  27
ENDBRANCH  23  26
ENDBRANCH  20  21
ENDBRANCH  13  20
ENDBRANCH   5   6
ENDBRANCH   4   5
TORSDOF 7
ENDMDL