MODEL 5
REMARK VINA RESULT: -8.129033248      4.393     11.100
REMARK  7 active torsions:
REMARK  status: ('A' for Active; 'I' for Inactive)
REMARK    1  A    between atoms: C3_3  and  C4_4
REMARK    2  A    between atoms: C4_4  and  C5_5
REMARK    3  A    between atoms: C8_8  and  C9_9
REMARK       I    between atoms: C9_9  and  N1_11
REMARK    4  A    between atoms: N1_11  and  C10_13
REMARK    5  A    between atoms: C10_13  and  C11_14
REMARK    6  A    between atoms: C16_22  and  O2_23
REMARK    7  A    between atoms: N5_28  and  C19_29
ROOT
HETATM    1  C5  UNL     1       6.770   5.685  19.423  1.00  0.00    -0.002 A
HETATM    2  C6  UNL     1       7.940   6.334  19.100  1.00  0.00     0.015 A
HETATM    3  C7  UNL     1       8.430   7.244  20.046  1.00  0.00     0.018 A
HETATM    4  C8  UNL     1       7.779   7.479  21.235  1.00  0.00     0.034 A
HETATM    5  C15 UNL     1       6.604   6.797  21.506  1.00  0.00     0.054 A
HETATM    6  C16 UNL     1       6.107   5.907  20.603  1.00  0.00     0.079 A
ENDROOT
BRANCH   1   7
HETATM    7  C4  UNL     1       6.239   4.736  18.463  1.00  0.00     0.029 C
BRANCH   7   8
HETATM    8  C3  UNL     1       6.628   4.770  17.199  1.00  0.00     0.010 A
HETATM    9  C2  UNL     1       6.089   5.574  16.192  1.00  0.00     0.059 A
HETATM   10  C1  UNL     1       5.108   6.419  16.367  1.00  0.00     0.046 C
HETATM   11  N5  UNL     1       6.745   5.329  15.039  1.00  0.00    -0.256 N
HETATM   12  N4  UNL     1       7.656   4.415  15.297  1.00  0.00    -0.304 N
HETATM   13  C18 UNL     1       7.624   4.049  16.580  1.00  0.00     0.121 A
ATOM     14  H4  UNL     1       8.302   4.034  14.606  1.00  0.00     0.186 HD
BRANCH  11  15
HETATM   15  C19 UNL     1       6.484   5.954  13.791  1.00  0.00     0.072 A
HETATM   16  C20 UNL     1       5.724   5.300  12.843  1.00  0.00     0.037 A
HETATM   17  C21 UNL     1       5.446   5.873  11.613  1.00  0.00     0.064 A
HETATM   18  C22 UNL     1       5.946   7.122  11.350  1.00  0.00     0.190 A
HETATM   19  F1  UNL     1       5.683   7.695  10.154  1.00  0.00    -0.186 F
HETATM   20  N6  UNL     1       6.686   7.771  12.258  1.00  0.00    -0.336 N
HETATM   21  C23 UNL     1       7.190   9.087  11.932  1.00  0.00     0.158 C
HETATM   22  C24 UNL     1       6.951   7.196  13.460  1.00  0.00     0.124 A
ENDBRANCH  11  15
ENDBRANCH   7   8
ENDBRANCH   1   7
BRANCH   6  23
HETATM   23  O2  UNL     1       4.938   5.204  20.833  1.00  0.00    -0.355 OA
HETATM   24  C17 UNL     1       4.304   5.318  22.074  1.00  0.00     0.210 C
ENDBRANCH   6  23
BRANCH   4  25
HETATM   25  C9  UNL     1       8.317   8.431  22.179  1.00  0.00     0.252 C
HETATM   26  O1  UNL     1       9.063   9.398  21.797  1.00  0.00    -0.268 OA
HETATM   27  N1  UNL     1       8.045   8.335  23.557  1.00  0.00    -0.351 N
ATOM     28  H1  UNL     1       7.455   7.574  23.890  1.00  0.00     0.163 HD
BRANCH  27  29
HETATM   29  C10 UNL     1       8.580   9.289  24.526  1.00  0.00     0.181 C
BRANCH  29  30
HETATM   30  C11 UNL     1       9.596   8.617  25.343  1.00  0.00     0.043 A
HETATM   31  C12 UNL     1      10.966   8.727  25.183  1.00  0.00     0.118 A
HETATM   32  N2  UNL     1      11.589   7.972  26.109  1.00  0.00    -0.355 N
HETATM   33  C13 UNL     1      12.993   7.790  26.311  1.00  0.00     0.156 C
HETATM   34  C14 UNL     1      10.621   7.403  26.832  1.00  0.00     0.182 A
HETATM   35  N3  UNL     1       9.410   7.790  26.374  1.00  0.00    -0.353 N
ATOM     36  H3  UNL     1       8.509   7.499  26.751  1.00  0.00     0.166 HD
ENDBRANCH  29  30
ENDBRANCH  27  29
ENDBRANCH   4  25
TORSDOF 7
ENDMDL