MODEL 5
REMARK VINA RESULT: -7.512630454      3.104      6.750
REMARK  8 active torsions:
REMARK  status: ('A' for Active; 'I' for Inactive)
REMARK    1  A    between atoms: O1_2  and  C2_3
REMARK    2  A    between atoms: C5_6  and  C6_7
REMARK    3  A    between atoms: C6_7  and  C7_8
REMARK    4  A    between atoms: C9_11  and  C10_12
REMARK    5  A    between atoms: N3_19  and  C13_20
REMARK    6  A    between atoms: C13_20  and  C14_21
REMARK    7  A    between atoms: C20_28  and  O4_29
REMARK    8  A    between atoms: C22_31  and  O5_32
ROOT
HETATM    1  C10 UNL     1       8.752   8.577  23.458  1.00  0.00     0.127 C
HETATM    2  C11 UNL     1       9.130   8.417  24.818  1.00  0.00     0.090 C
HETATM    3  N1  UNL     1       9.430   8.267  25.932  1.00  0.00    -0.192 NA
ENDROOT
BRANCH   1   4
HETATM    4  C9  UNL     1       7.687   7.984  22.948  1.00  0.00     0.099 A
HETATM    5  C8  UNL     1       7.674   7.512  21.637  1.00  0.00     0.226 A
HETATM    6  C7  UNL     1       6.572   6.899  21.082  1.00  0.00     0.096 A
HETATM    7  O2  UNL     1       8.756   7.690  20.991  1.00  0.00    -0.283 OA
HETATM    8  N3  UNL     1       5.445   6.734  21.805  1.00  0.00    -0.270 N
HETATM    9  C12 UNL     1       5.481   7.198  23.087  1.00  0.00     0.331 A
HETATM   10  N2  UNL     1       6.553   7.793  23.623  1.00  0.00    -0.304 N
HETATM   11  O3  UNL     1       4.473   7.073  23.873  1.00  0.00    -0.246 OA
ATOM     12  H2  UNL     1       6.500   8.115  24.590  1.00  0.00     0.171 HD
BRANCH   6  13
HETATM   13  C6  UNL     1       6.693   6.461  19.847  1.00  0.00     0.048 C
BRANCH  13  14
HETATM   14  C5  UNL     1       7.255   5.203  19.381  1.00  0.00     0.003 A
HETATM   15  C4  UNL     1       7.547   4.160  20.246  1.00  0.00     0.017 A
HETATM   16  C3  UNL     1       8.036   2.985  19.753  1.00  0.00     0.040 A
HETATM   17  C2  UNL     1       8.254   2.788  18.418  1.00  0.00     0.104 A
HETATM   18  C22 UNL     1       7.971   3.817  17.513  1.00  0.00     0.136 A
HETATM   19  C20 UNL     1       7.479   5.004  18.007  1.00  0.00     0.114 A
BRANCH  17  20
HETATM   20  O1  UNL     1       8.742   1.609  17.918  1.00  0.00    -0.353 OA
HETATM   21  C1  UNL     1      10.103   1.228  17.998  1.00  0.00     0.210 C
ENDBRANCH  17  20
BRANCH  18  22
HETATM   22  O5  UNL     1       8.181   3.645  16.174  1.00  0.00    -0.351 OA
HETATM   23  C23 UNL     1       7.336   2.973  15.286  1.00  0.00     0.210 C
ENDBRANCH  18  22
BRANCH  19  24
HETATM   24  O4  UNL     1       7.190   6.036  17.168  1.00  0.00    -0.352 OA
HETATM   25  C21 UNL     1       6.072   6.240  16.374  1.00  0.00     0.210 C
ENDBRANCH  19  24
ENDBRANCH  13  14
ENDBRANCH   6  13
BRANCH   8  26
HETATM   26  C13 UNL     1       4.306   6.068  21.321  1.00  0.00     0.115 C
BRANCH  26  27
HETATM   27  C14 UNL     1       4.131   4.638  21.268  1.00  0.00     0.002 A
HETATM   28  C15 UNL     1       4.170   3.894  22.479  1.00  0.00     0.014 A
HETATM   29  C16 UNL     1       3.924   2.559  22.568  1.00  0.00     0.001 A
HETATM   30  C17 UNL     1       3.611   1.826  21.451  1.00  0.00     0.002 A
HETATM   31  C18 UNL     1       3.558   2.484  20.264  1.00  0.00     0.024 A
HETATM   32  C19 UNL     1       3.816   3.859  20.188  1.00  0.00     0.045 A
HETATM   33 CL1  UNL     1       3.773   4.538  18.601  1.00  0.00    -0.083 Cl
ENDBRANCH  26  27
ENDBRANCH   8  26
ENDBRANCH   1   4
TORSDOF 8
ENDMDL