MODEL 5
REMARK VINA RESULT: -7.538427790      1.769      2.621
REMARK  8 active torsions:
REMARK  status: ('A' for Active; 'I' for Inactive)
REMARK    1  A    between atoms: C3_3  and  C4_4
REMARK    2  A    between atoms: C4_4  and  C5_5
REMARK    3  A    between atoms: C6_6  and  O1_7
REMARK    4  A    between atoms: C9_10  and  O2_11
REMARK    5  A    between atoms: C12_14  and  O3_15
REMARK    6  A    between atoms: C14_17  and  N1_18
REMARK    7  A    between atoms: N1_18  and  S1_20
REMARK    8  A    between atoms: N3_26  and  C16_27
ROOT
HETATM    1  C1  UNL     1       6.364   5.491  17.039  1.00  0.00     0.046 C
HETATM    2  C2  UNL     1       6.773   6.023  18.204  1.00  0.00     0.061 A
HETATM    3  C3  UNL     1       6.367   7.212  18.766  1.00  0.00     0.039 A
HETATM    4  C14 UNL     1       7.051   7.357  19.965  1.00  0.00     0.142 A
HETATM    5  N2  UNL     1       7.827   6.266  20.077  1.00  0.00    -0.277 N
ATOM      6  H2  UNL     1       8.454   6.079  20.860  1.00  0.00     0.189 HD
HETATM    7  N3  UNL     1       7.670   5.468  19.036  1.00  0.00    -0.255 N
ENDROOT
BRANCH   3   8
HETATM    8  C4  UNL     1       5.495   8.058  18.263  1.00  0.00     0.034 C
BRANCH   8   9
HETATM    9  C5  UNL     1       5.775   9.044  17.255  1.00  0.00     0.032 A
HETATM   10  C6  UNL     1       6.432  10.199  17.603  1.00  0.00     0.083 A
HETATM   11  C8  UNL     1       6.723  11.185  16.651  1.00  0.00     0.074 A
HETATM   12  C9  UNL     1       6.349  10.997  15.356  1.00  0.00     0.073 A
HETATM   13  C11 UNL     1       5.696   9.861  14.982  1.00  0.00     0.074 A
HETATM   14  C12 UNL     1       5.418   8.901  15.932  1.00  0.00     0.083 A
BRANCH  10  15
HETATM   15  O1  UNL     1       6.823  10.423  18.889  1.00  0.00    -0.355 OA
HETATM   16  C7  UNL     1       7.654  11.448  19.335  1.00  0.00     0.210 C
ENDBRANCH  10  15
BRANCH  12  17
HETATM   17  O2  UNL     1       6.621  11.959  14.364  1.00  0.00    -0.356 OA
HETATM   18  C10 UNL     1       7.525  11.611  13.325  1.00  0.00     0.210 C
ENDBRANCH  12  17
BRANCH  14  19
HETATM   19  O3  UNL     1       4.765   7.767  15.557  1.00  0.00    -0.355 OA
HETATM   20  C13 UNL     1       4.805   7.338  14.214  1.00  0.00     0.210 C
ENDBRANCH  14  19
ENDBRANCH   8   9
ENDBRANCH   3   8
BRANCH   4  21
HETATM   21  N1  UNL     1       6.945   8.354  20.794  1.00  0.00    -0.268 N
ATOM     22  H1  UNL     1       6.097   8.920  20.760  1.00  0.00     0.180 HD
BRANCH  21  23
HETATM   23  S1  UNL     1       8.142   8.765  21.931  1.00  0.00     0.228 S
HETATM   24  C15 UNL     1       7.745  10.151  22.934  1.00  0.00     0.186 C
HETATM   25  O4  UNL     1       9.452   9.051  21.250  1.00  0.00    -0.206 OA
HETATM   26  O5  UNL     1       8.402   7.585  22.851  1.00  0.00    -0.206 OA
ENDBRANCH  21  23
ENDBRANCH   4  21
BRANCH   7  27
HETATM   27  C16 UNL     1       8.319   4.203  18.777  1.00  0.00     0.057 A
HETATM   28  C17 UNL     1       7.852   3.042  19.366  1.00  0.00     0.034 A
HETATM   29  C18 UNL     1       8.465   1.833  19.126  1.00  0.00     0.044 A
HETATM   30  C19 UNL     1       9.569   1.783  18.279  1.00  0.00     0.116 A
HETATM   31  F1  UNL     1      10.192   0.614  18.024  1.00  0.00    -0.206 F
HETATM   32  C20 UNL     1      10.031   2.936  17.697  1.00  0.00     0.044 A
HETATM   33  C21 UNL     1       9.407   4.122  17.951  1.00  0.00     0.034 A
ENDBRANCH   7  27
TORSDOF 8
ENDMDL