MODEL 3
REMARK VINA RESULT: -7.847375527      2.687      4.558
REMARK  8 active torsions:
REMARK  status: ('A' for Active; 'I' for Inactive)
REMARK    1  A    between atoms: C1_2  and  C2_4
REMARK    2  A    between atoms: C2_4  and  C3_5
REMARK    3  A    between atoms: C3_5  and  C4_6
REMARK    4  A    between atoms: C4_6  and  N1_7
REMARK    5  A    between atoms: C4_6  and  C13_27
REMARK       I    between atoms: N1_7  and  C5_9
REMARK    6  A    between atoms: C5_9  and  C6_11
REMARK    7  A    between atoms: N3_14  and  O4_15
REMARK    8  A    between atoms: N4_24  and  O5_25
ROOT
HETATM    1  N1  UNL     1       7.942   8.506  21.570  1.00  0.00    -0.346 N
ATOM      2  H1  UNL     1       7.187   7.942  21.960  1.00  0.00     0.163 HD
HETATM    3  C5  UNL     1       8.345   8.216  20.268  1.00  0.00     0.289 C
HETATM    4  O3  UNL     1       9.265   8.870  19.731  1.00  0.00    -0.264 OA
ENDROOT
BRANCH   3   5
HETATM    5  C6  UNL     1       7.713   7.153  19.504  1.00  0.00     0.218 A
HETATM    6  N2  UNL     1       7.271   7.401  18.243  1.00  0.00    -0.252 N
HETATM    7  N3  UNL     1       6.695   6.452  17.534  1.00  0.00    -0.160 N
ATOM      8  H2  UNL     1       7.386   8.331  17.842  1.00  0.00     0.191 HD
HETATM    9  C7  UNL     1       6.522   5.212  18.023  1.00  0.00     0.111 A
HETATM   10  C8  UNL     1       5.909   4.246  17.238  1.00  0.00     0.055 A
HETATM   11  C12 UNL     1       6.961   4.926  19.301  1.00  0.00     0.096 A
HETATM   12  C9  UNL     1       5.732   2.973  17.737  1.00  0.00     0.013 A
HETATM   13 BR1  UNL     1       4.884   1.647  16.649  1.00  0.00    -0.051 Br
HETATM   14  C10 UNL     1       6.175   2.700  19.018  1.00  0.00     0.021 A
HETATM   15  C11 UNL     1       6.785   3.640  19.813  1.00  0.00     0.036 A
HETATM   16  N4  UNL     1       7.545   5.907  20.005  1.00  0.00    -0.199 N
BRANCH   7  17
HETATM   17  O4  UNL     1       6.239   6.692  16.250  1.00  0.00    -0.267 OA
ATOM     18  H4  UNL     1       6.125   5.984  15.627  1.00  0.00     0.247 HD
ENDBRANCH   7  17
BRANCH  16  19
HETATM   19  O5  UNL     1       7.982   5.642  21.270  1.00  0.00    -0.281 OA
ATOM     20  H5  UNL     1       8.908   5.737  21.464  1.00  0.00     0.245 HD
ENDBRANCH  16  19
ENDBRANCH   3   5
BRANCH   1  21
HETATM   21  C4  UNL     1       8.503   9.540  22.420  1.00  0.00     0.120 C
BRANCH  21  22
HETATM   22  C3  UNL     1       7.455  10.587  22.728  1.00  0.00     0.040 C
BRANCH  22  23
HETATM   23  C2  UNL     1       6.965  11.274  21.490  1.00  0.00     0.115 C
BRANCH  23  24
HETATM   24  C1  UNL     1       8.003  12.160  20.903  1.00  0.00     0.172 C
HETATM   25  O1  UNL     1       8.336  13.174  21.548  1.00  0.00    -0.648 OA
HETATM   26  O2  UNL     1       8.609  11.924  19.697  1.00  0.00    -0.648 OA
ENDBRANCH  23  24
ENDBRANCH  22  23
ENDBRANCH  21  22
BRANCH  21  27
HETATM   27  C13 UNL     1       8.993   8.986  23.700  1.00  0.00    -0.020 A
HETATM   28  C14 UNL     1      10.304   9.124  24.101  1.00  0.00     0.012 A
HETATM   29  C15 UNL     1      10.742   8.598  25.304  1.00  0.00     0.018 A
HETATM   30  C16 UNL     1       9.878   7.919  26.134  1.00  0.00     0.087 A
HETATM   31  N5  UNL     1       8.597   7.790  25.730  1.00  0.00    -0.375 N
HETATM   32  C17 UNL     1       8.154   8.303  24.549  1.00  0.00     0.096 A
ATOM     33  H5  UNL     1       7.939   7.291  26.328  1.00  0.00     0.164 HD
ENDBRANCH  21  27
ENDBRANCH   1  21
TORSDOF 8
ENDMDL