MODEL 4
REMARK VINA RESULT: -7.297252934      4.176      8.036
REMARK  7 active torsions:
REMARK  status: ('A' for Active; 'I' for Inactive)
REMARK    1  A    between atoms: O1_2  and  C2_3
REMARK    2  A    between atoms: C2_3  and  C3_4
REMARK    3  A    between atoms: C3_4  and  N1_5
REMARK       I    between atoms: N1_5  and  C5_7
REMARK    4  A    between atoms: C5_7  and  C6_9
REMARK    5  A    between atoms: C6_9  and  C7_10
REMARK    6  A    between atoms: C7_10  and  C8_11
REMARK       I    between atoms: C8_11  and  N2_13
REMARK    7  A    between atoms: N2_13  and  C9_15
ROOT
HETATM    1  C9  UNL     1       7.187   8.106  19.596  1.00  0.00     0.685 A
HETATM    2  N3  UNL     1       6.992   7.491  18.435  1.00  0.00    -0.190 N
ATOM      3  H3  UNL     1       6.563   8.027  17.680  1.00  0.00     0.184 HD
HETATM    4  C10 UNL     1       7.321   6.212  18.186  1.00  0.00     0.077 A
HETATM    5  C11 UNL     1       7.904   5.496  19.223  1.00  0.00     0.059 A
HETATM    6  C12 UNL     1       8.106   6.137  20.429  1.00  0.00     0.124 A
HETATM    7  N4  UNL     1       7.753   7.426  20.615  1.00  0.00    -0.201 N
ATOM      8  H4  UNL     1       7.911   7.881  21.514  1.00  0.00     0.183 HD
HETATM    9  C13 UNL     1       8.155   4.160  18.691  1.00  0.00     0.198 A
HETATM   10  O4  UNL     1       8.681   3.213  19.338  1.00  0.00    -0.286 OA
HETATM   11  C14 UNL     1       7.708   4.087  17.304  1.00  0.00     0.048 A
HETATM   12  C15 UNL     1       7.690   3.111  16.322  1.00  0.00     0.041 A
HETATM   13 BR1  UNL     1       8.386   1.400  16.747  1.00  0.00    -0.049 Br
HETATM   14  C16 UNL     1       7.189   3.331  15.055  1.00  0.00     0.107 A
HETATM   15  N5  UNL     1       6.701   4.573  14.799  1.00  0.00    -0.373 N
ATOM     16  H5  UNL     1       6.321   4.779  13.875  1.00  0.00     0.164 HD
HETATM   17  C17 UNL     1       6.707   5.540  15.740  1.00  0.00     0.102 A
HETATM   18  C18 UNL     1       7.204   5.337  17.010  1.00  0.00     0.023 A
ENDROOT
BRANCH   1  19
HETATM   19  N2  UNL     1       6.871   9.336  19.835  1.00  0.00    -0.160 N
HETATM   20  C8  UNL     1       7.913  10.154  20.400  1.00  0.00     0.236 C
HETATM   21  O3  UNL     1       9.064  10.047  19.958  1.00  0.00    -0.273 OA
ATOM     22  H2  UNL     1       5.941   9.705  19.634  1.00  0.00     0.187 HD
BRANCH  20  23
HETATM   23  C7  UNL     1       7.538  11.096  21.499  1.00  0.00     0.113 C
BRANCH  23  24
HETATM   24  C6  UNL     1       7.326  10.284  22.734  1.00  0.00     0.112 C
BRANCH  24  25
HETATM   25  C5  UNL     1       8.551  10.040  23.504  1.00  0.00     0.219 C
HETATM   26  N1  UNL     1       8.653   8.852  24.270  1.00  0.00    -0.354 N
HETATM   27  C4  UNL     1       7.548   7.925  24.262  1.00  0.00     0.152 C
HETATM   28  O2  UNL     1       9.512  10.890  23.484  1.00  0.00    -0.273 OA
BRANCH  26  29
HETATM   29  C3  UNL     1       9.827   8.531  25.060  1.00  0.00     0.151 C
BRANCH  29  30
HETATM   30  C2  UNL     1       9.464   8.164  26.484  1.00  0.00     0.186 C
BRANCH  30  31
HETATM   31  O1  UNL     1      10.202   7.058  26.851  1.00  0.00    -0.394 OA
HETATM   32  C1  UNL     1      11.565   7.415  26.859  1.00  0.00     0.201 C
ENDBRANCH  30  31
ENDBRANCH  29  30
ENDBRANCH  26  29
ENDBRANCH  24  25
ENDBRANCH  23  24
ENDBRANCH  20  23
ENDBRANCH   1  19
TORSDOF 7
ENDMDL