MODEL 5
REMARK VINA RESULT: -8.985159819      2.922      7.542
REMARK  6 active torsions:
REMARK  status: ('A' for Active; 'I' for Inactive)
REMARK    1  A    between atoms: C2_2  and  N1_3
REMARK    2  A    between atoms: C4_6  and  C5_7
REMARK    3  A    between atoms: C4_6  and  C9_13
REMARK    4  A    between atoms: N3_22  and  C16_23
REMARK    5  A    between atoms: C16_23  and  C17_24
REMARK    6  A    between atoms: C17_24  and  N4_25
ROOT
HETATM    1  N1  UNL     1       5.203   7.989  23.359  1.00  0.00    -0.255 N
HETATM    2  C3  UNL     1       6.287   8.861  23.790  1.00  0.00     0.267 C
HETATM    3  O1  UNL     1       6.160   9.728  24.679  1.00  0.00    -0.269 OA
HETATM    4  C4  UNL     1       7.438   8.451  22.953  1.00  0.00     0.193 C
HETATM    5  C15 UNL     1       7.140   7.063  22.642  1.00  0.00     0.267 C
HETATM    6  O2  UNL     1       7.932   6.139  22.388  1.00  0.00    -0.269 OA
HETATM    7  N3  UNL     1       5.710   6.907  22.675  1.00  0.00    -0.253 N
ENDROOT
BRANCH   4   8
HETATM    8  C5  UNL     1       8.705   8.560  23.728  1.00  0.00     0.033 C
HETATM    9  C6  UNL     1       9.852   8.981  23.235  1.00  0.00     0.002 C
HETATM   10  C7  UNL     1      10.923   8.973  24.260  1.00  0.00     0.048 C
HETATM   11  C8  UNL     1      10.162   8.808  25.557  1.00  0.00     0.123 C
HETATM   12  N2  UNL     1       8.918   8.238  25.101  1.00  0.00    -0.391 N
ATOM     13  H2  UNL     1       8.283   7.686  25.677  1.00  0.00     0.159 HD
ENDBRANCH   4   8
BRANCH   4  14
HETATM   14  C9  UNL     1       7.489   9.345  21.799  1.00  0.00    -0.022 A
HETATM   15  C10 UNL     1       7.077   9.005  20.527  1.00  0.00     0.009 A
HETATM   16  C11 UNL     1       7.131   9.863  19.453  1.00  0.00     0.004 A
HETATM   17  C12 UNL     1       7.620  11.132  19.641  1.00  0.00     0.042 A
HETATM   18  C13 UNL     1       8.037  11.503  20.881  1.00  0.00     0.117 A
HETATM   19  F1  UNL     1       8.520  12.771  21.044  1.00  0.00    -0.206 F
HETATM   20  C14 UNL     1       7.978  10.623  21.969  1.00  0.00     0.051 A
ENDBRANCH   4  14
BRANCH   1  21
HETATM   21  C2  UNL     1       3.790   8.328  23.616  1.00  0.00     0.148 C
HETATM   22  C1  UNL     1       3.338   7.601  24.890  1.00  0.00     0.028 C
ENDBRANCH   1  21
BRANCH   7  23
HETATM   23  C16 UNL     1       4.971   5.829  22.046  1.00  0.00     0.173 C
BRANCH  23  24
HETATM   24  C17 UNL     1       5.081   5.722  20.580  1.00  0.00     0.157 C
BRANCH  24  25
HETATM   25  N4  UNL     1       6.074   4.845  20.053  1.00  0.00    -0.278 N
HETATM   26  C18 UNL     1       6.318   3.467  20.397  1.00  0.00     0.261 A
HETATM   27  O3  UNL     1       5.644   2.836  21.255  1.00  0.00    -0.267 OA
HETATM   28  C19 UNL     1       7.434   2.991  19.593  1.00  0.00     0.048 A
HETATM   29  C20 UNL     1       8.080   1.776  19.512  1.00  0.00     0.018 A
HETATM   30  C24 UNL     1       7.888   3.999  18.779  1.00  0.00     0.048 A
HETATM   31  C21 UNL     1       9.130   1.605  18.644  1.00  0.00     0.001 A
HETATM   32  C22 UNL     1       9.558   2.628  17.846  1.00  0.00     0.001 A
HETATM   33  C23 UNL     1       8.940   3.845  17.903  1.00  0.00     0.018 A
HETATM   34  C25 UNL     1       7.061   5.147  19.049  1.00  0.00     0.261 A
HETATM   35  O4  UNL     1       7.169   6.279  18.491  1.00  0.00    -0.267 OA
ENDBRANCH  24  25
ENDBRANCH  23  24
ENDBRANCH   7  23
TORSDOF 6
ENDMDL