MODEL 2
REMARK VINA RESULT: -8.021882192      1.808      2.392
REMARK  7 active torsions:
REMARK  status: ('A' for Active; 'I' for Inactive)
REMARK    1  A    between atoms: N1_2  and  S1_4
REMARK    2  A    between atoms: S1_4  and  C3_7
REMARK    3  A    between atoms: C8_14  and  C9_15
REMARK    4  A    between atoms: C9_15  and  C10_16
REMARK    5  A    between atoms: C10_16  and  N3_17
REMARK    6  A    between atoms: C11_19  and  C12_20
REMARK    7  A    between atoms: N5_27  and  O3_28
ROOT
HETATM    1  C3  UNL     1       5.585   4.545  20.216  1.00  0.00     0.075 A
HETATM    2  C4  UNL     1       4.506   3.689  20.325  1.00  0.00     0.027 A
HETATM    3  C5  UNL     1       3.575   3.813  21.341  1.00  0.00     0.032 A
HETATM    4  C6  UNL     1       3.700   4.810  22.284  1.00  0.00     0.043 A
HETATM    5  N2  UNL     1       2.962   5.164  23.362  1.00  0.00    -0.365 N
ATOM      6  H2  UNL     1       2.110   4.699  23.675  1.00  0.00     0.165 HD
HETATM    7  C7  UNL     1       3.532   6.224  23.952  1.00  0.00     0.096 A
HETATM    8  C8  UNL     1       4.672   6.547  23.215  1.00  0.00    -0.029 A
HETATM    9  C16 UNL     1       4.773   5.660  22.173  1.00  0.00    -0.000 A
HETATM   10  C17 UNL     1       5.715   5.545  21.158  1.00  0.00     0.039 A
ENDROOT
BRANCH   8  11
HETATM   11  C9  UNL     1       5.567   7.683  23.572  1.00  0.00     0.060 C
BRANCH  11  12
HETATM   12  C10 UNL     1       5.983   7.513  24.995  1.00  0.00     0.123 C
BRANCH  12  13
HETATM   13  N3  UNL     1       7.399   7.367  25.209  1.00  0.00    -0.397 N
HETATM   14  C11 UNL     1       8.088   8.353  25.610  1.00  0.00     0.117 C
ATOM     15  H3  UNL     1       7.848   6.468  25.039  1.00  0.00     0.158 HD
BRANCH  14  16
HETATM   16  C12 UNL     1       9.514   8.186  25.821  1.00  0.00     0.096 A
HETATM   17  C13 UNL     1      10.412   8.626  24.866  1.00  0.00     0.038 A
HETATM   18  C14 UNL     1      11.769   8.487  25.027  1.00  0.00     0.041 A
HETATM   19  C15 UNL     1      12.234   7.887  26.181  1.00  0.00     0.096 A
HETATM   20 BR1  UNL     1      14.102   7.705  26.383  1.00  0.00    -0.030 Br
HETATM   21  N4  UNL     1      11.334   7.466  27.097  1.00  0.00    -0.267 N
HETATM   22  N5  UNL     1      10.032   7.612  26.918  1.00  0.00    -0.162 N
ATOM     23  H4  UNL     1      11.669   7.022  27.952  1.00  0.00     0.190 HD
BRANCH  22  24
HETATM   24  O3  UNL     1       9.187   7.155  27.902  1.00  0.00    -0.267 OA
ATOM     25  H3  UNL     1       9.409   6.362  28.374  1.00  0.00     0.247 HD
ENDBRANCH  22  24
ENDBRANCH  14  16
ENDBRANCH  12  13
ENDBRANCH  11  12
ENDBRANCH   8  11
BRANCH   1  26
HETATM   26  S1  UNL     1       6.709   4.313  18.900  1.00  0.00     0.243 S
HETATM   27  O1  UNL     1       6.015   3.651  17.729  1.00  0.00    -0.206 OA
HETATM   28  O2  UNL     1       7.217   5.690  18.488  1.00  0.00    -0.206 OA
BRANCH  26  29
HETATM   29  N1  UNL     1       8.089   3.416  19.380  1.00  0.00    -0.215 NA
HETATM   30  C1  UNL     1       9.107   3.556  18.356  1.00  0.00     0.129 C
HETATM   31  C2  UNL     1       7.767   2.010  19.488  1.00  0.00     0.129 C
ENDBRANCH  26  29
ENDBRANCH   1  26
TORSDOF 7
ENDMDL