MODEL 1
REMARK VINA RESULT: -8.868365973      0.000      0.000
REMARK  8 active torsions:
REMARK  status: ('A' for Active; 'I' for Inactive)
REMARK    1  A    between atoms: C5_5  and  C6_6
REMARK    2  A    between atoms: C6_6  and  N1_7
REMARK    3  A    between atoms: N1_7  and  C8_9
REMARK    4  A    between atoms: C8_9  and  O1_10
REMARK    5  A    between atoms: C8_9  and  C9_12
REMARK    6  A    between atoms: C9_12  and  N2_13
REMARK       I    between atoms: N2_13  and  C10_14
REMARK    7  A    between atoms: C10_14  and  C11_16
REMARK    8  A    between atoms: C14_19  and  N3_20
ROOT
HETATM    1  C1  UNL     1      10.385   0.593  18.033  1.00  0.00     0.018 C
HETATM    2  C2  UNL     1       9.409   1.255  18.315  1.00  0.00    -0.076 C
HETATM    3  C3  UNL     1       8.261   2.048  18.665  1.00  0.00     0.034 A
HETATM    4  C4  UNL     1       7.696   1.923  19.909  1.00  0.00     0.030 A
HETATM    5  C5  UNL     1       6.573   2.664  20.331  1.00  0.00    -0.039 A
HETATM    6  C18 UNL     1       6.063   3.535  19.415  1.00  0.00     0.010 A
HETATM    7  C19 UNL     1       6.611   3.692  18.136  1.00  0.00     0.021 A
HETATM    8  C20 UNL     1       7.706   2.947  17.773  1.00  0.00     0.029 A
HETATM    9 BR1  UNL     1       8.493   3.122  16.060  1.00  0.00    -0.050 Br
ENDROOT
BRANCH   5  10
HETATM   10  C6  UNL     1       6.081   2.443  21.715  1.00  0.00     0.163 C
BRANCH  10  11
HETATM   11  N1  UNL     1       4.731   2.834  21.956  1.00  0.00    -0.360 N
HETATM   12  C7  UNL     1       3.684   1.778  21.730  1.00  0.00     0.152 C
BRANCH  11  13
HETATM   13  C8  UNL     1       4.299   4.090  22.359  1.00  0.00     0.167 C
BRANCH  13  14
HETATM   14  O1  UNL     1       4.331   4.226  23.685  1.00  0.00    -0.344 OA
ATOM     15  H1  UNL     1       4.046   5.089  23.960  1.00  0.00     0.219 HD
ENDBRANCH  13  14
BRANCH  13  16
HETATM   16  C9  UNL     1       3.826   5.299  21.711  1.00  0.00     0.242 C
BRANCH  16  17
HETATM   17  N2  UNL     1       4.287   6.547  21.932  1.00  0.00    -0.375 NA
HETATM   18  C10 UNL     1       4.758   7.826  22.157  1.00  0.00     0.325 C
HETATM   19  O2  UNL     1       4.258   8.910  21.787  1.00  0.00    -0.251 OA
BRANCH  18  20
HETATM   20  C11 UNL     1       6.036   7.935  22.935  1.00  0.00     0.046 A
HETATM   21  C12 UNL     1       5.986   7.726  24.291  1.00  0.00     0.020 A
HETATM   22  C13 UNL     1       7.157   7.815  25.040  1.00  0.00     0.032 A
HETATM   23  C14 UNL     1       8.363   8.110  24.430  1.00  0.00     0.055 A
HETATM   24  C16 UNL     1       8.342   8.307  23.063  1.00  0.00     0.032 A
HETATM   25  C17 UNL     1       7.195   8.225  22.300  1.00  0.00     0.020 A
BRANCH  23  26
HETATM   26  N3  UNL     1       9.539   8.187  25.196  1.00  0.00    -0.236 N
HETATM   27  C15 UNL     1      10.567   9.015  25.036  1.00  0.00     0.218 A
HETATM   28  N4  UNL     1      11.532   8.771  25.980  1.00  0.00    -0.280 N
HETATM   29  N5  UNL     1      11.035   7.771  26.705  1.00  0.00    -0.007 NA
ATOM     30  H4  UNL     1      12.426   9.248  26.100  1.00  0.00     0.184 HD
HETATM   31  N6  UNL     1       9.845   7.428  26.233  1.00  0.00    -0.000 NA
ENDBRANCH  23  26
ENDBRANCH  18  20
ENDBRANCH  16  17
ENDBRANCH  13  16
ENDBRANCH  11  13
ENDBRANCH  10  11
ENDBRANCH   5  10
TORSDOF 8
ENDMDL