MODEL 4
REMARK VINA RESULT: -8.274328705      3.932      5.984
REMARK  7 active torsions:
REMARK  status: ('A' for Active; 'I' for Inactive)
REMARK    1  A    between atoms: S1_2  and  C2_5
REMARK    2  A    between atoms: C5_8  and  C6_9
REMARK    3  A    between atoms: C6_9  and  S2_10
REMARK    4  A    between atoms: S2_10  and  C7_13
REMARK    5  A    between atoms: C9_17  and  N2_18
REMARK       I    between atoms: N2_18  and  C10_20
REMARK    6  A    between atoms: C10_20  and  C11_22
REMARK    7  A    between atoms: C11_22  and  C12_23
ROOT
HETATM    1  C7  UNL     1       6.266   7.466  21.935  1.00  0.00     0.091 A
HETATM    2  C8  UNL     1       5.989   8.358  20.933  1.00  0.00     0.131 A
HETATM    3  N1  UNL     1       5.383   7.888  19.804  1.00  0.00    -0.200 N
ATOM      4  H1  UNL     1       5.174   8.547  19.053  1.00  0.00     0.183 HD
HETATM    5  C9  UNL     1       5.054   6.614  19.639  1.00  0.00     0.684 A
HETATM    6  N3  UNL     1       5.316   5.718  20.611  1.00  0.00    -0.200 N
ATOM      7  H3  UNL     1       5.068   4.736  20.494  1.00  0.00     0.183 HD
HETATM    8  C18 UNL     1       5.922   6.151  21.758  1.00  0.00     0.131 A
ENDROOT
BRANCH   1   9
HETATM    9  S2  UNL     1       7.038   8.023  23.391  1.00  0.00     0.182 S
HETATM   10  O3  UNL     1       7.039   9.543  23.351  1.00  0.00    -0.222 OA
HETATM   11  O4  UNL     1       8.462   7.564  23.498  1.00  0.00    -0.222 OA
BRANCH   9  12
HETATM   12  C6  UNL     1       6.084   7.484  24.775  1.00  0.00     0.184 C
BRANCH  12  13
HETATM   13  C5  UNL     1       4.719   8.024  24.788  1.00  0.00    -0.044 A
HETATM   14  C4  UNL     1       3.636   7.255  24.413  1.00  0.00     0.009 A
HETATM   15  C3  UNL     1       2.348   7.764  24.424  1.00  0.00     0.024 A
HETATM   16  C2  UNL     1       2.098   9.063  24.813  1.00  0.00     0.058 A
HETATM   17  C20 UNL     1       3.175   9.838  25.190  1.00  0.00     0.024 A
HETATM   18  C19 UNL     1       4.458   9.329  25.178  1.00  0.00     0.009 A
BRANCH  16  19
HETATM   19  S1  UNL     1       0.458   9.695  24.823  1.00  0.00     0.171 S
HETATM   20  C1  UNL     1      -0.619   8.539  24.021  1.00  0.00     0.167 C
HETATM   21  O1  UNL     1       0.372  10.994  24.080  1.00  0.00    -0.223 OA
HETATM   22  O2  UNL     1       0.010   9.949  26.234  1.00  0.00    -0.223 OA
ENDBRANCH  16  19
ENDBRANCH  12  13
ENDBRANCH   9  12
ENDBRANCH   1   9
BRANCH   5  23
HETATM   23  N2  UNL     1       4.486   6.181  18.578  1.00  0.00    -0.159 N
HETATM   24  C10 UNL     1       5.043   5.244  17.692  1.00  0.00     0.240 C
HETATM   25  O5  UNL     1       4.523   4.111  17.539  1.00  0.00    -0.272 OA
ATOM     26  H2  UNL     1       3.558   6.544  18.358  1.00  0.00     0.187 HD
BRANCH  24  27
HETATM   27  C11 UNL     1       6.266   5.581  16.915  1.00  0.00     0.142 C
BRANCH  27  28
HETATM   28  C12 UNL     1       7.358   4.622  17.187  1.00  0.00    -0.049 A
HETATM   29  C13 UNL     1       7.836   3.737  16.250  1.00  0.00     0.011 A
HETATM   30  C14 UNL     1       8.849   2.872  16.558  1.00  0.00     0.043 A
HETATM   31  C15 UNL     1       9.423   2.862  17.825  1.00  0.00     0.116 A
HETATM   32  F1  UNL     1      10.420   1.969  18.034  1.00  0.00    -0.206 F
HETATM   33  C16 UNL     1       8.956   3.737  18.764  1.00  0.00     0.043 A
HETATM   34  C17 UNL     1       7.941   4.597  18.440  1.00  0.00     0.011 A
ENDBRANCH  27  28
ENDBRANCH  24  27
ENDBRANCH   5  23
TORSDOF 7
ENDMDL