MODEL 5
REMARK VINA RESULT: -6.962978674      3.380      5.712
REMARK  8 active torsions:
REMARK  status: ('A' for Active; 'I' for Inactive)
REMARK    1  A    between atoms: C3_5  and  C4_6
REMARK    2  A    between atoms: C4_6  and  C5_7
REMARK       I    between atoms: N2_12  and  C9_13
REMARK    3  A    between atoms: C9_13  and  C10_15
REMARK    4  A    between atoms: C13_19  and  C14_20
REMARK    5  A    between atoms: C15_21  and  N3_22
REMARK    6  A    between atoms: C18_25  and  C19_26
REMARK    7  A    between atoms: C19_26  and  O4_28
REMARK    8  A    between atoms: O4_28  and  C20_29
ROOT
HETATM    1  C1  UNL     1       1.746   8.207  21.877  1.00  0.00     0.044 C
HETATM    2  C2  UNL     1       3.042   8.038  21.985  1.00  0.00     0.040 A
HETATM    3  N1  UNL     1       3.778   7.420  21.027  1.00  0.00    -0.355 N
ATOM      4  H1  UNL     1       3.419   7.038  20.153  1.00  0.00     0.166 HD
HETATM    5  C3  UNL     1       5.039   7.396  21.419  1.00  0.00     0.045 A
HETATM    6  C13 UNL     1       5.192   8.009  22.680  1.00  0.00     0.010 A
HETATM    7  C18 UNL     1       3.924   8.412  23.020  1.00  0.00     0.077 A
ENDROOT
BRANCH   5   8
HETATM    8  C4  UNL     1       6.040   6.862  20.738  1.00  0.00     0.047 C
BRANCH   8   9
HETATM    9  C5  UNL     1       6.215   5.400  20.673  1.00  0.00     0.036 A
HETATM   10  C6  UNL     1       5.398   4.530  21.364  1.00  0.00     0.037 A
HETATM   11  C7  UNL     1       5.568   3.161  21.299  1.00  0.00     0.028 A
HETATM   12 BR1  UNL     1       4.477   1.929  22.227  1.00  0.00    -0.050 Br
HETATM   13  C8  UNL     1       6.597   2.689  20.507  1.00  0.00     0.122 A
HETATM   14  N2  UNL     1       7.396   3.551  19.830  1.00  0.00    -0.258 N
HETATM   15  C9  UNL     1       8.468   3.046  19.006  1.00  0.00     0.230 C
HETATM   16  C12 UNL     1       7.225   4.882  19.898  1.00  0.00     0.264 A
HETATM   17  O1  UNL     1       9.211   3.830  18.376  1.00  0.00    -0.273 OA
HETATM   18  O2  UNL     1       8.016   5.626  19.233  1.00  0.00    -0.267 OA
BRANCH  15  19
HETATM   19  C10 UNL     1       8.671   1.583  18.918  1.00  0.00     0.099 C
HETATM   20  C11 UNL     1       9.922   1.294  18.134  1.00  0.00     0.014 C
ENDBRANCH  15  19
ENDBRANCH   8   9
ENDBRANCH   5   8
BRANCH   6  21
HETATM   21  C14 UNL     1       6.471   8.158  23.302  1.00  0.00     0.031 C
HETATM   22  C15 UNL     1       6.968   7.959  24.466  1.00  0.00     0.085 C
BRANCH  22  23
HETATM   23  N3  UNL     1       8.375   8.245  24.741  1.00  0.00    -0.398 N
HETATM   24  C16 UNL     1       9.235   8.835  23.737  1.00  0.00     0.148 C
HETATM   25  C17 UNL     1       8.975   7.952  26.026  1.00  0.00     0.148 C
ENDBRANCH  22  23
ENDBRANCH   6  21
BRANCH   7  26
HETATM   26  C19 UNL     1       3.512   9.156  24.198  1.00  0.00     0.296 C
HETATM   27  O3  UNL     1       3.198  10.350  24.276  1.00  0.00    -0.259 OA
BRANCH  26  28
HETATM   28  O4  UNL     1       3.437   8.497  25.443  1.00  0.00    -0.318 OA
BRANCH  28  29
HETATM   29  C20 UNL     1       2.578   7.400  25.607  1.00  0.00     0.174 C
HETATM   30  C21 UNL     1       1.129   7.784  25.631  1.00  0.00     0.034 C
ENDBRANCH  28  29
ENDBRANCH  26  28
ENDBRANCH   7  26
TORSDOF 8
ENDMDL