MODEL 3
REMARK VINA RESULT: -7.643212117      1.429      1.811
REMARK  6 active torsions:
REMARK  status: ('A' for Active; 'I' for Inactive)
REMARK    1  A    between atoms: N1_2  and  S1_4
REMARK    2  A    between atoms: S1_4  and  C2_7
REMARK    3  A    between atoms: C6_12  and  S2_13
REMARK    4  A    between atoms: S2_13  and  N2_16
REMARK    5  A    between atoms: N2_16  and  C8_18
REMARK    6  A    between atoms: C8_18  and  C9_19
ROOT
HETATM    1  S2  UNL     1       7.742   8.505  20.864  1.00  0.00     0.243 S
HETATM    2  O3  UNL     1       9.127   8.322  20.290  1.00  0.00    -0.206 OA
HETATM    3  O4  UNL     1       7.215   9.831  20.335  1.00  0.00    -0.206 OA
ENDROOT
BRANCH   1   4
HETATM    4  C6  UNL     1       7.827   8.535  22.608  1.00  0.00     0.077 A
HETATM    5  C5  UNL     1       6.687   8.477  23.360  1.00  0.00     0.044 A
HETATM    6  C4  UNL     1       6.703   8.499  24.751  1.00  0.00     0.013 A
HETATM    7  C3  UNL     1       7.914   8.581  25.405  1.00  0.00     0.044 A
HETATM    8 BR1  UNL     1       5.042   8.412  25.689  1.00  0.00    -0.051 Br
HETATM    9  C2  UNL     1       9.080   8.641  24.670  1.00  0.00     0.082 A
HETATM   10  C15 UNL     1       9.025   8.617  23.285  1.00  0.00     0.050 A
BRANCH   9  11
HETATM   11  S1  UNL     1      10.632   8.746  25.486  1.00  0.00     0.258 S
HETATM   12  O1  UNL     1      11.696   8.294  24.518  1.00  0.00    -0.201 OA
HETATM   13  O2  UNL     1      10.915  10.169  25.829  1.00  0.00    -0.201 OA
BRANCH  11  14
HETATM   14  N1  UNL     1      10.706   7.746  26.870  1.00  0.00    -0.320 N
HETATM   15  C1  UNL     1      12.019   7.204  27.061  1.00  0.00     0.159 C
ATOM     16  H1  UNL     1       9.914   7.558  27.484  1.00  0.00     0.171 HD
ENDBRANCH  11  14
ENDBRANCH   9  11
ENDBRANCH   1   4
BRANCH   1  17
HETATM   17  N2  UNL     1       6.758   7.258  20.269  1.00  0.00    -0.204 NA
HETATM   18  C7  UNL     1       5.407   7.612  19.984  1.00  0.00     0.130 C
BRANCH  17  19
HETATM   19  C8  UNL     1       7.381   6.629  19.137  1.00  0.00     0.183 C
BRANCH  19  20
HETATM   20  C9  UNL     1       7.614   5.160  19.337  1.00  0.00     0.096 A
HETATM   21  N3  UNL     1       6.928   4.464  20.260  1.00  0.00    -0.349 N
HETATM   22  C10 UNL     1       7.134   3.145  20.440  1.00  0.00     0.008 A
ATOM     23  H3  UNL     1       6.237   4.944  20.837  1.00  0.00     0.167 HD
HETATM   24  C11 UNL     1       6.396   2.340  21.450  1.00  0.00     0.068 C
HETATM   25  C12 UNL     1       8.065   2.472  19.674  1.00  0.00     0.049 A
HETATM   26  C13 UNL     1       8.763   3.176  18.736  1.00  0.00     0.008 A
HETATM   27  C14 UNL     1       9.781   2.473  17.886  1.00  0.00     0.068 C
HETATM   28  N4  UNL     1       8.515   4.487  18.600  1.00  0.00    -0.349 N
ATOM     29  H4  UNL     1       9.042   5.005  17.897  1.00  0.00     0.167 HD
ENDBRANCH  19  20
ENDBRANCH  17  19
ENDBRANCH   1  17
TORSDOF 6
ENDMDL