MODEL 2
REMARK VINA RESULT: -8.339769738      1.823      2.032
REMARK  6 active torsions:
REMARK  status: ('A' for Active; 'I' for Inactive)
REMARK    1  A    between atoms: C2_2  and  S1_3
REMARK    2  A    between atoms: S1_3  and  C3_6
REMARK    3  A    between atoms: C6_11  and  S2_12
REMARK    4  A    between atoms: S2_12  and  C7_15
REMARK    5  A    between atoms: C7_15  and  C8_16
REMARK    6  A    between atoms: C8_16  and  C9_17
REMARK       I    between atoms: C9_17  and  N2_19
ROOT
HETATM    1  S2  UNL     1       7.632   9.130  21.688  1.00  0.00     0.177 S
HETATM    2  O3  UNL     1       6.154   9.040  21.533  1.00  0.00    -0.223 OA
HETATM    3  O4  UNL     1       8.042  10.592  21.576  1.00  0.00    -0.223 OA
ENDROOT
BRANCH   1   4
HETATM    4  C6  UNL     1       8.075   8.542  23.305  1.00  0.00     0.076 A
HETATM    5  C5  UNL     1       7.146   7.856  24.064  1.00  0.00     0.111 A
HETATM    6  N1  UNL     1       7.474   7.403  25.299  1.00  0.00    -0.372 N
HETATM    7  C4  UNL     1       8.720   7.633  25.773  1.00  0.00     0.111 A
ATOM      8  H1  UNL     1       6.792   6.896  25.864  1.00  0.00     0.164 HD
HETATM    9  C3  UNL     1       9.672   8.315  25.042  1.00  0.00     0.076 A
HETATM   10  C15 UNL     1       9.350   8.788  23.768  1.00  0.00     0.049 A
BRANCH   9  11
HETATM   11  S1  UNL     1      11.260   8.595  25.673  1.00  0.00     0.176 S
HETATM   12  O1  UNL     1      12.326   8.404  24.645  1.00  0.00    -0.223 OA
HETATM   13  O2  UNL     1      11.396  10.003  26.200  1.00  0.00    -0.223 OA
BRANCH  11  14
HETATM   14  C2  UNL     1      11.609   7.481  27.034  1.00  0.00     0.141 C
HETATM   15  C1  UNL     1      13.112   7.300  27.155  1.00  0.00     0.021 C
ENDBRANCH  11  14
ENDBRANCH   9  11
ENDBRANCH   1   4
BRANCH   1  16
HETATM   16  C7  UNL     1       8.473   8.203  20.461  1.00  0.00     0.155 C
BRANCH  16  17
HETATM   17  C8  UNL     1       7.655   7.456  19.487  1.00  0.00     0.118 C
BRANCH  17  18
HETATM   18  C9  UNL     1       7.354   6.071  19.782  1.00  0.00     0.224 C
HETATM   19  O5  UNL     1       6.565   5.732  20.687  1.00  0.00    -0.273 OA
HETATM   20  N2  UNL     1       7.966   5.024  19.038  1.00  0.00    -0.312 N
HETATM   21  C10 UNL     1       7.494   4.677  17.910  1.00  0.00     0.125 A
ATOM     22  H2  UNL     1       8.788   4.549  19.412  1.00  0.00     0.170 HD
HETATM   23  N3  UNL     1       6.420   5.267  17.379  1.00  0.00    -0.351 N
HETATM   24  C14 UNL     1       8.084   3.656  17.177  1.00  0.00     0.055 A
HETATM   25  C11 UNL     1       5.934   4.876  16.169  1.00  0.00     0.090 A
ATOM     26  H3  UNL     1       5.958   6.020  17.886  1.00  0.00     0.166 HD
HETATM   27  C12 UNL     1       6.509   3.866  15.429  1.00  0.00     0.018 A
HETATM   28  C13 UNL     1       7.609   3.258  15.970  1.00  0.00     0.024 A
HETATM   29 BR1  UNL     1       9.611   2.817  17.935  1.00  0.00    -0.047 Br
ENDBRANCH  17  18
ENDBRANCH  16  17
ENDBRANCH   1  16
TORSDOF 6
ENDMDL