MODEL 4
REMARK VINA RESULT: -9.418548936      1.446      2.029
REMARK  8 active torsions:
REMARK  status: ('A' for Active; 'I' for Inactive)
REMARK    1  A    between atoms: C2_2  and  C3_3
REMARK    2  A    between atoms: C2_2  and  N3_25
REMARK    3  A    between atoms: C3_3  and  O1_4
REMARK    4  A    between atoms: O1_4  and  C4_5
REMARK    5  A    between atoms: C7_8  and  C8_9
REMARK    6  A    between atoms: C8_9  and  C9_10
REMARK    7  A    between atoms: N2_18  and  O2_19
REMARK    8  A    between atoms: C16_22  and  O3_23
ROOT
HETATM    1  C4  UNL     1       4.763   5.740  22.402  1.00  0.00     0.102 A
HETATM    2  C5  UNL     1       5.793   6.540  21.964  1.00  0.00     0.040 A
HETATM    3  C6  UNL     1       6.268   7.611  22.719  1.00  0.00     0.010 A
HETATM    4  C7  UNL     1       5.731   7.921  23.945  1.00  0.00    -0.050 A
HETATM    5  C15 UNL     1       4.702   7.137  24.403  1.00  0.00     0.047 A
HETATM    6  C16 UNL     1       4.227   6.078  23.663  1.00  0.00     0.099 A
ENDROOT
BRANCH   1   7
HETATM    7  O1  UNL     1       4.222   4.680  21.749  1.00  0.00    -0.346 OA
BRANCH   7   8
HETATM    8  C3  UNL     1       3.927   4.355  20.469  1.00  0.00     0.201 C
BRANCH   8   9
HETATM    9  C2  UNL     1       4.038   2.861  20.243  1.00  0.00     0.116 C
HETATM   10  C1  UNL     1       3.931   2.143  21.536  1.00  0.00     0.035 C
BRANCH   9  11
HETATM   11  N3  UNL     1       5.233   2.636  19.494  1.00  0.00    -0.273 N
HETATM   12  C17 UNL     1       6.498   2.397  20.101  1.00  0.00     0.262 A
HETATM   13  O4  UNL     1       6.786   2.342  21.327  1.00  0.00    -0.267 OA
HETATM   14  C18 UNL     1       7.494   2.210  19.055  1.00  0.00     0.050 A
HETATM   15  C19 UNL     1       8.845   1.956  19.100  1.00  0.00     0.018 A
HETATM   16  C23 UNL     1       6.832   2.336  17.830  1.00  0.00     0.070 A
HETATM   17  C20 UNL     1       9.513   1.830  17.900  1.00  0.00     0.003 A
HETATM   18  C21 UNL     1       8.893   1.949  16.675  1.00  0.00     0.025 A
HETATM   19  C22 UNL     1       7.549   2.202  16.645  1.00  0.00     0.050 A
HETATM   20 CL1  UNL     1       6.641   2.374  15.154  1.00  0.00    -0.083 Cl
HETATM   21  C24 UNL     1       5.429   2.600  18.104  1.00  0.00     0.263 A
HETATM   22  O5  UNL     1       4.550   2.767  17.254  1.00  0.00    -0.267 OA
ENDBRANCH   9  11
ENDBRANCH   8   9
ENDBRANCH   7   8
ENDBRANCH   1   7
BRANCH   6  23
HETATM   23  O3  UNL     1       3.193   5.309  24.151  1.00  0.00    -0.358 OA
ATOM     24  H3  UNL     1       3.208   5.078  25.072  1.00  0.00     0.217 HD
ENDBRANCH   6  23
BRANCH   4  25
HETATM   25  C8  UNL     1       6.227   9.058  24.760  1.00  0.00     0.101 C
BRANCH  25  26
HETATM   26  C9  UNL     1       7.731   9.063  24.806  1.00  0.00     0.074 A
HETATM   27  C10 UNL     1       8.671   8.476  25.516  1.00  0.00     0.087 A
HETATM   28  N1  UNL     1       9.002   7.617  26.518  1.00  0.00    -0.362 N
HETATM   29  C14 UNL     1       9.677   9.105  24.822  1.00  0.00     0.091 A
HETATM   30  C11 UNL     1      10.279   7.403  26.809  1.00  0.00     0.088 A
ATOM     31  H1  UNL     1       8.271   7.139  27.044  1.00  0.00     0.165 HD
HETATM   32  C12 UNL     1      11.334   8.021  26.130  1.00  0.00     0.019 A
HETATM   33  C13 UNL     1      11.013   8.887  25.120  1.00  0.00     0.036 A
HETATM   34  N2  UNL     1       8.776   9.694  24.112  1.00  0.00    -0.224 N
BRANCH  34  35
HETATM   35  O2  UNL     1       8.834  10.603  23.065  1.00  0.00    -0.282 OA
ATOM     36  H2  UNL     1       9.033  11.530  23.002  1.00  0.00     0.245 HD
ENDBRANCH  34  35
ENDBRANCH  25  26
ENDBRANCH   4  25
TORSDOF 8
ENDMDL