MODEL 4
REMARK VINA RESULT: -10.533747271      5.142      8.907
REMARK  6 active torsions:
REMARK  status: ('A' for Active; 'I' for Inactive)
REMARK    1  A    between atoms: C5_5  and  C6_6
REMARK    2  A    between atoms: C6_6  and  N1_7
REMARK    3  A    between atoms: C8_9  and  C9_10
REMARK    4  A    between atoms: C9_10  and  N2_11
REMARK       I    between atoms: N2_11  and  C10_13
REMARK    5  A    between atoms: C10_13  and  C11_15
REMARK    6  A    between atoms: C11_15  and  C12_16
ROOT
HETATM    1  N1  UNL     1       6.140   5.449  19.614  1.00  0.00    -0.343 N
HETATM    2  C7  UNL     1       7.118   6.309  20.098  1.00  0.00     0.118 A
HETATM    3  C8  UNL     1       7.058   6.906  21.314  1.00  0.00     0.044 A
HETATM    4  N3  UNL     1       6.008   6.675  22.115  1.00  0.00    -0.341 N
ATOM      5  H3  UNL     1       5.951   7.121  23.031  1.00  0.00     0.167 HD
HETATM    6  C18 UNL     1       5.031   5.848  21.700  1.00  0.00     0.144 A
HETATM    7  C19 UNL     1       5.120   5.248  20.451  1.00  0.00     0.148 A
HETATM    8  C20 UNL     1       4.097   4.390  20.138  1.00  0.00     0.282 A
HETATM    9  O2  UNL     1       4.063   3.788  19.072  1.00  0.00    -0.265 OA
HETATM   10  N4  UNL     1       3.055   4.139  20.979  1.00  0.00    -0.269 N
HETATM   11  C21 UNL     1       2.016   3.224  20.574  1.00  0.00     0.164 C
HETATM   12  C22 UNL     1       3.009   4.745  22.174  1.00  0.00     0.332 A
HETATM   13  O3  UNL     1       2.067   4.533  22.961  1.00  0.00    -0.246 OA
HETATM   14  N5  UNL     1       3.989   5.577  22.504  1.00  0.00    -0.287 N
HETATM   15  C23 UNL     1       3.966   6.249  23.800  1.00  0.00     0.163 C
ENDROOT
BRANCH   3  16
HETATM   16  C9  UNL     1       8.115   7.832  21.824  1.00  0.00     0.181 C
BRANCH  16  17
HETATM   17  N2  UNL     1       8.331   7.673  23.245  1.00  0.00    -0.355 N
HETATM   18  C10 UNL     1       8.040   8.690  24.189  1.00  0.00     0.222 C
HETATM   19  O1  UNL     1       7.572   9.786  23.789  1.00  0.00    -0.273 OA
ATOM     20  H2  UNL     1       8.711   6.789  23.584  1.00  0.00     0.162 HD
BRANCH  18  21
HETATM   21  C11 UNL     1       8.265   8.520  25.641  1.00  0.00     0.141 C
BRANCH  21  22
HETATM   22  C12 UNL     1       9.695   8.206  25.927  1.00  0.00    -0.049 A
HETATM   23  C13 UNL     1      10.721   8.820  25.240  1.00  0.00     0.011 A
HETATM   24  C14 UNL     1      12.012   8.488  25.549  1.00  0.00     0.043 A
HETATM   25  C15 UNL     1      12.356   7.569  26.514  1.00  0.00     0.116 A
HETATM   26  F1  UNL     1      13.658   7.265  26.792  1.00  0.00    -0.206 F
HETATM   27  C16 UNL     1      11.322   6.956  27.201  1.00  0.00     0.043 A
HETATM   28  C17 UNL     1      10.016   7.282  26.899  1.00  0.00     0.011 A
ENDBRANCH  21  22
ENDBRANCH  18  21
ENDBRANCH  16  17
ENDBRANCH   3  16
BRANCH   1  29
HETATM   29  C6  UNL     1       6.287   4.984  18.262  1.00  0.00     0.167 C
BRANCH  29  30
HETATM   30  C5  UNL     1       7.301   3.872  18.282  1.00  0.00    -0.040 A
HETATM   31  C4  UNL     1       8.328   3.854  17.319  1.00  0.00     0.009 A
HETATM   32  C3  UNL     1       9.288   2.871  17.266  1.00  0.00     0.007 A
HETATM   33  C2  UNL     1       9.291   1.836  18.174  1.00  0.00    -0.062 A
HETATM   34  C1  UNL     1      10.334   0.759  18.125  1.00  0.00     0.048 C
HETATM   35  C25 UNL     1       8.301   1.835  19.119  1.00  0.00     0.007 A
HETATM   36  C24 UNL     1       7.343   2.829  19.158  1.00  0.00     0.009 A
ENDBRANCH  29  30
ENDBRANCH   1  29
TORSDOF 6
ENDMDL