MODEL 1
REMARK VINA RESULT: -9.704017703      0.000      0.000
REMARK  6 active torsions:
REMARK  status: ('A' for Active; 'I' for Inactive)
REMARK    1  A    between atoms: N1_2  and  C2_3
REMARK    2  A    between atoms: N1_2  and  C11_12
REMARK    3  A    between atoms: C2_3  and  C3_4
REMARK    4  A    between atoms: C3_4  and  C4_5
REMARK    5  A    between atoms: C4_5  and  C5_6
REMARK    6  A    between atoms: C17_25  and  C18_26
ROOT
HETATM    1  C11 UNL     1       4.841   7.962  23.502  1.00  0.00     0.681 A
HETATM    2  N2  UNL     1       3.629   7.372  23.623  1.00  0.00    -0.200 N
ATOM      3  H2  UNL     1       3.024   7.580  24.417  1.00  0.00     0.183 HD
HETATM    4  C12 UNL     1       3.250   6.519  22.688  1.00  0.00     0.139 A
HETATM    5  C13 UNL     1       4.042   6.177  21.551  1.00  0.00     0.090 A
HETATM    6  C14 UNL     1       5.273   6.790  21.446  1.00  0.00     0.151 A
HETATM    7  N3  UNL     1       5.585   7.670  22.476  1.00  0.00    -0.174 N
ATOM      8  H3  UNL     1       6.491   8.136  22.421  1.00  0.00     0.186 HD
HETATM    9  N4  UNL     1       6.158   6.705  20.589  1.00  0.00    -0.306 N
ATOM     10  H4  UNL     1       6.894   7.332  20.914  1.00  0.00     0.170 HD
HETATM   11  C15 UNL     1       6.627   6.193  19.441  1.00  0.00     0.262 C
HETATM   12  O1  UNL     1       6.845   6.960  18.423  1.00  0.00    -0.267 OA
HETATM   13  C16 UNL     1       6.969   4.778  19.107  1.00  0.00     0.100 C
HETATM   14  C17 UNL     1       7.956   4.514  18.286  1.00  0.00     0.034 C
HETATM   15  C24 UNL     1       6.231   3.678  19.717  1.00  0.00     0.258 C
HETATM   16  O2  UNL     1       6.864   2.718  20.279  1.00  0.00    -0.267 OA
HETATM   17  N5  UNL     1       4.815   3.580  19.743  1.00  0.00    -0.341 N
ATOM     18  H5  UNL     1       4.403   2.663  19.911  1.00  0.00     0.164 HD
HETATM   19  C25 UNL     1       3.910   4.715  19.542  1.00  0.00     0.247 C
HETATM   20  N6  UNL     1       3.543   5.341  20.745  1.00  0.00    -0.370 N
ATOM     21  H6  UNL     1       2.619   5.038  21.053  1.00  0.00     0.161 HD
ENDROOT
BRANCH   1  22
HETATM   22  N1  UNL     1       5.303   8.899  24.483  1.00  0.00    -0.222 N
HETATM   23  C1  UNL     1       4.437   9.266  25.565  1.00  0.00     0.168 C
BRANCH  22  24
HETATM   24  C2  UNL     1       6.617   9.445  24.359  1.00  0.00     0.141 C
BRANCH  24  25
HETATM   25  C3  UNL     1       7.738   8.707  24.974  1.00  0.00     0.025 C
BRANCH  25  26
HETATM   26  C4  UNL     1       9.110   9.080  24.486  1.00  0.00     0.040 C
BRANCH  26  27
HETATM   27  C5  UNL     1      10.081   8.396  25.408  1.00  0.00    -0.058 A
HETATM   28  C6  UNL     1      11.425   8.577  25.233  1.00  0.00     0.007 A
HETATM   29  C7  UNL     1      12.329   7.940  26.091  1.00  0.00     0.001 A
HETATM   30  C8  UNL     1      11.894   7.123  27.122  1.00  0.00     0.000 A
HETATM   31  C9  UNL     1      10.538   6.953  27.283  1.00  0.00     0.001 A
HETATM   32  C10 UNL     1       9.639   7.593  26.422  1.00  0.00     0.007 A
ENDBRANCH  26  27
ENDBRANCH  25  26
ENDBRANCH  24  25
ENDBRANCH  22  24
ENDBRANCH   1  22
BRANCH  14  33
HETATM   33  C18 UNL     1       8.414   3.210  17.855  1.00  0.00    -0.035 A
HETATM   34  C19 UNL     1       7.760   2.424  16.906  1.00  0.00     0.014 A
HETATM   35  C20 UNL     1       8.252   1.190  16.544  1.00  0.00     0.043 A
HETATM   36  C21 UNL     1       9.409   0.685  17.109  1.00  0.00     0.116 A
HETATM   37  F1  UNL     1       9.921  -0.517  16.781  1.00  0.00    -0.206 F
HETATM   38  C22 UNL     1      10.072   1.438  18.047  1.00  0.00     0.043 A
HETATM   39  C23 UNL     1       9.584   2.651  18.397  1.00  0.00     0.014 A
ENDBRANCH  14  33
TORSDOF 6
ENDMDL