MODEL 5
REMARK VINA RESULT: -6.392294766      3.883      7.299
REMARK  8 active torsions:
REMARK  status: ('A' for Active; 'I' for Inactive)
REMARK    1  A    between atoms: C2_2  and  N1_3
REMARK    2  A    between atoms: N1_3  and  C3_4
REMARK    3  A    between atoms: N1_3  and  C5_6
REMARK    4  A    between atoms: C5_6  and  C6_7
REMARK    5  A    between atoms: C6_7  and  C7_8
REMARK    6  A    between atoms: C7_8  and  N2_9
REMARK    7  A    between atoms: N2_9  and  C8_11
REMARK    8  A    between atoms: C20_32  and  O3_33
ROOT
HETATM    1  C8  UNL     1       7.765   9.496  23.259  1.00  0.00     0.119 A
HETATM    2  N3  UNL     1       7.328   9.062  24.452  1.00  0.00    -0.338 N
ATOM      3  H3  UNL     1       7.991   8.874  25.205  1.00  0.00     0.168 HD
HETATM    4  C9  UNL     1       5.987   8.873  24.652  1.00  0.00     0.182 A
HETATM    5  N4  UNL     1       5.073   9.103  23.696  1.00  0.00    -0.354 N
ATOM      6  H4  UNL     1       4.082   8.949  23.884  1.00  0.00     0.166 HD
HETATM    7  C10 UNL     1       5.480   9.546  22.469  1.00  0.00     0.038 A
HETATM    8  C11 UNL     1       6.828   9.730  22.288  1.00  0.00     0.099 A
HETATM    9  C12 UNL     1       7.309  10.205  20.996  1.00  0.00     0.259 C
HETATM   10  O1  UNL     1       8.536  10.378  20.813  1.00  0.00    -0.267 OA
HETATM   11  N5  UNL     1       6.394  10.472  19.948  1.00  0.00    -0.344 N
HETATM   12  C13 UNL     1       6.772  11.361  18.887  1.00  0.00     0.153 C
HETATM   13  C14 UNL     1       5.118   9.824  20.010  1.00  0.00     0.130 C
HETATM   14  C15 UNL     1       4.526   9.822  21.392  1.00  0.00     0.087 C
HETATM   15  C16 UNL     1       3.495   8.722  21.315  1.00  0.00     0.134 C
HETATM   16  N6  UNL     1       2.502   8.935  20.273  1.00  0.00    -0.347 N
HETATM   17  C17 UNL     1       1.596   9.985  19.878  1.00  0.00     0.153 C
HETATM   18  C18 UNL     1       2.798   7.625  19.777  1.00  0.00     0.248 C
HETATM   19  O2  UNL     1       2.235   6.747  19.093  1.00  0.00    -0.271 OA
HETATM   20  C19 UNL     1       4.130   7.703  20.432  1.00  0.00     0.166 C
HETATM   21 CL1  UNL     1       4.620   6.266  21.314  1.00  0.00    -0.104 Cl
HETATM   22  C20 UNL     1       5.176   8.385  19.613  1.00  0.00     0.179 C
ENDROOT
BRANCH   1  23
HETATM   23  N2  UNL     1       8.997   9.687  23.035  1.00  0.00    -0.375 N
ATOM     24  H2  UNL     1       9.281  10.580  22.633  1.00  0.00     0.161 HD
BRANCH  23  25
HETATM   25  C7  UNL     1      10.027   8.704  23.319  1.00  0.00     0.123 C
BRANCH  25  26
HETATM   26  C6  UNL     1      11.126   9.303  24.172  1.00  0.00     0.039 C
BRANCH  26  27
HETATM   27  C5  UNL     1      10.832   9.033  25.603  1.00  0.00     0.118 C
BRANCH  27  28
HETATM   28  N1  UNL     1      11.660   8.095  26.262  1.00  0.00    -0.413 N
BRANCH  28  29
HETATM   29  C2  UNL     1      12.781   7.617  25.520  1.00  0.00     0.112 C
HETATM   30  C1  UNL     1      13.978   7.312  26.362  1.00  0.00     0.026 C
ENDBRANCH  28  29
BRANCH  28  31
HETATM   31  C3  UNL     1      11.047   7.059  27.011  1.00  0.00     0.112 C
HETATM   32  C4  UNL     1       9.530   7.204  26.800  1.00  0.00     0.026 C
ENDBRANCH  28  31
ENDBRANCH  27  28
ENDBRANCH  26  27
ENDBRANCH  25  26
ENDBRANCH  23  25
ENDBRANCH   1  23
BRANCH  22  33
HETATM   33  O3  UNL     1       6.438   7.855  19.772  1.00  0.00    -0.386 OA
HETATM   34  C21 UNL     1       6.830   7.146  18.660  1.00  0.00     0.202 C
ENDBRANCH  22  33
TORSDOF 8
ENDMDL