MODEL 1
REMARK VINA RESULT: -6.692395396      0.000      0.000
REMARK  13 active torsions:
REMARK  status: ('A' for Active; 'I' for Inactive)
REMARK    1  A    between atoms: O1_2  and  C2_3
REMARK    2  A    between atoms: C2_3  and  C3_4
REMARK    3  A    between atoms: C3_4  and  N1_5
REMARK    4  A    between atoms: N1_5  and  C4_6
REMARK    5  A    between atoms: N1_5  and  N5_32
REMARK    6  A    between atoms: C4_6  and  O2_7
REMARK    7  A    between atoms: C4_6  and  C5_9
REMARK    8  A    between atoms: C9_16  and  C10_17
REMARK    9  A    between atoms: C10_17  and  C11_18
REMARK   10  A    between atoms: C11_18  and  N3_19
REMARK   11  A    between atoms: N4_24  and  C16_25
REMARK   12  A    between atoms: C16_25  and  O4_26
REMARK   13  A    between atoms: C16_25  and  C17_28
ROOT
HETATM    1  C5  UNL     1       6.993   6.965  20.975  1.00  0.00     0.173 C
HETATM    2  C6  UNL     1       8.149   7.838  20.581  1.00  0.00     0.093 C
HETATM    3  C7  UNL     1       8.785   8.175  21.870  1.00  0.00     0.041 A
HETATM    4  N2  UNL     1       9.994   8.756  22.054  1.00  0.00    -0.325 N
ATOM      5  H2  UNL     1      10.555   9.040  21.252  1.00  0.00     0.169 HD
HETATM    6  C8  UNL     1      10.443   8.954  23.288  1.00  0.00     0.252 A
HETATM    7  O3  UNL     1      11.583   9.500  23.520  1.00  0.00    -0.268 OA
HETATM    8  C9  UNL     1       9.669   8.566  24.353  1.00  0.00     0.014 A
HETATM    9  C14 UNL     1       8.436   7.973  24.169  1.00  0.00     0.044 A
HETATM   10  C15 UNL     1       7.950   7.758  22.880  1.00  0.00     0.060 A
HETATM   11  N4  UNL     1       6.754   7.213  22.396  1.00  0.00    -0.316 N
ENDROOT
BRANCH   1  12
HETATM   12  C4  UNL     1       7.025   5.625  20.483  1.00  0.00     0.152 C
BRANCH  12  13
HETATM   13  N1  UNL     1       6.496   5.033  19.336  1.00  0.00    -0.291 N
BRANCH  13  14
HETATM   14  C3  UNL     1       5.462   4.036  19.230  1.00  0.00     0.171 C
BRANCH  14  15
HETATM   15  C2  UNL     1       4.431   4.093  20.348  1.00  0.00     0.188 C
BRANCH  15  16
HETATM   16  O1  UNL     1       4.774   3.485  21.514  1.00  0.00    -0.394 OA
HETATM   17  C1  UNL     1       5.299   2.229  21.453  1.00  0.00     0.201 C
ENDBRANCH  15  16
ENDBRANCH  14  15
ENDBRANCH  13  14
BRANCH  13  18
HETATM   18  N5  UNL     1       6.990   5.475  18.061  1.00  0.00    -0.236 NA
HETATM   19  C21 UNL     1       6.017   6.106  17.247  1.00  0.00     0.136 C
HETATM   20  C22 UNL     1       7.639   4.334  17.464  1.00  0.00     0.136 C
ENDBRANCH  13  18
ENDBRANCH  12  13
BRANCH  12  21
HETATM   21  O2  UNL     1       7.675   4.793  21.255  1.00  0.00    -0.347 OA
ATOM     22  H2  UNL     1       7.641   5.018  22.177  1.00  0.00     0.219 HD
ENDBRANCH  12  21
ENDBRANCH   1  12
BRANCH  11  23
HETATM   23  C16 UNL     1       5.517   6.976  23.016  1.00  0.00     0.126 C
BRANCH  23  24
HETATM   24  O4  UNL     1       5.321   5.702  23.314  1.00  0.00    -0.349 OA
ATOM     25  H4  UNL     1       4.412   5.499  23.503  1.00  0.00     0.219 HD
ENDBRANCH  23  24
BRANCH  23  26
HETATM   26  C17 UNL     1       4.394   7.797  23.411  1.00  0.00     0.014 C
HETATM   27  C18 UNL     1       4.639   9.219  22.791  1.00  0.00     0.023 C
HETATM   28  C19 UNL     1       3.050   7.396  22.890  1.00  0.00     0.023 C
HETATM   29  C20 UNL     1       4.290   8.102  24.890  1.00  0.00     0.023 C
ENDBRANCH  23  26
ENDBRANCH  11  23
BRANCH   8  30
HETATM   30  C10 UNL     1      10.191   8.795  25.728  1.00  0.00     0.074 C
BRANCH  30  31
HETATM   31  C11 UNL     1       9.812   7.621  26.602  1.00  0.00     0.276 C
BRANCH  31  32
HETATM   32  N3  UNL     1      10.955   7.056  27.282  1.00  0.00     0.080 N
HETATM   33  C12 UNL     1      12.153   7.336  26.530  1.00  0.00     0.309 C
HETATM   34  C13 UNL     1      10.780   5.617  27.322  1.00  0.00     0.309 C
ENDBRANCH  31  32
ENDBRANCH  30  31
ENDBRANCH   8  30
TORSDOF 13
ENDMDL