MODEL 3
REMARK VINA RESULT: -7.530434139      2.553      3.183
REMARK  10 active torsions:
REMARK  status: ('A' for Active; 'I' for Inactive)
REMARK    1  A    between atoms: C3_3  and  C4_4
REMARK    2  A    between atoms: C4_4  and  C5_5
REMARK    3  A    between atoms: C5_5  and  N1_6
REMARK    4  A    between atoms: C5_5  and  C15_24
REMARK    5  A    between atoms: N1_6  and  C6_9
REMARK    6  A    between atoms: C6_9  and  C7_10
REMARK    7  A    between atoms: N3_21  and  O1_22
REMARK    8  A    between atoms: C15_24  and  O3_26
REMARK    9  A    between atoms: O3_26  and  C16_27
REMARK   10  A    between atoms: C16_27  and  C17_28
REMARK       I    between atoms: C17_28  and  N4_30
ROOT
HETATM    1  C1  UNL     1       6.422  12.909  19.664  1.00  0.00     0.112 C
HETATM    2  C2  UNL     1       6.617  11.453  19.835  1.00  0.00    -0.111 C
HETATM    3  C3  UNL     1       6.760  10.253  19.957  1.00  0.00    -0.104 C
ENDROOT
BRANCH   3   4
HETATM    4  C4  UNL     1       6.904   8.808  20.078  1.00  0.00     0.137 C
BRANCH   4   5
HETATM    5  C5  UNL     1       8.337   8.463  20.280  1.00  0.00     0.296 C
BRANCH   5   6
HETATM    6  N1  UNL     1       8.691   7.177  19.705  1.00  0.00    -0.057 N
ATOM      7  H12 UNL     1       9.527   7.259  19.126  1.00  0.00     0.278 HD
ATOM      8  H11 UNL     1       9.045   6.545  20.423  1.00  0.00     0.278 HD
BRANCH   6   9
HETATM    9  C6  UNL     1       7.625   6.567  18.974  1.00  0.00     0.274 C
BRANCH   9  10
HETATM   10  C7  UNL     1       7.524   5.126  19.329  1.00  0.00    -0.002 A
HETATM   11  C8  UNL     1       8.360   4.187  18.767  1.00  0.00     0.030 A
HETATM   12  C9  UNL     1       8.245   2.852  19.127  1.00  0.00     0.013 A
HETATM   13 BR1  UNL     1       9.427   1.598  18.320  1.00  0.00    -0.051 Br
HETATM   14  C10 UNL     1       7.298   2.456  20.046  1.00  0.00     0.053 A
HETATM   15  C11 UNL     1       6.443   3.379  20.627  1.00  0.00     0.090 A
HETATM   16  C12 UNL     1       6.565   4.701  20.263  1.00  0.00     0.069 A
HETATM   17  N3  UNL     1       5.504   3.010  21.530  1.00  0.00    -0.233 N
HETATM   18  N2  UNL     1       5.755   5.635  20.800  1.00  0.00    -0.362 N
HETATM   19  C13 UNL     1       4.828   5.238  21.698  1.00  0.00     0.108 A
ATOM     20  H2  UNL     1       5.840   6.617  20.534  1.00  0.00     0.165 HD
HETATM   21  C14 UNL     1       4.676   3.919  22.088  1.00  0.00     0.140 A
BRANCH  17  22
HETATM   22  O1  UNL     1       5.435   1.671  21.850  1.00  0.00    -0.283 OA
ATOM     23  H1  UNL     1       4.854   1.131  21.327  1.00  0.00     0.245 HD
ENDBRANCH  17  22
ENDBRANCH   9  10
ENDBRANCH   6   9
ENDBRANCH   5   6
BRANCH   5  24
HETATM   24  C15 UNL     1       8.594   8.371  21.737  1.00  0.00     0.291 C
HETATM   25  O2  UNL     1       8.320   7.262  22.305  1.00  0.00    -0.263 OA
BRANCH  24  26
HETATM   26  O3  UNL     1       9.108   9.402  22.512  1.00  0.00    -0.310 OA
BRANCH  26  27
HETATM   27  C16 UNL     1       9.207   9.132  23.914  1.00  0.00     0.281 C
BRANCH  27  28
HETATM   28  C17 UNL     1      10.579   8.789  24.331  1.00  0.00     0.243 C
HETATM   29  O4  UNL     1      11.536   9.145  23.615  1.00  0.00    -0.271 OA
HETATM   30  N4  UNL     1      10.769   8.068  25.530  1.00  0.00    -0.359 N
HETATM   31  C18 UNL     1       9.667   7.647  26.378  1.00  0.00     0.152 C
HETATM   32  C19 UNL     1      12.149   7.744  25.907  1.00  0.00     0.152 C
ENDBRANCH  27  28
ENDBRANCH  26  27
ENDBRANCH  24  26
ENDBRANCH   5  24
ENDBRANCH   4   5
ENDBRANCH   3   4
TORSDOF 10
ENDMDL