MODEL 1
REMARK VINA RESULT: -9.334249616      0.000      0.000
REMARK  7 active torsions:
REMARK  status: ('A' for Active; 'I' for Inactive)
REMARK    1  A    between atoms: O1_2  and  C2_3
REMARK    2  A    between atoms: C2_3  and  C3_4
REMARK    3  A    between atoms: C3_4  and  C4_5
REMARK    4  A    between atoms: C4_5  and  O2_6
REMARK    5  A    between atoms: O2_6  and  C5_7
REMARK    6  A    between atoms: C11_20  and  C12_21
REMARK    7  A    between atoms: C12_21  and  C13_22
ROOT
HETATM    1  C5  UNL     1       8.801   8.395  20.730  1.00  0.00     0.167 A
HETATM    2  N1  UNL     1       9.631   8.941  21.678  1.00  0.00    -0.320 N
ATOM      3  H1  UNL     1      10.361   9.583  21.373  1.00  0.00     0.169 HD
HETATM    4  C6  UNL     1       9.527   8.673  22.966  1.00  0.00     0.137 A
HETATM    5  N2  UNL     1      10.392   9.262  23.811  1.00  0.00    -0.308 N
ATOM      6  H2  UNL     1      11.100   9.893  23.439  1.00  0.00     0.170 HD
HETATM    7  C7  UNL     1      10.345   9.037  25.128  1.00  0.00     0.246 A
HETATM    8  O3  UNL     1      11.164   9.592  25.931  1.00  0.00    -0.268 OA
HETATM    9  C8  UNL     1       9.369   8.169  25.602  1.00  0.00     0.077 A
HETATM   10  C9  UNL     1       8.462   7.550  24.738  1.00  0.00     0.039 A
HETATM   11  C10 UNL     1       8.545   7.809  23.387  1.00  0.00     0.077 A
HETATM   12  N3  UNL     1       7.719   7.260  22.489  1.00  0.00    -0.353 N
ATOM     13  H3  UNL     1       6.992   6.620  22.809  1.00  0.00     0.166 HD
HETATM   14  C11 UNL     1       7.824   7.533  21.152  1.00  0.00     0.066 A
ENDROOT
BRANCH  14  15
HETATM   15  C12 UNL     1       6.917   6.831  20.244  1.00  0.00     0.106 C
BRANCH  15  16
HETATM   16  C13 UNL     1       6.481   5.468  20.679  1.00  0.00     0.028 A
HETATM   17  C14 UNL     1       7.040   4.317  20.229  1.00  0.00     0.004 A
HETATM   18  C15 UNL     1       8.065   4.115  19.330  1.00  0.00     0.033 A
HETATM   19  C19 UNL     1       6.457   3.229  20.793  1.00  0.00     0.046 A
HETATM   20  C16 UNL     1       8.479   2.825  19.019  1.00  0.00     0.011 A
HETATM   21 BR1  UNL     1       9.895   2.573  17.776  1.00  0.00    -0.051 Br
HETATM   22  C17 UNL     1       7.889   1.722  19.589  1.00  0.00     0.021 A
HETATM   23  C18 UNL     1       6.869   1.916  20.484  1.00  0.00     0.032 A
HETATM   24  N4  UNL     1       5.527   3.599  21.606  1.00  0.00    -0.322 N
HETATM   25  C20 UNL     1       5.459   5.045  21.607  1.00  0.00     0.253 A
ATOM     26  H4  UNL     1       4.937   2.976  22.158  1.00  0.00     0.169 HD
HETATM   27  O4  UNL     1       4.663   5.706  22.287  1.00  0.00    -0.268 OA
ENDBRANCH  15  16
ENDBRANCH  14  15
BRANCH   1  28
HETATM   28  O2  UNL     1       8.985   8.747  19.399  1.00  0.00    -0.334 OA
BRANCH  28  29
HETATM   29  C4  UNL     1       8.171   9.746  18.845  1.00  0.00     0.179 C
BRANCH  29  30
HETATM   30  C3  UNL     1       8.086  11.011  19.617  1.00  0.00     0.053 C
BRANCH  30  31
HETATM   31  C2  UNL     1       6.828  11.739  19.247  1.00  0.00     0.169 C
BRANCH  31  32
HETATM   32  O1  UNL     1       6.794  13.050  19.658  1.00  0.00    -0.396 OA
HETATM   33  C1  UNL     1       7.824  13.411  20.504  1.00  0.00     0.201 C
ENDBRANCH  31  32
ENDBRANCH  30  31
ENDBRANCH  29  30
ENDBRANCH  28  29
ENDBRANCH   1  28
TORSDOF 7
ENDMDL