MODEL 2
REMARK VINA RESULT: -9.256818162      2.243      3.608
REMARK  8 active torsions:
REMARK  status: ('A' for Active; 'I' for Inactive)
REMARK    1  A    between atoms: O1_2  and  N1_3
REMARK    2  A    between atoms: N1_3  and  C2_4
REMARK    3  A    between atoms: N1_3  and  C14_21
REMARK    4  A    between atoms: C2_4  and  C3_5
REMARK       I    between atoms: C3_5  and  N2_7
REMARK    5  A    between atoms: N2_7  and  C5_9
REMARK    6  A    between atoms: C5_9  and  C6_10
REMARK       I    between atoms: C6_10  and  N3_12
REMARK    7  A    between atoms: N3_12  and  C7_14
REMARK    8  A    between atoms: C7_14  and  C8_15
ROOT
HETATM    1  C2  UNL     1       3.967   8.050  22.987  1.00  0.00     0.261 C
ENDROOT
BRANCH   1   2
HETATM    2  N1  UNL     1       4.868   8.944  23.637  1.00  0.00    -0.232 N
BRANCH   2   3
HETATM    3  O1  UNL     1       4.487   9.542  24.788  1.00  0.00    -0.281 OA
HETATM    4  C1  UNL     1       3.255   9.092  25.211  1.00  0.00     0.238 C
ENDBRANCH   2   3
BRANCH   2   5
HETATM    5  C14 UNL     1       6.196   9.253  23.121  1.00  0.00     0.149 A
HETATM    6  N4  UNL     1       6.283   9.923  22.034  1.00  0.00    -0.263 N
HETATM    7  S1  UNL     1       7.952  10.135  21.673  1.00  0.00     0.265 S
ATOM      8  H4  UNL     1       5.501  10.271  21.479  1.00  0.00     0.180 HD
HETATM    9  O4  UNL     1       8.356   9.493  20.394  1.00  0.00    -0.200 OA
HETATM   10  O5  UNL     1       8.360  11.577  21.756  1.00  0.00    -0.200 OA
HETATM   11  C15 UNL     1       8.565   9.267  23.076  1.00  0.00     0.096 A
HETATM   12  C16 UNL     1       9.838   8.995  23.507  1.00  0.00     0.068 A
HETATM   13  C20 UNL     1       7.431   8.870  23.732  1.00  0.00     0.034 A
HETATM   14  C17 UNL     1      10.004   8.281  24.665  1.00  0.00     0.117 A
HETATM   15  F1  UNL     1      11.278   8.009  25.096  1.00  0.00    -0.206 F
HETATM   16  C18 UNL     1       8.896   7.862  25.358  1.00  0.00     0.043 A
HETATM   17  C19 UNL     1       7.632   8.143  24.912  1.00  0.00     0.020 A
ENDBRANCH   2   5
ENDBRANCH   1   2
BRANCH   1  18
HETATM   18  C3  UNL     1       4.525   6.716  22.733  1.00  0.00     0.240 C
HETATM   19  O2  UNL     1       4.845   5.985  23.696  1.00  0.00    -0.271 OA
HETATM   20  N2  UNL     1       4.720   6.214  21.422  1.00  0.00    -0.346 N
HETATM   21  C4  UNL     1       4.354   7.063  20.284  1.00  0.00     0.153 C
BRANCH  20  22
HETATM   22  C5  UNL     1       5.251   4.912  21.137  1.00  0.00     0.228 C
BRANCH  22  23
HETATM   23  C6  UNL     1       6.519   5.062  20.362  1.00  0.00     0.235 C
HETATM   24  O3  UNL     1       7.458   5.708  20.925  1.00  0.00    -0.272 OA
HETATM   25  N3  UNL     1       6.705   4.532  19.077  1.00  0.00    -0.355 N
ATOM     26  H3  UNL     1       5.960   4.013  18.613  1.00  0.00     0.162 HD
BRANCH  25  27
HETATM   27  C7  UNL     1       7.991   4.742  18.421  1.00  0.00     0.161 C
BRANCH  27  28
HETATM   28  C8  UNL     1       8.585   3.460  17.978  1.00  0.00    -0.041 A
HETATM   29  C9  UNL     1       8.921   3.254  16.669  1.00  0.00     0.009 A
HETATM   30  C10 UNL     1       9.470   2.062  16.246  1.00  0.00     0.001 A
HETATM   31  C11 UNL     1       9.674   1.068  17.202  1.00  0.00     0.000 A
HETATM   32  C12 UNL     1       9.343   1.254  18.524  1.00  0.00     0.001 A
HETATM   33  C13 UNL     1       8.795   2.467  18.900  1.00  0.00     0.009 A
ENDBRANCH  27  28
ENDBRANCH  25  27
ENDBRANCH  22  23
ENDBRANCH  20  22
ENDBRANCH   1  18
TORSDOF 8
ENDMDL