MODEL 4
REMARK VINA RESULT: -7.771986219      2.268      7.414
REMARK  9 active torsions:
REMARK  status: ('A' for Active; 'I' for Inactive)
REMARK    1  A    between atoms: C2_2  and  O1_3
REMARK    2  A    between atoms: O1_3  and  C3_4
REMARK    3  A    between atoms: C3_4  and  C4_6
REMARK    4  A    between atoms: C8_10  and  C9_11
REMARK    5  A    between atoms: C9_11  and  N1_12
REMARK    6  A    between atoms: N1_12  and  C10_13
REMARK       I    between atoms: N1_12  and  C17_25
REMARK    7  A    between atoms: C10_13  and  C11_14
REMARK    8  A    between atoms: C17_25  and  C18_27
REMARK    9  A    between atoms: C18_27  and  N3_28
ROOT
HETATM    1  N1  UNL     1       7.189   4.302  20.064  1.00  0.00    -0.322 N
HETATM    2  C17 UNL     1       6.541   3.152  20.588  1.00  0.00     0.249 C
HETATM    3  O5  UNL     1       7.164   2.063  20.769  1.00  0.00    -0.271 OA
ENDROOT
BRANCH   1   4
HETATM    4  C9  UNL     1       8.592   4.169  19.680  1.00  0.00     0.170 C
BRANCH   4   5
HETATM    5  C8  UNL     1       8.714   3.615  18.307  1.00  0.00    -0.039 A
HETATM    6  C7  UNL     1       9.694   2.684  18.035  1.00  0.00     0.009 A
HETATM    7  C6  UNL     1       9.840   2.148  16.776  1.00  0.00     0.002 A
HETATM    8  C5  UNL     1       8.974   2.564  15.775  1.00  0.00     0.017 A
HETATM    9  C4  UNL     1       7.983   3.490  16.003  1.00  0.00     0.040 A
HETATM   10  C19 UNL     1       7.887   3.992  17.288  1.00  0.00     0.026 A
BRANCH   9  11
HETATM   11  C3  UNL     1       7.101   3.896  14.928  1.00  0.00     0.293 C
HETATM   12  O2  UNL     1       6.946   5.093  14.573  1.00  0.00    -0.259 OA
BRANCH  11  13
HETATM   13  O1  UNL     1       6.387   2.927  14.248  1.00  0.00    -0.318 OA
BRANCH  13  14
HETATM   14  C2  UNL     1       5.345   2.199  14.881  1.00  0.00     0.174 C
HETATM   15  C1  UNL     1       5.740   0.760  14.962  1.00  0.00     0.034 C
ENDBRANCH  13  14
ENDBRANCH  11  13
ENDBRANCH   9  11
ENDBRANCH   4   5
ENDBRANCH   1   4
BRANCH   1  16
HETATM   16  C10 UNL     1       6.497   5.534  19.957  1.00  0.00     0.107 C
BRANCH  16  17
HETATM   17  C11 UNL     1       7.035   6.784  20.385  1.00  0.00     0.003 C
HETATM   18  C12 UNL     1       7.302   6.866  21.773  1.00  0.00     0.020 C
HETATM   19  C13 UNL     1       8.278   7.608  22.436  1.00  0.00     0.075 C
HETATM   20  C14 UNL     1       9.196   8.498  21.862  1.00  0.00     0.248 C
HETATM   21  O3  UNL     1      10.000   8.993  22.693  1.00  0.00    -0.268 OA
HETATM   22  N2  UNL     1       9.309   8.869  20.572  1.00  0.00    -0.289 N
HETATM   23  C15 UNL     1       8.491   8.601  19.512  1.00  0.00     0.266 C
ATOM     24  H2  UNL     1      10.130   9.435  20.353  1.00  0.00     0.172 HD
HETATM   25  O4  UNL     1       8.816   9.110  18.414  1.00  0.00    -0.267 OA
HETATM   26  C16 UNL     1       7.331   7.817  19.545  1.00  0.00     0.090 C
HETATM   27 BR1  UNL     1       6.024   8.330  18.256  1.00  0.00    -0.044 Br
ENDBRANCH  16  17
ENDBRANCH   1  16
BRANCH   2  28
HETATM   28  C18 UNL     1       5.103   3.151  20.945  1.00  0.00     0.332 C
BRANCH  28  29
HETATM   29  N3  UNL     1       4.918   3.509  22.359  1.00  0.00    -0.071 N
ATOM     30  H33 UNL     1       5.013   2.698  22.970  1.00  0.00     0.274 HD
ATOM     31  H32 UNL     1       5.700   4.060  22.715  1.00  0.00     0.274 HD
ATOM     32  H31 UNL     1       4.027   3.985  22.497  1.00  0.00     0.274 HD
ENDBRANCH  28  29
ENDBRANCH   2  28
TORSDOF 9
ENDMDL