MODEL 5
REMARK VINA RESULT: -7.598653889      2.033      2.466
REMARK  8 active torsions:
REMARK  status: ('A' for Active; 'I' for Inactive)
REMARK    1  A    between atoms: C2_2  and  C3_4
REMARK    2  A    between atoms: C8_10  and  C9_11
REMARK    3  A    between atoms: C9_11  and  O3_13
REMARK    4  A    between atoms: O3_13  and  C10_14
REMARK    5  A    between atoms: C10_14  and  C11_15
REMARK       I    between atoms: C11_15  and  N1_17
REMARK    6  A    between atoms: N1_17  and  C12_18
REMARK    7  A    between atoms: N1_17  and  C14_22
REMARK    8  A    between atoms: C12_18  and  C13_19
ROOT
HETATM    1  C10 UNL     1       5.996   8.533  17.768  1.00  0.00     0.281 C
ENDROOT
BRANCH   1   2
HETATM    2  O3  UNL     1       6.597   7.412  17.208  1.00  0.00    -0.308 OA
BRANCH   2   3
HETATM    3  C9  UNL     1       6.182   6.110  17.458  1.00  0.00     0.294 C
HETATM    4  O2  UNL     1       5.147   6.048  18.170  1.00  0.00    -0.259 OA
BRANCH   3   5
HETATM    5  C8  UNL     1       6.899   4.956  16.933  1.00  0.00     0.055 A
HETATM    6  C6  UNL     1       6.594   4.496  15.686  1.00  0.00    -0.007 A
HETATM    7  C5  UNL     1       7.224   3.382  15.162  1.00  0.00     0.124 A
HETATM    8  C7  UNL     1       5.585   5.133  14.797  1.00  0.00     0.052 C
HETATM    9  C4  UNL     1       8.165   2.702  15.864  1.00  0.00     0.058 A
HETATM   10  F1  UNL     1       6.924   2.913  13.906  1.00  0.00    -0.206 F
HETATM   11  C3  UNL     1       8.484   3.173  17.153  1.00  0.00     0.019 A
HETATM   12  C19 UNL     1       7.862   4.280  17.668  1.00  0.00    -0.031 A
HETATM   13  C20 UNL     1       8.286   4.859  18.981  1.00  0.00     0.050 C
BRANCH  11  14
HETATM   14  C2  UNL     1       9.409   2.339  17.910  1.00  0.00     0.156 C
HETATM   15  C1  UNL     1       8.931   1.334  18.877  1.00  0.00     0.097 C
HETATM   16  O1  UNL     1      10.664   2.483  17.716  1.00  0.00    -0.293 OA
ENDBRANCH  11  14
ENDBRANCH   3   5
ENDBRANCH   2   3
ENDBRANCH   1   2
BRANCH   1  17
HETATM   17  C11 UNL     1       6.899   9.645  18.101  1.00  0.00     0.244 C
HETATM   18  O4  UNL     1       7.150  10.539  17.276  1.00  0.00    -0.271 OA
HETATM   19  N1  UNL     1       7.497   9.695  19.395  1.00  0.00    -0.336 N
BRANCH  19  20
HETATM   20  C12 UNL     1       8.381  10.819  19.612  1.00  0.00     0.225 C
BRANCH  20  21
HETATM   21  C13 UNL     1       7.780  11.966  20.288  1.00  0.00     0.249 C
HETATM   22  N2  UNL     1       8.404  12.381  21.522  1.00  0.00    -0.061 NA
HETATM   23  O5  UNL     1       6.797  12.638  19.939  1.00  0.00    -0.275 OA
ENDBRANCH  20  21
ENDBRANCH  19  20
BRANCH  19  24
HETATM   24  C14 UNL     1       7.221   8.657  20.337  1.00  0.00     0.106 C
HETATM   25  C15 UNL     1       8.416   8.394  21.205  1.00  0.00     0.041 C
HETATM   26  C16 UNL     1       8.090   7.583  22.386  1.00  0.00     0.143 C
HETATM   27  S1  UNL     1       6.369   7.193  22.183  1.00  0.00     0.150 S
HETATM   28  O6  UNL     1       5.603   7.243  23.445  1.00  0.00    -0.227 OA
HETATM   29  O7  UNL     1       6.141   5.981  21.361  1.00  0.00    -0.227 OA
HETATM   30  C17 UNL     1       6.017   8.692  21.176  1.00  0.00     0.127 C
HETATM   31  C18 UNL     1       5.871   9.784  22.172  1.00  0.00     0.028 C
ENDBRANCH  19  24
ENDBRANCH   1  17
TORSDOF 8
ENDMDL