MODEL 2
REMARK VINA RESULT: -7.662551945      3.383      7.409
REMARK  10 active torsions:
REMARK  status: ('A' for Active; 'I' for Inactive)
REMARK    1  A    between atoms: O1_2  and  C2_3
REMARK    2  A    between atoms: C4_5  and  C5_6
REMARK    3  A    between atoms: C5_6  and  O2_7
REMARK    4  A    between atoms: C5_6  and  N1_9
REMARK    5  A    between atoms: N1_9  and  C7_11
REMARK    6  A    between atoms: C7_11  and  C8_12
REMARK       I    between atoms: C8_12  and  N2_14
REMARK    7  A    between atoms: N2_14  and  C9_16
REMARK    8  A    between atoms: C15_25  and  S1_26
REMARK    9  A    between atoms: S1_26  and  N4_29
REMARK   10  A    between atoms: C18_32  and  O6_33
ROOT
HETATM    1  C5  UNL     1       7.159   6.661  21.389  1.00  0.00     0.148 C
ENDROOT
BRANCH   1   2
HETATM    2  C4  UNL     1       7.081   6.205  20.037  1.00  0.00     0.019 A
HETATM    3  C3  UNL     1       6.633   6.982  18.995  1.00  0.00     0.055 A
HETATM    4  C2  UNL     1       6.570   6.508  17.678  1.00  0.00     0.104 A
HETATM    5  C18 UNL     1       6.974   5.227  17.451  1.00  0.00     0.124 A
HETATM    6  C15 UNL     1       7.435   4.393  18.446  1.00  0.00     0.111 A
HETATM    7  C14 UNL     1       7.484   4.887  19.718  1.00  0.00     0.043 A
BRANCH   4   8
HETATM    8  O1  UNL     1       6.112   7.331  16.674  1.00  0.00    -0.353 OA
HETATM    9  C1  UNL     1       5.738   8.653  16.970  1.00  0.00     0.210 C
ENDBRANCH   4   8
BRANCH   5  10
HETATM   10  O6  UNL     1       6.911   4.758  16.145  1.00  0.00    -0.352 OA
HETATM   11  C19 UNL     1       5.635   4.464  15.611  1.00  0.00     0.210 C
ENDBRANCH   5  10
BRANCH   6  12
HETATM   12  S1  UNL     1       7.940   2.749  18.066  1.00  0.00     0.245 S
HETATM   13  O4  UNL     1       6.877   1.954  17.409  1.00  0.00    -0.206 OA
HETATM   14  O5  UNL     1       8.270   2.073  19.390  1.00  0.00    -0.206 OA
BRANCH  12  15
HETATM   15  N4  UNL     1       9.352   2.721  17.119  1.00  0.00    -0.215 NA
HETATM   16  C16 UNL     1      10.480   2.092  17.726  1.00  0.00     0.129 C
HETATM   17  C17 UNL     1       9.146   2.315  15.768  1.00  0.00     0.129 C
ENDBRANCH  12  15
ENDBRANCH   6  12
ENDBRANCH   1   2
BRANCH   1  18
HETATM   18  O2  UNL     1       8.229   6.274  22.026  1.00  0.00    -0.346 OA
ATOM     19  H2  UNL     1       8.082   6.045  22.936  1.00  0.00     0.219 HD
ENDBRANCH   1  18
BRANCH   1  20
HETATM   20  N1  UNL     1       6.297   7.443  22.146  1.00  0.00    -0.357 N
HETATM   21  C6  UNL     1       4.913   7.274  22.454  1.00  0.00     0.152 C
BRANCH  20  22
HETATM   22  C7  UNL     1       6.883   8.685  22.771  1.00  0.00     0.227 C
BRANCH  22  23
HETATM   23  C8  UNL     1       6.948   8.496  24.233  1.00  0.00     0.241 C
HETATM   24  O3  UNL     1       6.300   9.295  24.988  1.00  0.00    -0.271 OA
HETATM   25  N2  UNL     1       7.678   7.493  24.877  1.00  0.00    -0.312 N
ATOM     26  H2  UNL     1       7.204   6.610  25.072  1.00  0.00     0.170 HD
BRANCH  25  27
HETATM   27  C9  UNL     1       8.910   7.608  25.242  1.00  0.00     0.107 A
HETATM   28  C10 UNL     1       9.799   8.321  24.450  1.00  0.00     0.051 A
HETATM   29  C11 UNL     1      11.119   8.449  24.836  1.00  0.00     0.047 A
HETATM   30  C12 UNL     1      11.572   7.875  26.005  1.00  0.00     0.131 A
HETATM   31  F1  UNL     1      12.862   8.007  26.369  1.00  0.00    -0.205 F
HETATM   32  C13 UNL     1      10.652   7.178  26.756  1.00  0.00     0.132 A
HETATM   33  N3  UNL     1       9.368   7.059  26.373  1.00  0.00    -0.349 N
ATOM     34  H3  UNL     1       8.723   6.532  26.963  1.00  0.00     0.167 HD
ENDBRANCH  25  27
ENDBRANCH  22  23
ENDBRANCH  20  22
ENDBRANCH   1  20
TORSDOF 10
ENDMDL