MODEL 3
REMARK VINA RESULT: -7.282328544      2.084      2.584
REMARK  9 active torsions:
REMARK  status: ('A' for Active; 'I' for Inactive)
REMARK    1  A    between atoms: C2_2  and  C4_4
REMARK    2  A    between atoms: C4_4  and  C5_5
REMARK    3  A    between atoms: C4_4  and  N6_32
REMARK    4  A    between atoms: C5_5  and  C6_6
REMARK    5  A    between atoms: C5_5  and  N1_9
REMARK    6  A    between atoms: C11_15  and  N3_16
REMARK    7  A    between atoms: N3_16  and  C12_18
REMARK    8  A    between atoms: C15_21  and  S1_22
REMARK    9  A    between atoms: S1_22  and  N4_25
ROOT
HETATM    1  N1  UNL     1       6.652   4.207  16.971  1.00  0.00    -0.248 N
HETATM    2  C9  UNL     1       6.753   4.592  15.668  1.00  0.00     0.160 A
HETATM    3  C10 UNL     1       6.483   5.858  15.218  1.00  0.00     0.136 A
HETATM    4 CL1  UNL     1       6.639   6.286  13.507  1.00  0.00    -0.062 Cl
HETATM    5  N2  UNL     1       6.095   6.770  16.117  1.00  0.00    -0.178 N
ATOM      6  H2  UNL     1       5.881   7.726  15.834  1.00  0.00     0.185 HD
HETATM    7  C11 UNL     1       5.994   6.391  17.396  1.00  0.00     0.699 A
HETATM    8  N5  UNL     1       6.270   5.121  17.819  1.00  0.00    -0.125 N
ATOM      9  H5  UNL     1       6.176   4.886  18.807  1.00  0.00     0.206 HD
ENDROOT
BRANCH   7  10
HETATM   10  N3  UNL     1       5.616   7.279  18.263  1.00  0.00    -0.190 N
ATOM     11  H3  UNL     1       4.713   7.737  18.138  1.00  0.00     0.184 HD
BRANCH  10  12
HETATM   12  C12 UNL     1       6.406   7.630  19.365  1.00  0.00     0.049 A
HETATM   13  C13 UNL     1       5.795   8.138  20.509  1.00  0.00     0.031 A
HETATM   14  C14 UNL     1       6.572   8.483  21.596  1.00  0.00     0.027 A
HETATM   15  C15 UNL     1       7.946   8.352  21.618  1.00  0.00     0.074 A
HETATM   16  C18 UNL     1       8.551   7.843  20.474  1.00  0.00     0.027 A
HETATM   17  C19 UNL     1       7.785   7.495  19.382  1.00  0.00     0.031 A
BRANCH  15  18
HETATM   18  S1  UNL     1       8.904   8.796  23.005  1.00  0.00     0.242 S
HETATM   19  O1  UNL     1       8.389  10.104  23.571  1.00  0.00    -0.206 OA
HETATM   20  O2  UNL     1      10.324   8.936  22.587  1.00  0.00    -0.206 OA
BRANCH  18  21
HETATM   21  N4  UNL     1       8.772   7.614  24.262  1.00  0.00    -0.215 NA
HETATM   22  C16 UNL     1       7.433   7.621  24.818  1.00  0.00     0.129 C
HETATM   23  C17 UNL     1       9.756   7.903  25.287  1.00  0.00     0.129 C
ENDBRANCH  18  21
ENDBRANCH  15  18
ENDBRANCH  10  12
ENDBRANCH   7  10
BRANCH   1  24
HETATM   24  C5  UNL     1       6.932   2.849  17.376  1.00  0.00     0.087 C
BRANCH  24  25
HETATM   25  C4  UNL     1       8.071   2.661  18.266  1.00  0.00     0.112 C
BRANCH  25  26
HETATM   26  C2  UNL     1       9.397   2.268  17.765  1.00  0.00     0.036 C
HETATM   27  C1  UNL     1       9.601   2.318  16.288  1.00  0.00     0.016 C
HETATM   28  C3  UNL     1       9.938   0.964  18.291  1.00  0.00     0.016 C
ENDBRANCH  25  26
BRANCH  25  29
HETATM   29  N6  UNL     1       7.878   2.793  19.530  1.00  0.00    -0.117 N
HETATM   30  O3  UNL     1       8.044   4.036  20.110  1.00  0.00    -0.532 OA
HETATM   31  O4  UNL     1       7.521   1.760  20.380  1.00  0.00    -0.532 OA
ENDBRANCH  25  29
ENDBRANCH  24  25
BRANCH  24  32
HETATM   32  C6  UNL     1       5.721   2.018  17.522  1.00  0.00    -0.057 C
HETATM   33  C7  UNL     1       5.157   1.414  16.271  1.00  0.00     0.045 C
HETATM   34  C8  UNL     1       4.653   2.567  18.428  1.00  0.00     0.045 C
ENDBRANCH  24  32
ENDBRANCH   1  24
TORSDOF 9
ENDMDL