MODEL 5
REMARK VINA RESULT: -8.008187189      1.275      1.799
REMARK  10 active torsions:
REMARK  status: ('A' for Active; 'I' for Inactive)
REMARK    1  A    between atoms: C3_3  and  O1_4
REMARK    2  A    between atoms: C3_3  and  C4_6
REMARK    3  A    between atoms: C8_13  and  C9_14
REMARK    4  A    between atoms: C9_14  and  O3_16
REMARK    5  A    between atoms: O3_16  and  C10_17
REMARK    6  A    between atoms: C10_17  and  C11_18
REMARK       I    between atoms: C11_18  and  N2_20
REMARK    7  A    between atoms: N2_20  and  C13_22
REMARK    8  A    between atoms: C13_22  and  C14_23
REMARK       I    between atoms: C14_23  and  N3_25
REMARK    9  A    between atoms: N3_25  and  C15_27
REMARK   10  A    between atoms: C15_27  and  C16_28
ROOT
HETATM    1  C1  UNL     1       4.804   9.551  24.403  1.00  0.00     0.105 C
HETATM    2  C2  UNL     1       5.779   8.793  24.386  1.00  0.00    -0.123 C
HETATM    3  C3  UNL     1       6.862   7.890  24.433  1.00  0.00     0.120 C
ENDROOT
BRANCH   3   4
HETATM    4  O1  UNL     1       6.577   6.628  24.580  1.00  0.00    -0.353 OA
ATOM      5  H1  UNL     1       6.546   6.291  25.467  1.00  0.00     0.218 HD
ENDBRANCH   3   4
BRANCH   3   6
HETATM    6  C4  UNL     1       8.262   8.207  24.357  1.00  0.00     0.039 A
HETATM    7  C5  UNL     1       9.058   7.671  25.408  1.00  0.00     0.038 A
HETATM    8  C6  UNL     1      10.343   8.066  25.629  1.00  0.00     0.027 A
HETATM    9 BR1  UNL     1      11.368   7.304  27.066  1.00  0.00    -0.050 Br
HETATM   10  C7  UNL     1      10.874   9.020  24.800  1.00  0.00     0.107 A
HETATM   11  N1  UNL     1      10.152   9.534  23.809  1.00  0.00    -0.359 N
HETATM   12  C8  UNL     1       8.842   9.141  23.562  1.00  0.00     0.122 A
ATOM     13  H1  UNL     1      10.574  10.242  23.208  1.00  0.00     0.165 HD
BRANCH  12  14
HETATM   14  C9  UNL     1       8.303   9.589  22.283  1.00  0.00     0.311 C
HETATM   15  O2  UNL     1       8.361  10.856  22.049  1.00  0.00    -0.258 OA
BRANCH  14  16
HETATM   16  O3  UNL     1       7.753   8.868  21.274  1.00  0.00    -0.307 OA
BRANCH  16  17
HETATM   17  C10 UNL     1       8.116   7.591  20.830  1.00  0.00     0.281 C
BRANCH  17  18
HETATM   18  C11 UNL     1       7.588   7.366  19.469  1.00  0.00     0.244 C
HETATM   19  O4  UNL     1       7.934   8.146  18.542  1.00  0.00    -0.271 OA
HETATM   20  N2  UNL     1       6.701   6.277  19.226  1.00  0.00    -0.346 N
HETATM   21  C12 UNL     1       6.194   6.065  17.900  1.00  0.00     0.153 C
BRANCH  20  22
HETATM   22  C13 UNL     1       6.337   5.413  20.322  1.00  0.00     0.228 C
BRANCH  22  23
HETATM   23  C14 UNL     1       6.548   4.004  19.918  1.00  0.00     0.235 C
HETATM   24  O5  UNL     1       5.554   3.287  19.672  1.00  0.00    -0.272 OA
HETATM   25  N3  UNL     1       7.845   3.431  19.798  1.00  0.00    -0.359 N
ATOM     26  H3  UNL     1       8.670   3.997  19.995  1.00  0.00     0.162 HD
BRANCH  25  27
HETATM   27  C15 UNL     1       7.995   2.064  19.404  1.00  0.00     0.131 C
BRANCH  27  28
HETATM   28  C16 UNL     1       8.805   1.907  18.139  1.00  0.00    -0.035 C
HETATM   29  C17 UNL     1       7.836   1.485  17.039  1.00  0.00     0.016 C
HETATM   30  C18 UNL     1       9.864   0.858  18.371  1.00  0.00     0.016 C
HETATM   31  C19 UNL     1       9.502   3.200  17.771  1.00  0.00     0.016 C
ENDBRANCH  27  28
ENDBRANCH  25  27
ENDBRANCH  22  23
ENDBRANCH  20  22
ENDBRANCH  17  18
ENDBRANCH  16  17
ENDBRANCH  14  16
ENDBRANCH  12  14
ENDBRANCH   3   6
TORSDOF 10
ENDMDL