MODEL 3
REMARK VINA RESULT: -7.027552811      8.987     11.341
REMARK  4 active torsions:
REMARK  status: ('A' for Active; 'I' for Inactive)
REMARK    1  A    between atoms: C2_2  and  N1_3
REMARK    2  A    between atoms: C2_2  and  C12_21
REMARK    3  A    between atoms: N1_3  and  C3_5
REMARK    4  A    between atoms: C10_12  and  N2_13
ROOT
HETATM    1  C3  UNL     1      14.682  32.251  -3.417  1.00  0.00     0.077 C
HETATM    2  C4  UNL     1      13.732  32.217  -2.250  1.00  0.00     0.027 C
HETATM    3  C5  UNL     1      13.232  30.791  -1.952  1.00  0.00     0.033 C
HETATM    4  C6  UNL     1      14.349  29.946  -1.446  1.00  0.00     0.033 C
HETATM    5  C7  UNL     1      15.639  30.389  -2.089  1.00  0.00     0.033 C
HETATM    6  C8  UNL     1      15.384  30.895  -3.480  1.00  0.00     0.027 C
HETATM    7  C9  UNL     1      14.153  28.474  -1.761  1.00  0.00     0.071 C
HETATM    8  C10 UNL     1      14.616  27.794  -0.517  1.00  0.00     0.249 C
HETATM    9  C11 UNL     1      14.562  28.843   0.521  1.00  0.00     0.120 C
HETATM   10  N3  UNL     1      14.669  28.564   1.913  1.00  0.00    -0.086 NA
HETATM   11  N4  UNL     1      14.415  30.014  -0.001  1.00  0.00    -0.371 N
ATOM     12  H4  UNL     1      14.353  30.879   0.537  1.00  0.00     0.161 HD
ENDROOT
BRANCH   8  13
HETATM   13  N2  UNL     1      15.930  27.241  -0.591  1.00  0.00    -0.069 N
ATOM     14  H23 UNL     1      16.173  27.038  -1.560  1.00  0.00     0.275 HD
ATOM     15  H22 UNL     1      16.626  27.955  -0.379  1.00  0.00     0.275 HD
ATOM     16  H21 UNL     1      16.080  26.417  -0.009  1.00  0.00     0.275 HD
ENDBRANCH   8  13
BRANCH   1  17
HETATM   17  N1  UNL     1      15.682  33.248  -3.345  1.00  0.00    -0.407 N
ATOM     18  H1  UNL     1      16.531  33.074  -2.808  1.00  0.00     0.154 HD
BRANCH  17  19
HETATM   19  C2  UNL     1      15.518  34.477  -4.009  1.00  0.00     0.130 C
HETATM   20  C1  UNL     1      16.303  34.750  -5.235  1.00  0.00     0.039 C
BRANCH  19  21
HETATM   21  C12 UNL     1      15.579  35.654  -3.071  1.00  0.00     0.074 A
HETATM   22  C13 UNL     1      15.670  35.581  -1.705  1.00  0.00     0.037 A
HETATM   23  C14 UNL     1      15.703  36.890  -1.226  1.00  0.00     0.027 A
HETATM   24  C15 UNL     1      15.627  37.682  -2.342  1.00  0.00     0.142 A
HETATM   25  O1  UNL     1      15.557  36.911  -3.400  1.00  0.00    -0.325 OA
ENDBRANCH  19  21
ENDBRANCH  17  19
ENDBRANCH   1  17
TORSDOF 4
ENDMDL