MODEL 4
REMARK VINA RESULT: -5.892220722      3.747      6.167
REMARK  6 active torsions:
REMARK  status: ('A' for Active; 'I' for Inactive)
REMARK    1  A    between atoms: O1_1  and  C1_3
REMARK    2  A    between atoms: C1_3  and  N1_4
REMARK    3  A    between atoms: C1_3  and  C8_12
REMARK    4  A    between atoms: N1_4  and  C2_6
REMARK    5  A    between atoms: C8_12  and  O2_13
REMARK    6  A    between atoms: C8_12  and  C9_15
ROOT
HETATM    1  C1  UNL     1      13.886  29.580  -2.262  1.00  0.00     0.247 C
ENDROOT
BRANCH   1   2
HETATM    2  O1  UNL     1      13.048  28.489  -2.413  1.00  0.00    -0.374 OA
ATOM      3  H1  UNL     1      12.861  28.330  -3.330  1.00  0.00     0.212 HD
ENDBRANCH   1   2
BRANCH   1   4
HETATM    4  N1  UNL     1      14.362  29.675  -0.916  1.00  0.00    -0.390 N
ATOM      5  H1  UNL     1      13.755  29.988  -0.158  1.00  0.00     0.156 HD
BRANCH   4   6
HETATM    6  C2  UNL     1      15.707  29.318  -0.683  1.00  0.00     0.079 C
HETATM    7  C3  UNL     1      15.962  27.870  -0.421  1.00  0.00     0.025 C
HETATM    8  C4  UNL     1      17.453  27.691  -0.243  1.00  0.00     0.002 C
HETATM    9  C5  UNL     1      18.239  28.896  -0.713  1.00  0.00     0.000 C
HETATM   10  C6  UNL     1      17.873  30.150   0.062  1.00  0.00     0.002 C
HETATM   11  C7  UNL     1      16.382  30.110   0.424  1.00  0.00     0.025 C
ENDBRANCH   4   6
ENDBRANCH   1   4
BRANCH   1  12
HETATM   12  C8  UNL     1      13.129  30.869  -2.526  1.00  0.00     0.207 C
BRANCH  12  13
HETATM   13  O2  UNL     1      12.233  31.019  -1.459  1.00  0.00    -0.386 OA
ATOM     14  H2  UNL     1      12.190  31.951  -1.280  1.00  0.00     0.210 HD
ENDBRANCH  12  13
BRANCH  12  15
HETATM   15  C9  UNL     1      14.018  32.065  -2.556  1.00  0.00     0.034 A
HETATM   16  C10 UNL     1      15.030  32.370  -3.431  1.00  0.00     0.107 A
HETATM   17  N2  UNL     1      15.675  33.489  -3.257  1.00  0.00    -0.350 N
HETATM   18  C11 UNL     1      15.323  34.278  -2.242  1.00  0.00     0.143 A
ATOM     19  H2  UNL     1      16.434  33.755  -3.884  1.00  0.00     0.166 HD
HETATM   20  S1  UNL     1      15.981  35.738  -1.813  1.00  0.00    -0.052 SA
HETATM   21  S2  UNL     1      14.044  33.415  -1.514  1.00  0.00    -0.061 SA
ENDBRANCH  12  15
ENDBRANCH   1  12
TORSDOF 6
ENDMDL