MODEL 4
REMARK VINA RESULT: -6.700895099      7.651      9.969
REMARK  6 active torsions:
REMARK  status: ('A' for Active; 'I' for Inactive)
REMARK    1  A    between atoms: C6_6  and  C7_7
REMARK    2  A    between atoms: C9_9  and  C10_10
REMARK    3  A    between atoms: C10_10  and  O1_11
REMARK    4  A    between atoms: C10_10  and  N1_13
REMARK    5  A    between atoms: N1_13  and  N2_14
REMARK    6  A    between atoms: N2_14  and  C11_15
ROOT
HETATM    1  C7  UNL     1      21.653  36.571  -4.014  1.00  0.00     0.039 A
HETATM    2  C8  UNL     1      21.062  35.432  -4.480  1.00  0.00     0.066 A
HETATM    3  C9  UNL     1      21.873  34.384  -4.141  1.00  0.00     0.123 A
HETATM    4  O2  UNL     1      22.917  34.896  -3.491  1.00  0.00    -0.238 OA
HETATM    5  N3  UNL     1      22.807  36.165  -3.407  1.00  0.00    -0.265 N
ATOM      6  H3  UNL     1      23.480  36.783  -2.954  1.00  0.00     0.194 HD
ENDROOT
BRANCH   3   7
HETATM    7  C10 UNL     1      21.758  32.940  -4.373  1.00  0.00     0.286 C
BRANCH   7   8
HETATM    8  O1  UNL     1      22.887  32.321  -3.788  1.00  0.00    -0.372 OA
ATOM      9  H1  UNL     1      23.248  31.717  -4.427  1.00  0.00     0.212 HD
ENDBRANCH   7   8
BRANCH   7  10
HETATM   10  N1  UNL     1      21.602  32.548  -5.739  1.00  0.00    -0.109 NA
BRANCH  10  11
HETATM   11  N2  UNL     1      20.268  32.488  -6.073  1.00  0.00    -0.141 NA
BRANCH  11  12
HETATM   12  C11 UNL     1      19.944  33.152  -7.319  1.00  0.00     0.087 C
HETATM   13  C12 UNL     1      21.214  33.667  -7.961  1.00  0.00     0.029 C
HETATM   14  C13 UNL     1      18.910  34.217  -7.159  1.00  0.00     0.029 C
ENDBRANCH  11  12
ENDBRANCH  10  11
ENDBRANCH   7  10
ENDBRANCH   3   7
BRANCH   1  15
HETATM   15  C6  UNL     1      21.245  37.974  -4.083  1.00  0.00     0.038 C
HETATM   16  C5  UNL     1      22.413  38.916  -4.289  1.00  0.00     0.011 C
HETATM   17  C4  UNL     1      21.859  40.319  -4.154  1.00  0.00     0.001 C
HETATM   18  C3  UNL     1      20.729  40.593  -5.082  1.00  0.00     0.004 C
HETATM   19  C2  UNL     1      19.689  39.521  -5.137  1.00  0.00    -0.018 C
HETATM   20  C1  UNL     1      18.697  39.569  -4.018  1.00  0.00     0.010 C
HETATM   21  C14 UNL     1      20.337  38.163  -5.285  1.00  0.00     0.015 C
ENDBRANCH   1  15
TORSDOF 6
ENDMDL