MODEL 4
REMARK VINA RESULT: -6.653332864      2.179      2.941
REMARK  4 active torsions:
REMARK  status: ('A' for Active; 'I' for Inactive)
REMARK    1  A    between atoms: C4_6  and  C5_7
REMARK    2  A    between atoms: C5_7  and  N2_8
REMARK    3  A    between atoms: N2_8  and  C6_10
REMARK    4  A    between atoms: C12_16  and  N3_17
REMARK       I    between atoms: N3_17  and  C13_19
ROOT
HETATM    1  N1  UNL     1      14.838  28.771   2.196  1.00  0.00    -0.191 NA
HETATM    2  C1  UNL     1      15.421  28.901   1.206  1.00  0.00     0.109 C
HETATM    3  C2  UNL     1      16.201  29.068  -0.016  1.00  0.00     0.112 A
HETATM    4  S1  UNL     1      17.912  29.346  -0.065  1.00  0.00    -0.088 SA
HETATM    5  C3  UNL     1      18.102  29.428  -1.748  1.00  0.00     0.062 A
HETATM    6  C4  UNL     1      16.839  29.240  -2.226  1.00  0.00    -0.005 A
HETATM    7  C12 UNL     1      15.846  29.053  -1.322  1.00  0.00     0.070 A
ENDROOT
BRANCH   7   8
HETATM    8  N3  UNL     1      14.466  28.856  -1.735  1.00  0.00    -0.329 N
HETATM    9  C13 UNL     1      13.795  27.645  -1.843  1.00  0.00     0.186 C
HETATM   10  N4  UNL     1      13.712  27.018  -2.960  1.00  0.00    -0.373 N
HETATM   11  N5  UNL     1      13.116  27.033  -0.726  1.00  0.00    -0.064 NA
ATOM     12  H42 UNL     1      14.192  27.450  -3.749  1.00  0.00     0.158 HD
ATOM     13  H41 UNL     1      13.220  26.128  -3.040  1.00  0.00     0.158 HD
ATOM     14  H3  UNL     1      13.936  29.695  -1.970  1.00  0.00     0.168 HD
ENDBRANCH   7   8
BRANCH   6  15
HETATM   15  C5  UNL     1      16.588  29.247  -3.730  1.00  0.00     0.156 C
BRANCH  15  16
HETATM   16  N2  UNL     1      16.501  30.573  -4.214  1.00  0.00    -0.413 N
ATOM     17  H2  UNL     1      16.868  31.365  -3.685  1.00  0.00     0.153 HD
BRANCH  16  18
HETATM   18  C6  UNL     1      15.878  30.743  -5.469  1.00  0.00     0.076 C
HETATM   19  C7  UNL     1      14.507  30.114  -5.575  1.00  0.00     0.024 C
HETATM   20  C8  UNL     1      14.110  30.035  -7.033  1.00  0.00     0.002 C
HETATM   21  C9  UNL     1      14.863  31.020  -7.897  1.00  0.00     0.000 C
HETATM   22  C10 UNL     1      14.915  32.331  -7.117  1.00  0.00     0.002 C
HETATM   23  C11 UNL     1      15.867  32.180  -5.954  1.00  0.00     0.024 C
ENDBRANCH  16  18
ENDBRANCH  15  16
ENDBRANCH   6  15
TORSDOF 4
ENDMDL