MODEL 4
REMARK VINA RESULT: -6.256644004      7.990      9.889
REMARK  5 active torsions:
REMARK  status: ('A' for Active; 'I' for Inactive)
REMARK    1  A    between atoms: C3_6  and  N3_7
REMARK    2  A    between atoms: N3_7  and  C4_9
REMARK    3  A    between atoms: C4_9  and  C5_10
REMARK    4  A    between atoms: C5_10  and  C6_11
REMARK    5  A    between atoms: C6_11  and  C7_12
ROOT
HETATM    1  N3  UNL     1      20.015  33.350  -6.878  1.00  0.00    -0.225 N
ATOM      2  H3  UNL     1      19.428  32.602  -6.509  1.00  0.00     0.177 HD
ENDROOT
BRANCH   1   3
HETATM    3  C3  UNL     1      21.350  33.038  -7.263  1.00  0.00     0.686 C
HETATM    4  N2  UNL     1      21.780  33.282  -8.595  1.00  0.00    -0.136 N
HETATM    5  N1  UNL     1      23.143  33.388  -8.863  1.00  0.00    -0.119 NA
ATOM      6  H2  UNL     1      21.099  33.378  -9.348  1.00  0.00     0.201 HD
HETATM    7  C2  UNL     1      23.809  32.260  -8.250  1.00  0.00     0.130 C
HETATM    8  C1  UNL     1      25.295  32.247  -8.516  1.00  0.00     0.033 C
HETATM    9  C13 UNL     1      23.549  32.199  -6.758  1.00  0.00     0.193 C
HETATM   10  N4  UNL     1      22.200  32.530  -6.424  1.00  0.00    -0.210 N
HETATM   11  S1  UNL     1      24.636  33.365  -5.879  1.00  0.00    -0.068 SA
ATOM     12  H4  UNL     1      21.886  32.357  -5.469  1.00  0.00     0.179 HD
ENDBRANCH   1   3
BRANCH   1  13
HETATM   13  C4  UNL     1      19.453  34.676  -6.986  1.00  0.00     0.138 C
BRANCH  13  14
HETATM   14  C5  UNL     1      20.209  35.553  -5.979  1.00  0.00     0.020 C
BRANCH  14  15
HETATM   15  C6  UNL     1      19.246  36.330  -5.126  1.00  0.00     0.006 C
BRANCH  15  16
HETATM   16  C7  UNL     1      20.017  37.359  -4.322  1.00  0.00    -0.014 C
HETATM   17  C8  UNL     1      21.128  37.840  -5.196  1.00  0.00     0.004 C
HETATM   18  C9  UNL     1      21.034  39.296  -5.561  1.00  0.00     0.000 C
HETATM   19  C10 UNL     1      20.953  40.037  -4.218  1.00  0.00     0.000 C
HETATM   20  C11 UNL     1      19.545  39.791  -3.738  1.00  0.00     0.000 C
HETATM   21  C12 UNL     1      19.071  38.394  -3.836  1.00  0.00     0.004 C
ENDBRANCH  15  16
ENDBRANCH  14  15
ENDBRANCH  13  14
ENDBRANCH   1  13
TORSDOF 5
ENDMDL