MODEL 4
REMARK VINA RESULT: -6.235716219      2.804      5.759
REMARK  7 active torsions:
REMARK  status: ('A' for Active; 'I' for Inactive)
REMARK    1  A    between atoms: C2_2  and  C3_3
REMARK    2  A    between atoms: C2_2  and  C4_6
REMARK    3  A    between atoms: C3_3  and  O1_4
REMARK    4  A    between atoms: C4_6  and  C5_7
REMARK       I    between atoms: C5_7  and  N1_9
REMARK    5  A    between atoms: N2_11  and  C6_13
REMARK    6  A    between atoms: C6_13  and  C7_17
REMARK    7  A    between atoms: N4_19  and  O3_21
ROOT
HETATM    1  C6  UNL     1      13.643  31.285  -2.167  1.00  0.00     0.099 C
HETATM    2  N3  UNL     1      12.494  31.273  -2.734  1.00  0.00    -0.387 N
ATOM      3  H31 UNL     1      12.426  31.567  -3.708  1.00  0.00     0.157 HD
ATOM      4  H32 UNL     1      11.634  30.992  -2.263  1.00  0.00     0.157 HD
ENDROOT
BRANCH   1   5
HETATM    5  N2  UNL     1      13.736  30.878  -0.817  1.00  0.00    -0.286 N
HETATM    6  N1  UNL     1      13.900  29.672  -0.535  1.00  0.00    -0.269 N
HETATM    7  C5  UNL     1      13.995  28.702  -1.557  1.00  0.00     0.236 C
ATOM      8  H1  UNL     1      13.967  29.387   0.441  1.00  0.00     0.190 HD
HETATM    9  O2  UNL     1      13.067  28.439  -2.359  1.00  0.00    -0.272 OA
ATOM     10  H2  UNL     1      13.668  31.571  -0.071  1.00  0.00     0.188 HD
BRANCH   7  11
HETATM   11  C4  UNL     1      15.272  27.963  -1.670  1.00  0.00     0.110 C
BRANCH  11  12
HETATM   12  C2  UNL     1      16.381  28.801  -1.115  1.00  0.00     0.014 C
HETATM   13  C1  UNL     1      17.417  29.056  -2.179  1.00  0.00     0.012 C
BRANCH  12  14
HETATM   14  C3  UNL     1      16.965  28.062   0.073  1.00  0.00     0.168 C
BRANCH  14  15
HETATM   15  O1  UNL     1      16.136  28.226   1.180  1.00  0.00    -0.400 OA
ATOM     16  H1  UNL     1      16.617  28.654   1.879  1.00  0.00     0.209 HD
ENDBRANCH  14  15
ENDBRANCH  12  14
ENDBRANCH  11  12
ENDBRANCH   7  11
ENDBRANCH   1   5
BRANCH   1  17
HETATM   17  C7  UNL     1      14.889  31.693  -2.849  1.00  0.00     0.105 C
HETATM   18  C8  UNL     1      14.773  31.232  -4.276  1.00  0.00     0.021 C
HETATM   19  N4  UNL     1      14.127  30.170  -4.571  1.00  0.00    -0.277 N
HETATM   20  C9  UNL     1      15.440  32.069  -5.301  1.00  0.00     0.055 C
ATOM     21  H4  UNL     1      13.695  29.648  -3.809  1.00  0.00     0.193 HD
HETATM   22  C10 UNL     1      14.845  33.449  -5.262  1.00  0.00     0.006 C
HETATM   23  C11 UNL     1      14.276  33.793  -3.910  1.00  0.00     0.006 C
HETATM   24  C12 UNL     1      15.139  33.181  -2.814  1.00  0.00    -0.002 C
HETATM   25  C13 UNL     1      14.910  33.826  -1.495  1.00  0.00     0.011 C
BRANCH  19  26
HETATM   26  O3  UNL     1      13.977  29.688  -5.838  1.00  0.00    -0.290 OA
ATOM     27  H3  UNL     1      13.648  28.822  -6.046  1.00  0.00     0.244 HD
ENDBRANCH  19  26
ENDBRANCH   1  17
TORSDOF 7
ENDMDL