MODEL 5
REMARK VINA RESULT: -6.276593436      2.135      2.491
REMARK  4 active torsions:
REMARK  status: ('A' for Active; 'I' for Inactive)
REMARK    1  A    between atoms: C2_2  and  C3_3
REMARK    2  A    between atoms: N1_4  and  C4_6
REMARK    3  A    between atoms: C4_6  and  C5_7
REMARK    4  A    between atoms: C5_7  and  C6_8
ROOT
HETATM    1  C3  UNL     1      18.727  35.293  -4.610  1.00  0.00     0.095 C
HETATM    2  N1  UNL     1      18.903  36.444  -4.204  1.00  0.00    -0.378 N
ATOM      3  H1  UNL     1      18.632  36.553  -3.227  1.00  0.00     0.164 HD
ENDROOT
BRANCH   1   4
HETATM    4  C2  UNL     1      18.963  34.690  -5.892  1.00  0.00    -0.023 C
HETATM    5  C1  UNL     1      18.065  34.810  -7.042  1.00  0.00     0.051 C
HETATM    6  C9  UNL     1      20.070  33.963  -6.076  1.00  0.00     0.053 C
HETATM    7  S1  UNL     1      21.207  33.773  -4.724  1.00  0.00    -0.102 SA
HETATM    8  S2  UNL     1      20.481  33.164  -7.603  1.00  0.00    -0.047 SA
HETATM    9  C10 UNL     1      22.749  32.989  -5.274  1.00  0.00     0.202 C
HETATM   10  N4  UNL     1      23.083  33.334  -6.627  1.00  0.00    -0.362 N
HETATM   11  C11 UNL     1      22.253  33.119  -7.760  1.00  0.00     0.139 C
ATOM     12  H4  UNL     1      23.991  33.770  -6.788  1.00  0.00     0.162 HD
HETATM   13  N5  UNL     1      22.762  32.888  -8.911  1.00  0.00    -0.380 N
ATOM     14  H52 UNL     1      23.778  32.862  -9.001  1.00  0.00     0.158 HD
ATOM     15  H51 UNL     1      22.166  32.733  -9.725  1.00  0.00     0.158 HD
ENDBRANCH   1   4
BRANCH   2  16
HETATM   16  C4  UNL     1      19.376  37.617  -4.746  1.00  0.00     0.064 C
BRANCH  16  17
HETATM   17  C5  UNL     1      20.831  37.565  -5.207  1.00  0.00     0.099 C
BRANCH  17  18
HETATM   18  C6  UNL     1      21.162  38.977  -5.687  1.00  0.00     0.288 C
HETATM   19  N2  UNL     1      20.443  39.884  -4.871  1.00  0.00    -0.374 N
HETATM   20  C7  UNL     1      21.255  40.456  -4.091  1.00  0.00     0.084 C
ATOM     21  H2  UNL     1      19.437  40.048  -4.907  1.00  0.00     0.160 HD
HETATM   22  C8  UNL     1      22.640  39.986  -4.301  1.00  0.00     0.279 C
HETATM   23  N3  UNL     1      22.562  39.239  -5.546  1.00  0.00    -0.050 N
ATOM     24  H32 UNL     1      23.154  38.408  -5.579  1.00  0.00     0.280 HD
ATOM     25  H31 UNL     1      22.988  39.704  -6.347  1.00  0.00     0.280 HD
ENDBRANCH  17  18
ENDBRANCH  16  17
ENDBRANCH   2  16
TORSDOF 4
ENDMDL