MODEL 3
REMARK VINA RESULT: -6.458292442     10.188     11.309
REMARK  7 active torsions:
REMARK  status: ('A' for Active; 'I' for Inactive)
REMARK    1  A    between atoms: C2_2  and  C3_3
REMARK    2  A    between atoms: C2_2  and  C7_20
REMARK    3  A    between atoms: C3_3  and  C4_4
REMARK    4  A    between atoms: C4_4  and  N1_5
REMARK    5  A    between atoms: N1_5  and  N2_7
REMARK    6  A    between atoms: N2_7  and  C5_9
REMARK    7  A    between atoms: N5_16  and  N6_17
ROOT
HETATM    1  N2  UNL     1      24.960  34.614  -5.286  1.00  0.00    -0.133 N
ATOM      2  H2  UNL     1      25.279  34.215  -6.169  1.00  0.00     0.205 HD
ENDROOT
BRANCH   1   3
HETATM    3  N1  UNL     1      23.751  35.177  -5.332  1.00  0.00    -0.319 N
ATOM      4  H1  UNL     1      23.720  36.133  -5.687  1.00  0.00     0.181 HD
BRANCH   3   5
HETATM    5  C4  UNL     1      22.485  34.613  -4.945  1.00  0.00     0.167 C
BRANCH   5   6
HETATM    6  C3  UNL     1      21.593  35.674  -4.346  1.00  0.00    -0.003 C
BRANCH   6   7
HETATM    7  C2  UNL     1      20.725  36.362  -5.049  1.00  0.00    -0.082 C
HETATM    8  C1  UNL     1      19.658  35.688  -5.840  1.00  0.00     0.043 C
BRANCH   7   9
HETATM    9  C7  UNL     1      20.785  37.827  -5.072  1.00  0.00     0.014 C
HETATM   10  C8  UNL     1      21.941  38.372  -4.239  1.00  0.00     0.009 C
HETATM   11  C9  UNL     1      21.837  39.875  -4.132  1.00  0.00     0.001 C
HETATM   12  C10 UNL     1      20.837  40.448  -5.103  1.00  0.00     0.000 C
HETATM   13  C11 UNL     1      19.470  39.868  -4.981  1.00  0.00     0.001 C
HETATM   14  C12 UNL     1      19.524  38.455  -4.464  1.00  0.00     0.009 C
ENDBRANCH   7   9
ENDBRANCH   6   7
ENDBRANCH   5   6
ENDBRANCH   3   5
ENDBRANCH   1   3
BRANCH   1  15
HETATM   15  C5  UNL     1      25.776  34.495  -4.326  1.00  0.00     0.734 A
HETATM   16  N3  UNL     1      25.615  34.223  -3.022  1.00  0.00    -0.127 N
HETATM   17  N4  UNL     1      26.791  34.197  -2.380  1.00  0.00    -0.260 N
ATOM     18  H3  UNL     1      24.713  34.057  -2.577  1.00  0.00     0.206 HD
HETATM   19  C6  UNL     1      27.737  34.458  -3.288  1.00  0.00     0.229 A
ATOM     20  H4  UNL     1      26.936  34.012  -1.388  1.00  0.00     0.190 HD
HETATM   21  S1  UNL     1      29.369  34.555  -3.058  1.00  0.00    -0.037 SA
HETATM   22  N5  UNL     1      27.151  34.642  -4.469  1.00  0.00    -0.062 N
BRANCH  22  23
HETATM   23  N6  UNL     1      27.751  34.938  -5.703  1.00  0.00    -0.322 N
ATOM     24  H62 UNL     1      28.744  34.981  -5.929  1.00  0.00     0.178 HD
ATOM     25  H61 UNL     1      27.206  35.153  -6.538  1.00  0.00     0.178 HD
ENDBRANCH  22  23
ENDBRANCH   1  15
TORSDOF 7
ENDMDL