MODEL 5
REMARK VINA RESULT: -5.701154352      1.488      1.977
REMARK  7 active torsions:
REMARK  status: ('A' for Active; 'I' for Inactive)
REMARK    1  A    between atoms: C2_2  and  N1_5
REMARK    2  A    between atoms: N1_5  and  C5_8
REMARK    3  A    between atoms: C5_8  and  C6_9
REMARK    4  A    between atoms: C7_12  and  C8_13
REMARK    5  A    between atoms: C8_13  and  O1_14
REMARK    6  A    between atoms: C8_13  and  N3_16
REMARK    7  A    between atoms: N3_16  and  C9_18
ROOT
HETATM    1  C6  UNL     1      22.137  36.332  -4.123  1.00  0.00     0.077 A
HETATM    2  N2  UNL     1      23.229  35.645  -3.842  1.00  0.00    -0.352 N
ATOM      3  H2  UNL     1      24.046  36.120  -3.457  1.00  0.00     0.166 HD
HETATM    4  C7  UNL     1      23.263  34.366  -4.055  1.00  0.00     0.065 A
HETATM    5  C13 UNL     1      22.135  33.780  -4.572  1.00  0.00     0.081 A
HETATM    6  S1  UNL     1      21.087  35.140  -4.718  1.00  0.00    -0.085 SA
ENDROOT
BRANCH   4   7
HETATM    7  C8  UNL     1      24.481  33.501  -3.762  1.00  0.00     0.266 C
BRANCH   7   8
HETATM    8  O1  UNL     1      24.048  32.340  -3.127  1.00  0.00    -0.371 OA
ATOM      9  H1  UNL     1      23.103  32.294  -3.204  1.00  0.00     0.212 HD
ENDBRANCH   7   8
BRANCH   7  10
HETATM   10  N3  UNL     1      25.334  34.278  -2.936  1.00  0.00    -0.384 N
ATOM     11  H3  UNL     1      24.973  34.906  -2.217  1.00  0.00     0.156 HD
BRANCH  10  12
HETATM   12  C9  UNL     1      26.735  34.120  -3.184  1.00  0.00     0.017 C
HETATM   13  C10 UNL     1      27.598  35.155  -2.497  1.00  0.00     0.037 C
HETATM   14  C11 UNL     1      26.934  34.298  -4.695  1.00  0.00     0.037 C
HETATM   15  C12 UNL     1      27.261  32.761  -2.827  1.00  0.00     0.037 C
ENDBRANCH  10  12
ENDBRANCH   7  10
ENDBRANCH   4   7
BRANCH   1  16
HETATM   16  C5  UNL     1      21.870  37.801  -3.961  1.00  0.00     0.297 C
BRANCH  16  17
HETATM   17  N1  UNL     1      20.892  38.254  -4.894  1.00  0.00    -0.062 N
ATOM     18  H12 UNL     1      20.060  37.664  -4.870  1.00  0.00     0.278 HD
ATOM     19  H11 UNL     1      21.191  38.078  -5.853  1.00  0.00     0.278 HD
BRANCH  17  20
HETATM   20  C2  UNL     1      20.552  39.620  -4.709  1.00  0.00     0.115 C
HETATM   21  C1  UNL     1      20.291  40.363  -5.997  1.00  0.00     0.045 C
HETATM   22  C3  UNL     1      21.616  40.374  -3.948  1.00  0.00     0.045 C
HETATM   23  C4  UNL     1      19.268  39.772  -3.873  1.00  0.00     0.045 C
ENDBRANCH  17  20
ENDBRANCH  16  17
ENDBRANCH   1  16
TORSDOF 7
ENDMDL