MODEL 4
REMARK VINA RESULT: -4.231965670      2.901      3.453
REMARK  0 active torsions:
REMARK  status: ('A' for Active; 'I' for Inactive)
ROOT
HETATM    1  O1  UNL     1      36.483  21.538  19.089  1.00  0.00    -0.199 OA
HETATM    2  S1  UNL     1      36.242  22.764  19.885  1.00  0.00     0.271 S
HETATM    3  O2  UNL     1      35.151  23.627  19.353  1.00  0.00    -0.199 OA
HETATM    4  C1  UNL     1      37.736  23.754  20.051  1.00  0.00     0.214 C
HETATM    5  C2  UNL     1      37.656  24.029  21.560  1.00  0.00     0.261 C
HETATM    6  F1  UNL     1      38.906  24.260  22.080  1.00  0.00    -0.242 F
HETATM    7  C3  UNL     1      37.190  22.690  22.076  1.00  0.00     0.322 C
HETATM    8  N1  UNL     1      38.223  21.736  21.856  1.00  0.00    -0.028 N
ATOM      9  H11 UNL     1      39.138  22.174  21.752  1.00  0.00     0.282 HD
ATOM     10  H12 UNL     1      38.162  21.307  20.933  1.00  0.00     0.282 HD
HETATM   11  C4  UNL     1      38.203  20.762  22.912  1.00  0.00     0.247 C
HETATM   12  C5  UNL     1      38.366  21.513  24.217  1.00  0.00     0.106 C
HETATM   13  S2  UNL     1      37.122  22.834  23.904  1.00  0.00    -0.096 SA
HETATM   14  O3  UNL     1      35.981  22.407  21.529  1.00  0.00    -0.221 OA
ENDROOT
TORSDOF 0
ENDMDL