MODEL 4
REMARK VINA RESULT: -5.377372243      3.002      5.932
REMARK  3 active torsions:
REMARK  status: ('A' for Active; 'I' for Inactive)
REMARK    1  A    between atoms: C2_2  and  O2_4
REMARK    2  A    between atoms: O2_4  and  C3_5
REMARK    3  A    between atoms: C7_12  and  O3_13
ROOT
HETATM    1  C3  UNL     1      36.555  23.308  19.937  1.00  0.00     0.300 C
HETATM    2  C4  UNL     1      37.584  22.186  20.124  1.00  0.00     0.337 C
HETATM    3  N1  UNL     1      37.080  21.591  21.351  1.00  0.00     0.130 N
HETATM    4  C5  UNL     1      38.231  21.200  22.134  1.00  0.00     0.357 C
HETATM    5  C6  UNL     1      37.788  21.488  23.562  1.00  0.00     0.299 C
HETATM    6  F1  UNL     1      38.849  21.549  24.416  1.00  0.00    -0.201 F
HETATM    7  F2  UNL     1      36.895  20.567  24.024  1.00  0.00    -0.201 F
HETATM    8  C7  UNL     1      37.137  22.861  23.359  1.00  0.00     0.251 C
HETATM    9  C8  UNL     1      36.423  22.664  22.053  1.00  0.00     0.396 C
HETATM   10  O4  UNL     1      36.455  23.784  21.236  1.00  0.00    -0.322 OA
ENDROOT
BRANCH   1  11
HETATM   11  O2  UNL     1      37.080  24.250  19.036  1.00  0.00    -0.288 OA
BRANCH  11  12
HETATM   12  C2  UNL     1      36.578  24.377  17.758  1.00  0.00     0.257 C
HETATM   13  C1  UNL     1      37.108  23.654  16.579  1.00  0.00     0.126 C
HETATM   14  O1  UNL     1      35.606  25.155  17.567  1.00  0.00    -0.266 OA
ENDBRANCH  11  12
ENDBRANCH   1  11
BRANCH   8  15
HETATM   15  O3  UNL     1      36.270  23.057  24.428  1.00  0.00    -0.385 OA
ATOM     16  H3  UNL     1      36.795  23.373  25.154  1.00  0.00     0.210 HD
ENDBRANCH   8  15
TORSDOF 3
ENDMDL