MODEL 2
REMARK VINA RESULT: -3.935526813      1.194      1.194
REMARK  1 active torsions:
REMARK  status: ('A' for Active; 'I' for Inactive)
REMARK    1  A    between atoms: C4_8  and  O3_9
ROOT
HETATM    1  O1  UNL     1      35.812  23.612  21.041  1.00  0.00    -0.217 OA
HETATM    2  S1  UNL     1      37.152  22.917  20.839  1.00  0.00     0.195 S
HETATM    3  O2  UNL     1      37.732  23.402  19.541  1.00  0.00    -0.217 OA
HETATM    4  C1  UNL     1      36.865  21.156  20.751  1.00  0.00     0.177 C
HETATM    5  C2  UNL     1      38.240  20.913  21.308  1.00  0.00     0.131 C
HETATM    6  S2  UNL     1      38.182  19.825  22.786  1.00  0.00    -0.149 SA
HETATM    7  C3  UNL     1      37.272  20.841  23.956  1.00  0.00     0.117 C
HETATM    8  C4  UNL     1      38.058  22.142  24.091  1.00  0.00     0.195 C
HETATM    9  S3  UNL     1      38.339  22.685  22.246  1.00  0.00    -0.058 SA
ENDROOT
BRANCH   8  10
HETATM   10  O3  UNL     1      37.370  23.041  24.857  1.00  0.00    -0.384 OA
ATOM     11  H3  UNL     1      37.047  22.627  25.650  1.00  0.00     0.211 HD
ENDBRANCH   8  10
TORSDOF 1
ENDMDL