MODEL 2
REMARK VINA RESULT: -4.678657042      1.025      1.121
REMARK  0 active torsions:
REMARK  status: ('A' for Active; 'I' for Inactive)
ROOT
HETATM    1  O1  UNL     1      37.121  22.819  19.389  1.00  0.00    -0.196 OA
HETATM    2  S1  UNL     1      38.101  23.560  20.310  1.00  0.00     0.310 S
HETATM    3  O2  UNL     1      37.156  24.495  21.378  1.00  0.00    -0.247 OA
HETATM    4  C1  UNL     1      37.149  23.818  22.553  1.00  0.00     0.303 C
HETATM    5 CL1  UNL     1      35.427  23.544  22.998  1.00  0.00    -0.088 Cl
HETATM    6  C2  UNL     1      37.867  22.560  22.507  1.00  0.00     0.244 C
HETATM    7  C3  UNL     1      36.960  21.336  22.327  1.00  0.00     0.241 C
HETATM    8  O3  UNL     1      37.783  20.218  22.400  1.00  0.00    -0.384 OA
HETATM    9  C4  UNL     1      38.197  20.030  23.710  1.00  0.00     0.194 C
HETATM   10  C5  UNL     1      38.099  21.342  24.452  1.00  0.00     0.198 C
HETATM   11  O4  UNL     1      38.606  22.392  23.693  1.00  0.00    -0.347 OA
HETATM   12  O5  UNL     1      38.774  22.513  21.470  1.00  0.00    -0.228 OA
ENDROOT
TORSDOF 0
ENDMDL