MODEL 3
REMARK VINA RESULT: -5.041095372      2.284      3.439
REMARK  0 active torsions:
REMARK  status: ('A' for Active; 'I' for Inactive)
ROOT
HETATM    1  O1  UNL     1      37.078  21.710  19.206  1.00  0.00    -0.194 OA
HETATM    2  S1  UNL     1      38.130  21.238  20.128  1.00  0.00     0.328 S
HETATM    3  O2  UNL     1      38.915  22.368  21.066  1.00  0.00    -0.270 OA
HETATM    4  C1  UNL     1      38.417  23.606  21.229  1.00  0.00     0.225 C
HETATM    5  C2  UNL     1      37.728  23.881  22.560  1.00  0.00     0.186 C
HETATM    6  O3  UNL     1      38.626  23.930  23.572  1.00  0.00    -0.377 OA
HETATM    7  C3  UNL     1      38.414  23.028  24.644  1.00  0.00     0.198 C
HETATM    8  C4  UNL     1      38.463  21.705  23.984  1.00  0.00     0.029 C
HETATM    9  C5  UNL     1      37.588  21.572  22.983  1.00  0.00     0.068 C
HETATM   10  N1  UNL     1      37.723  20.291  22.405  1.00  0.00    -0.251 N
ATOM     11  H1  UNL     1      37.916  19.548  23.076  1.00  0.00     0.195 HD
HETATM   12  O4  UNL     1      37.641  19.859  21.084  1.00  0.00    -0.149 OA
HETATM   13  C6  UNL     1      36.719  22.747  22.704  1.00  0.00     0.252 C
HETATM   14  F1  UNL     1      35.791  22.924  23.667  1.00  0.00    -0.240 F
ENDROOT
TORSDOF 0
ENDMDL