MODEL 3
REMARK VINA RESULT: -4.679207754      2.496      4.410
REMARK  1 active torsions:
REMARK  status: ('A' for Active; 'I' for Inactive)
REMARK    1  A    between atoms: O1_1  and  C1_3
ROOT
HETATM    1  C1  UNL     1      38.130  22.124  19.896  1.00  0.00     0.307 C
HETATM    2  O2  UNL     1      38.910  21.535  20.880  1.00  0.00    -0.317 OA
HETATM    3  C2  UNL     1      38.172  21.219  21.990  1.00  0.00     0.221 C
HETATM    4  C3  UNL     1      38.619  22.047  23.171  1.00  0.00     0.076 C
HETATM    5  C4  UNL     1      38.336  21.427  24.488  1.00  0.00     0.032 C
HETATM    6  C5  UNL     1      37.443  20.264  24.500  1.00  0.00     0.168 C
HETATM    7  O3  UNL     1      37.295  19.555  23.355  1.00  0.00    -0.386 OA
HETATM    8  C6  UNL     1      38.323  19.764  22.415  1.00  0.00     0.239 C
HETATM    9  O4  UNL     1      36.812  21.411  21.732  1.00  0.00    -0.197 OA
HETATM   10  O5  UNL     1      36.643  22.728  21.663  1.00  0.00    -0.212 OA
HETATM   11  C7  UNL     1      37.142  23.118  20.428  1.00  0.00     0.310 C
HETATM   12 CL1  UNL     1      37.785  24.777  20.454  1.00  0.00    -0.087 Cl
ENDROOT
BRANCH   1  13
HETATM   13  O1  UNL     1      38.989  22.685  18.957  1.00  0.00    -0.367 OA
ATOM     14  H1  UNL     1      39.124  22.043  18.270  1.00  0.00     0.212 HD
ENDBRANCH   1  13
TORSDOF 1
ENDMDL