MODEL 4
REMARK VINA RESULT: -4.361969887      2.229      4.684
REMARK  1 active torsions:
REMARK  status: ('A' for Active; 'I' for Inactive)
REMARK    1  A    between atoms: N1_1  and  C1_5
ROOT
HETATM    1  C1  UNL     1      38.635  20.245  19.850  1.00  0.00     0.342 C
HETATM    2  C2  UNL     1      37.727  19.835  21.008  1.00  0.00     0.228 C
HETATM    3  O1  UNL     1      38.417  19.695  22.193  1.00  0.00    -0.385 OA
HETATM    4  C3  UNL     1      37.685  20.117  23.307  1.00  0.00     0.194 C
HETATM    5  C4  UNL     1      38.452  21.211  23.989  1.00  0.00     0.193 C
HETATM    6  O2  UNL     1      37.687  22.224  24.489  1.00  0.00    -0.387 OA
HETATM    7  C5  UNL     1      36.983  22.957  23.587  1.00  0.00     0.193 C
HETATM    8  C6  UNL     1      37.840  23.818  22.680  1.00  0.00     0.193 C
HETATM    9  O3  UNL     1      38.291  23.049  21.650  1.00  0.00    -0.387 OA
HETATM   10  C7  UNL     1      38.041  23.510  20.391  1.00  0.00     0.194 C
HETATM   11  C8  UNL     1      38.675  22.517  19.410  1.00  0.00     0.196 C
HETATM   12  O4  UNL     1      39.263  21.450  20.078  1.00  0.00    -0.356 OA
ENDROOT
BRANCH   1  13
HETATM   13  N1  UNL     1      39.651  19.236  19.666  1.00  0.00    -0.051 N
ATOM     14  H13 UNL     1      39.386  18.340  20.076  1.00  0.00     0.277 HD
ATOM     15  H12 UNL     1      39.724  18.933  18.695  1.00  0.00     0.277 HD
ATOM     16  H11 UNL     1      40.537  19.582  20.033  1.00  0.00     0.277 HD
ENDBRANCH   1  13
TORSDOF 1
ENDMDL