MODEL 5
REMARK VINA RESULT: -5.359447207      2.061      2.388
REMARK  2 active torsions:
REMARK  status: ('A' for Active; 'I' for Inactive)
REMARK    1  A    between atoms: O1_1  and  C1_3
REMARK    2  A    between atoms: C9_15  and  O5_16
ROOT
HETATM    1  C1  UNL     1      34.937  23.006  20.608  1.00  0.00     0.288 C
HETATM    2  O2  UNL     1      35.200  22.724  21.943  1.00  0.00    -0.351 OA
HETATM    3  C2  UNL     1      36.465  22.599  22.336  1.00  0.00     0.159 C
HETATM    4  C3  UNL     1      37.112  24.006  22.262  1.00  0.00     0.069 C
HETATM    5  C4  UNL     1      38.495  23.500  22.171  1.00  0.00     0.160 C
HETATM    6  O3  UNL     1      38.545  22.789  20.958  1.00  0.00    -0.380 OA
HETATM    7  C5  UNL     1      38.099  23.482  19.864  1.00  0.00     0.203 C
HETATM    8  C6  UNL     1      36.976  22.976  19.076  1.00  0.00     0.179 A
HETATM    9  O4  UNL     1      36.608  21.616  19.344  1.00  0.00    -0.368 OA
HETATM   10  C7  UNL     1      35.693  22.681  19.422  1.00  0.00     0.208 A
HETATM   11  C8  UNL     1      38.468  22.518  23.360  1.00  0.00     0.230 C
HETATM   12  F1  UNL     1      39.025  23.135  24.464  1.00  0.00    -0.244 F
HETATM   13  C9  UNL     1      36.965  22.307  23.688  1.00  0.00     0.183 C
ENDROOT
BRANCH   1  14
HETATM   14  O1  UNL     1      33.824  23.664  20.462  1.00  0.00    -0.369 OA
ATOM     15  H1  UNL     1      33.734  24.018  19.585  1.00  0.00     0.212 HD
ENDBRANCH   1  14
BRANCH  13  16
HETATM   16  O5  UNL     1      36.549  23.140  24.690  1.00  0.00    -0.390 OA
ATOM     17  H5  UNL     1      36.617  22.807  25.578  1.00  0.00     0.210 HD
ENDBRANCH  13  16
TORSDOF 2
ENDMDL