MODEL 2
REMARK VINA RESULT: -4.852142846      2.905      3.783
REMARK  2 active torsions:
REMARK  status: ('A' for Active; 'I' for Inactive)
REMARK    1  A    between atoms: O1_1  and  C1_3
REMARK    2  A    between atoms: C7_13  and  C8_14
ROOT
HETATM    1  C1  UNL     1      38.198  24.067  21.622  1.00  0.00     0.268 C
HETATM    2  O2  UNL     1      38.693  24.118  22.930  1.00  0.00    -0.334 OA
HETATM    3  C2  UNL     1      37.906  23.438  23.820  1.00  0.00     0.256 C
HETATM    4  C3  UNL     1      38.193  21.945  23.819  1.00  0.00     0.170 C
HETATM    5  N1  UNL     1      37.058  21.786  22.980  1.00  0.00    -0.208 NA
HETATM    6  C4  UNL     1      37.308  21.757  21.573  1.00  0.00     0.156 C
HETATM    7  S1  UNL     1      35.756  22.164  20.738  1.00  0.00    -0.118 SA
HETATM    8  C5  UNL     1      34.704  22.983  21.920  1.00  0.00     0.065 C
HETATM    9  C6  UNL     1      35.220  23.342  23.077  1.00  0.00     0.114 C
HETATM   10  N2  UNL     1      36.592  23.059  23.328  1.00  0.00    -0.290 N
HETATM   11  C7  UNL     1      38.389  22.662  21.113  1.00  0.00     0.099 C
ENDROOT
BRANCH   1  12
HETATM   12  O1  UNL     1      39.054  24.886  20.860  1.00  0.00    -0.371 OA
ATOM     13  H1  UNL     1      39.595  25.347  21.491  1.00  0.00     0.212 HD
ENDBRANCH   1  12
BRANCH  11  14
HETATM   14  C8  UNL     1      38.484  22.694  19.626  1.00  0.00     0.234 C
HETATM   15  F1  UNL     1      39.378  21.789  19.154  1.00  0.00    -0.255 F
ENDBRANCH  11  14
TORSDOF 2
ENDMDL