MODEL 1
REMARK VINA RESULT: -5.321470544      0.000      0.000
REMARK  2 active torsions:
REMARK  status: ('A' for Active; 'I' for Inactive)
REMARK    1  A    between atoms: N1_2  and  C1_4
REMARK    2  A    between atoms: C3_6  and  O3_7
ROOT
HETATM    1  C1  UNL     1      36.418  22.975  22.714  1.00  0.00     0.114 C
HETATM    2  C2  UNL     1      36.927  23.405  23.827  1.00  0.00     0.040 C
HETATM    3  C3  UNL     1      38.040  22.740  24.499  1.00  0.00     0.164 C
HETATM    4  C4  UNL     1      38.505  21.464  23.899  1.00  0.00     0.150 C
HETATM    5 CL1  UNL     1      37.529  20.129  24.602  1.00  0.00    -0.119 Cl
HETATM    6  C5  UNL     1      38.299  21.408  22.409  1.00  0.00     0.219 C
HETATM    7  O4  UNL     1      38.589  22.535  21.689  1.00  0.00    -0.230 OA
HETATM    8  O5  UNL     1      37.605  22.182  20.855  1.00  0.00    -0.226 OA
HETATM    9  C6  UNL     1      36.912  21.767  22.012  1.00  0.00     0.249 C
ENDROOT
BRANCH   1  10
HETATM   10  N1  UNL     1      35.330  23.671  22.103  1.00  0.00    -0.117 N
HETATM   11  O1  UNL     1      34.827  24.624  22.707  1.00  0.00    -0.532 OA
HETATM   12  O2  UNL     1      34.827  23.321  20.887  1.00  0.00    -0.532 OA
ENDBRANCH   1  10
BRANCH   3  13
HETATM   13  O3  UNL     1      37.722  22.504  25.853  1.00  0.00    -0.390 OA
ATOM     14  H3  UNL     1      37.911  21.603  26.083  1.00  0.00     0.210 HD
ENDBRANCH   3  13
TORSDOF 2
ENDMDL