MODEL 1
REMARK VINA RESULT: -5.645405467      0.000      0.000
REMARK  3 active torsions:
REMARK  status: ('A' for Active; 'I' for Inactive)
REMARK    1  A    between atoms: N1_1  and  C1_4
REMARK    2  A    between atoms: N3_7  and  C2_8
REMARK    3  A    between atoms: C2_8  and  N4_9
ROOT
HETATM    1  N4  UNL     1      38.258  22.430  22.232  1.00  0.00     0.113 N
HETATM    2  C3  UNL     1      37.860  23.705  21.756  1.00  0.00     0.301 C
HETATM    3  C4  UNL     1      38.151  24.004  20.338  1.00  0.00     0.198 C
HETATM    4  O1  UNL     1      36.987  24.011  19.534  1.00  0.00    -0.387 OA
HETATM    5  C5  UNL     1      37.037  23.079  18.530  1.00  0.00     0.193 C
HETATM    6  C6  UNL     1      36.093  21.920  18.745  1.00  0.00     0.193 C
HETATM    7  O2  UNL     1      36.793  20.895  19.411  1.00  0.00    -0.387 OA
HETATM    8  C7  UNL     1      36.786  21.194  20.775  1.00  0.00     0.198 C
HETATM    9  C8  UNL     1      38.205  21.367  21.265  1.00  0.00     0.301 C
ENDROOT
BRANCH   1  10
HETATM   10  C2  UNL     1      37.413  21.984  23.354  1.00  0.00     0.449 C
BRANCH  10  11
HETATM   11  N3  UNL     1      37.981  22.414  24.618  1.00  0.00    -0.158 N
HETATM   12  N2  UNL     1      37.988  21.941  25.850  1.00  0.00    -0.240 N
HETATM   13  C1  UNL     1      38.715  22.989  26.212  1.00  0.00     0.259 A
ATOM     14  H2  UNL     1      37.601  21.122  26.319  1.00  0.00     0.193 HD
HETATM   15  O3  UNL     1      38.692  23.427  25.002  1.00  0.00    -0.180 OA
BRANCH  13  16
HETATM   16  N1  UNL     1      39.243  23.409  27.338  1.00  0.00    -0.363 N
ATOM     17  H12 UNL     1      39.871  23.005  28.032  1.00  0.00     0.159 HD
ATOM     18  H11 UNL     1      39.195  24.272  27.879  1.00  0.00     0.159 HD
ENDBRANCH  13  16
ENDBRANCH  10  11
ENDBRANCH   1  10
TORSDOF 3
ENDMDL