MODEL 2
REMARK VINA RESULT: -6.064903199      0.127      1.207
REMARK  4 active torsions:
REMARK  status: ('A' for Active; 'I' for Inactive)
REMARK    1  A    between atoms: N1_5  and  C4_6
REMARK    2  A    between atoms: C6_8  and  O2_9
REMARK    3  A    between atoms: C7_11  and  C8_12
REMARK    4  A    between atoms: C8_12  and  O3_13
ROOT
HETATM    1  C4  UNL     1      38.051  21.451  20.682  1.00  0.00     0.229 C
HETATM    2  C5  UNL     1      37.605  22.639  19.856  1.00  0.00     0.088 C
HETATM    3  C6  UNL     1      38.091  22.244  18.468  1.00  0.00     0.153 C
HETATM    4  C7  UNL     1      39.110  21.202  18.772  1.00  0.00     0.176 C
HETATM    5  O4  UNL     1      39.288  21.164  20.142  1.00  0.00    -0.356 OA
ENDROOT
BRANCH   1   6
HETATM    6  N1  UNL     1      38.163  21.800  22.088  1.00  0.00    -0.339 N
HETATM    7  C3  UNL     1      38.146  20.825  23.001  1.00  0.00     0.097 A
HETATM    8  C2  UNL     1      38.245  21.040  24.356  1.00  0.00     0.072 A
HETATM    9  C1  UNL     1      38.371  22.328  24.830  1.00  0.00     0.174 A
HETATM   10  O1  UNL     1      38.466  22.585  26.059  1.00  0.00    -0.288 OA
HETATM   11  C10 UNL     1      38.388  23.341  23.865  1.00  0.00     0.072 A
HETATM   12  C9  UNL     1      38.285  23.062  22.526  1.00  0.00     0.097 A
ENDBRANCH   1   6
BRANCH   3  13
HETATM   13  O2  UNL     1      38.594  23.356  17.814  1.00  0.00    -0.393 OA
ATOM     14  H2  UNL     1      37.981  24.079  17.889  1.00  0.00     0.210 HD
ENDBRANCH   3  13
BRANCH   4  15
HETATM   15  C8  UNL     1      40.400  21.367  18.016  1.00  0.00     0.198 C
BRANCH  15  16
HETATM   16  O3  UNL     1      41.180  22.406  18.448  1.00  0.00    -0.398 OA
ATOM     17  H3  UNL     1      40.707  23.215  18.601  1.00  0.00     0.209 HD
ENDBRANCH  15  16
ENDBRANCH   4  15
TORSDOF 4
ENDMDL