MODEL 1
REMARK VINA RESULT: -5.759676257      0.000      0.000
REMARK  5 active torsions:
REMARK  status: ('A' for Active; 'I' for Inactive)
REMARK    1  A    between atoms: C2_2  and  O1_3
REMARK    2  A    between atoms: O1_3  and  C3_4
REMARK    3  A    between atoms: C3_4  and  C4_5
REMARK    4  A    between atoms: C9_12  and  O4_13
REMARK    5  A    between atoms: C10_15  and  O5_16
ROOT
HETATM    1  C4  UNL     1      37.148  23.846  22.803  1.00  0.00     0.224 C
HETATM    2  O2  UNL     1      37.248  24.282  21.502  1.00  0.00    -0.229 OA
HETATM    3  O3  UNL     1      36.857  23.358  20.686  1.00  0.00    -0.226 OA
HETATM    4  C5  UNL     1      35.887  22.590  21.274  1.00  0.00     0.129 C
HETATM    5  C6  UNL     1      36.146  21.146  20.921  1.00  0.00     0.052 C
HETATM    6  C7  UNL     1      34.514  22.945  20.780  1.00  0.00     0.047 C
HETATM    7  C8  UNL     1      33.718  22.995  22.088  1.00  0.00     0.038 C
HETATM    8  C9  UNL     1      34.719  23.683  22.996  1.00  0.00     0.158 C
HETATM    9  C10 UNL     1      35.969  22.890  22.723  1.00  0.00     0.148 C
ENDROOT
BRANCH   1  10
HETATM   10  C3  UNL     1      38.361  23.193  23.369  1.00  0.00     0.205 C
BRANCH  10  11
HETATM   11  O1  UNL     1      38.733  23.533  24.625  1.00  0.00    -0.389 OA
BRANCH  11  12
HETATM   12  C2  UNL     1      38.510  22.670  25.647  1.00  0.00     0.163 C
HETATM   13  C1  UNL     1      39.212  23.040  26.943  1.00  0.00     0.033 C
ENDBRANCH  11  12
ENDBRANCH  10  11
ENDBRANCH   1  10
BRANCH   9  14
HETATM   14  O5  UNL     1      36.116  21.802  23.546  1.00  0.00    -0.381 OA
ATOM     15  H5  UNL     1      35.374  21.682  24.127  1.00  0.00     0.211 HD
ENDBRANCH   9  14
BRANCH   8  16
HETATM   16  O4  UNL     1      34.345  23.693  24.314  1.00  0.00    -0.392 OA
ATOM     17  H4  UNL     1      34.978  24.112  24.885  1.00  0.00     0.210 HD
ENDBRANCH   8  16
TORSDOF 5
ENDMDL