MODEL 2
REMARK VINA RESULT: -5.147302751      1.752      3.499
REMARK  4 active torsions:
REMARK  status: ('A' for Active; 'I' for Inactive)
REMARK    1  A    between atoms: O1_1  and  C1_3
REMARK    2  A    between atoms: C1_3  and  C2_4
REMARK    3  A    between atoms: C8_11  and  C9_12
REMARK    4  A    between atoms: C9_12  and  O3_13
ROOT
HETATM    1  C2  UNL     1      37.793  22.362  20.593  1.00  0.00     0.139 C
HETATM    2  C3  UNL     1      38.331  21.083  21.110  1.00  0.00     0.214 C
HETATM    3  O2  UNL     1      38.394  20.929  22.449  1.00  0.00    -0.358 OA
HETATM    4  C4  UNL     1      37.459  21.548  23.207  1.00  0.00     0.264 C
HETATM    5  C5  UNL     1      37.968  22.900  23.717  1.00  0.00     0.071 C
HETATM    6  C6  UNL     1      37.384  23.795  22.613  1.00  0.00     0.061 C
HETATM    7  C7  UNL     1      38.206  23.577  21.373  1.00  0.00     0.056 C
HETATM    8  C8  UNL     1      36.055  23.093  22.399  1.00  0.00     0.224 C
HETATM    9  O4  UNL     1      35.762  23.237  21.029  1.00  0.00    -0.197 OA
HETATM   10  O5  UNL     1      36.398  22.300  20.405  1.00  0.00    -0.222 OA
HETATM   11  O6  UNL     1      36.241  21.760  22.638  1.00  0.00    -0.320 OA
ENDROOT
BRANCH   1  12
HETATM   12  C1  UNL     1      38.354  22.543  19.175  1.00  0.00     0.207 C
BRANCH  12  13
HETATM   13  O1  UNL     1      39.725  22.339  19.159  1.00  0.00    -0.398 OA
ATOM     14  H1  UNL     1      40.062  22.377  18.272  1.00  0.00     0.209 HD
ENDBRANCH  12  13
ENDBRANCH   1  12
BRANCH   8  15
HETATM   15  C9  UNL     1      34.944  23.730  23.161  1.00  0.00     0.236 C
BRANCH  15  16
HETATM   16  O3  UNL     1      35.164  25.102  23.189  1.00  0.00    -0.395 OA
ATOM     17  H3  UNL     1      34.904  25.463  22.350  1.00  0.00     0.209 HD
ENDBRANCH  15  16
ENDBRANCH   8  15
TORSDOF 4
ENDMDL