MODEL 4
REMARK VINA RESULT: -5.017343559      1.590      3.191
REMARK  4 active torsions:
REMARK  status: ('A' for Active; 'I' for Inactive)
REMARK    1  A    between atoms: O1_1  and  C1_3
REMARK    2  A    between atoms: C1_3  and  C2_4
REMARK    3  A    between atoms: C7_12  and  C8_13
REMARK    4  A    between atoms: C8_13  and  O5_14
ROOT
HETATM    1  C2  UNL     1      35.865  22.706  21.460  1.00  0.00     0.090 C
HETATM    2  C3  UNL     1      36.514  21.335  21.561  1.00  0.00     0.078 C
HETATM    3  C4  UNL     1      37.878  21.659  22.077  1.00  0.00     0.200 C
HETATM    4  O2  UNL     1      38.797  21.780  21.008  1.00  0.00    -0.230 OA
HETATM    5  O3  UNL     1      38.078  22.099  19.963  1.00  0.00    -0.205 OA
HETATM    6  C5  UNL     1      37.542  23.359  19.998  1.00  0.00     0.321 C
HETATM    7  C6  UNL     1      38.256  24.339  20.852  1.00  0.00     0.232 C
HETATM    8  O4  UNL     1      38.591  23.959  22.097  1.00  0.00    -0.370 OA
HETATM    9  C7  UNL     1      37.821  23.023  22.715  1.00  0.00     0.114 C
HETATM   10  C9  UNL     1      36.346  23.343  22.729  1.00  0.00     0.083 C
HETATM   11  O6  UNL     1      36.189  23.385  20.323  1.00  0.00    -0.343 OA
ENDROOT
BRANCH   1  12
HETATM   12  C1  UNL     1      34.343  22.527  21.472  1.00  0.00     0.202 C
BRANCH  12  13
HETATM   13  O1  UNL     1      33.849  22.536  22.770  1.00  0.00    -0.398 OA
ATOM     14  H1  UNL     1      32.903  22.624  22.776  1.00  0.00     0.209 HD
ENDBRANCH  12  13
ENDBRANCH   1  12
BRANCH   9  15
HETATM   15  C8  UNL     1      38.333  22.853  24.137  1.00  0.00     0.205 C
BRANCH  15  16
HETATM   16  O5  UNL     1      37.252  22.809  25.021  1.00  0.00    -0.398 OA
ATOM     17  H5  UNL     1      36.441  22.746  24.530  1.00  0.00     0.209 HD
ENDBRANCH  15  16
ENDBRANCH   9  15
TORSDOF 4
ENDMDL