MODEL 2
REMARK VINA RESULT: -5.735491183      2.860      4.661
REMARK  3 active torsions:
REMARK  status: ('A' for Active; 'I' for Inactive)
REMARK    1  A    between atoms: N4_8  and  C3_9
REMARK    2  A    between atoms: C3_9  and  C4_10
REMARK    3  A    between atoms: N5_17  and  O3_18
ROOT
HETATM    1  N1  UNL     1      38.798  23.015  27.278  1.00  0.00    -0.171 NA
HETATM    2  C1  UNL     1      38.723  23.244  26.143  1.00  0.00     0.196 C
HETATM    3  N2  UNL     1      38.628  23.502  24.801  1.00  0.00    -0.123 N
ATOM      4  H2  UNL     1      38.756  24.477  24.530  1.00  0.00     0.197 HD
HETATM    5  C2  UNL     1      38.401  22.690  23.845  1.00  0.00     0.723 C
HETATM    6  N3  UNL     1      38.330  23.108  22.484  1.00  0.00    -0.149 N
ATOM      7  H3  UNL     1      38.685  24.028  22.223  1.00  0.00     0.199 HD
HETATM    8  N4  UNL     1      37.779  22.270  21.494  1.00  0.00    -0.212 NA
HETATM    9  C7  UNL     1      38.246  20.891  21.811  1.00  0.00     0.137 C
HETATM   10  C8  UNL     1      37.661  20.458  23.130  1.00  0.00     0.191 C
HETATM   11  N5  UNL     1      38.212  21.310  24.168  1.00  0.00    -0.088 N
ENDROOT
BRANCH  11  12
HETATM   12  O3  UNL     1      38.511  20.754  25.352  1.00  0.00    -0.274 OA
ATOM     13  H3  UNL     1      38.112  20.995  26.180  1.00  0.00     0.245 HD
ENDBRANCH  11  12
BRANCH   8  14
HETATM   14  C3  UNL     1      38.324  22.532  20.183  1.00  0.00     0.149 C
BRANCH  14  15
HETATM   15  C4  UNL     1      37.323  22.885  19.167  1.00  0.00     0.177 C
HETATM   16  C5  UNL     1      35.886  22.546  19.478  1.00  0.00     0.065 C
HETATM   17  C6  UNL     1      35.265  23.416  18.369  1.00  0.00     0.212 C
HETATM   18  O1  UNL     1      36.132  24.497  18.302  1.00  0.00    -0.241 OA
HETATM   19  O2  UNL     1      37.149  24.302  19.086  1.00  0.00    -0.234 OA
ENDBRANCH  14  15
ENDBRANCH   8  14
TORSDOF 3
ENDMDL