MODEL 2
REMARK VINA RESULT: -5.394220013      1.982      3.621
REMARK  4 active torsions:
REMARK  status: ('A' for Active; 'I' for Inactive)
REMARK    1  A    between atoms: C4_6  and  C5_7
REMARK    2  A    between atoms: C6_8  and  C7_9
REMARK    3  A    between atoms: C7_9  and  O3_10
REMARK    4  A    between atoms: C8_13  and  O5_14
ROOT
HETATM    1  C1  UNL     1      40.649  21.531  17.856  1.00  0.00     0.071 C
HETATM    2  C2  UNL     1      39.295  21.121  18.332  1.00  0.00     0.259 C
HETATM    3  O1  UNL     1      39.400  20.686  19.650  1.00  0.00    -0.329 OA
HETATM    4  C3  UNL     1      38.815  21.664  20.396  1.00  0.00     0.300 C
HETATM    5  O2  UNL     1      38.208  21.277  21.554  1.00  0.00    -0.325 OA
HETATM    6  C4  UNL     1      37.431  22.276  22.109  1.00  0.00     0.290 C
HETATM    7  O4  UNL     1      36.559  22.890  21.272  1.00  0.00    -0.325 OA
HETATM    8  C8  UNL     1      37.061  23.245  20.029  1.00  0.00     0.294 C
HETATM    9  C9  UNL     1      37.661  22.027  19.438  1.00  0.00     0.234 C
HETATM   10  O6  UNL     1      38.355  22.148  18.283  1.00  0.00    -0.346 OA
ENDROOT
BRANCH   6  11
HETATM   11  C5  UNL     1      38.251  23.320  22.791  1.00  0.00     0.031 C
HETATM   12  C6  UNL     1      38.499  23.254  24.092  1.00  0.00    -0.001 C
BRANCH  12  13
HETATM   13  C7  UNL     1      38.000  22.176  24.958  1.00  0.00     0.191 C
BRANCH  13  14
HETATM   14  O3  UNL     1      37.765  22.606  26.278  1.00  0.00    -0.397 OA
ATOM     15  H3  UNL     1      38.562  22.665  26.791  1.00  0.00     0.209 HD
ENDBRANCH  13  14
ENDBRANCH  12  13
ENDBRANCH   6  11
BRANCH   8  16
HETATM   16  O5  UNL     1      38.022  24.235  20.165  1.00  0.00    -0.368 OA
ATOM     17  H5  UNL     1      38.577  24.262  19.395  1.00  0.00     0.212 HD
ENDBRANCH   8  16
TORSDOF 4
ENDMDL