MODEL 3
REMARK VINA RESULT: -5.033899372      1.310      2.216
REMARK  4 active torsions:
REMARK  status: ('A' for Active; 'I' for Inactive)
REMARK    1  A    between atoms: O1_1  and  C1_3
REMARK    2  A    between atoms: C3_6  and  O3_7
REMARK    3  A    between atoms: O3_7  and  C4_8
REMARK    4  A    between atoms: C9_15  and  O6_16
ROOT
HETATM    1  C1  UNL     1      36.601  23.122  23.471  1.00  0.00     0.170 C
HETATM    2  C2  UNL     1      36.338  22.257  22.292  1.00  0.00     0.205 C
HETATM    3  O2  UNL     1      37.474  21.521  21.944  1.00  0.00    -0.359 OA
HETATM    4  C3  UNL     1      37.639  20.575  22.953  1.00  0.00     0.262 C
HETATM    5  C8  UNL     1      38.033  21.208  24.257  1.00  0.00     0.095 C
HETATM    6  C9  UNL     1      37.632  22.619  24.416  1.00  0.00     0.153 C
ENDROOT
BRANCH   4   7
HETATM    7  O3  UNL     1      38.619  19.678  22.547  1.00  0.00    -0.352 OA
BRANCH   7   8
HETATM    8  C4  UNL     1      38.079  18.633  21.834  1.00  0.00     0.172 C
HETATM    9  C5  UNL     1      38.821  18.531  20.522  1.00  0.00     0.204 C
HETATM   10  O4  UNL     1      38.437  17.291  19.972  1.00  0.00    -0.364 OA
HETATM   11  C6  UNL     1      39.047  16.313  20.704  1.00  0.00     0.337 C
HETATM   12  O5  UNL     1      38.890  16.368  22.048  1.00  0.00    -0.364 OA
HETATM   13  C7  UNL     1      38.082  17.323  22.560  1.00  0.00     0.204 C
ENDBRANCH   7   8
ENDBRANCH   4   7
BRANCH   6  14
HETATM   14  O6  UNL     1      38.767  23.464  24.385  1.00  0.00    -0.393 OA
ATOM     15  H6  UNL     1      38.911  23.845  25.243  1.00  0.00     0.210 HD
ENDBRANCH   6  14
BRANCH   1  16
HETATM   16  O1  UNL     1      35.365  23.322  24.129  1.00  0.00    -0.391 OA
ATOM     17  H1  UNL     1      35.046  24.179  23.874  1.00  0.00     0.210 HD
ENDBRANCH   1  16
TORSDOF 4
ENDMDL