MODEL 1
REMARK VINA RESULT: -5.962998671      0.000      0.000
REMARK  5 active torsions:
REMARK  status: ('A' for Active; 'I' for Inactive)
REMARK    1  A    between atoms: O1_1  and  N1_3
REMARK    2  A    between atoms: C4_7  and  C5_8
REMARK    3  A    between atoms: C7_10  and  O2_11
REMARK    4  A    between atoms: C8_14  and  C9_15
REMARK    5  A    between atoms: C9_15  and  O4_16
ROOT
HETATM    1  C5  UNL     1      37.949  21.205  22.614  1.00  0.00     0.163 C
HETATM    2  C6  UNL     1      38.484  21.298  24.051  1.00  0.00     0.097 C
HETATM    3  C7  UNL     1      38.202  22.695  24.506  1.00  0.00     0.262 C
HETATM    4  O3  UNL     1      38.373  23.670  23.595  1.00  0.00    -0.330 OA
HETATM    5  C8  UNL     1      38.389  23.380  22.276  1.00  0.00     0.287 C
HETATM    6  O5  UNL     1      38.722  22.111  21.894  1.00  0.00    -0.349 OA
ENDROOT
BRANCH   1   7
HETATM    7  C4  UNL     1      38.137  19.827  22.084  1.00  0.00    -0.011 A
HETATM    8  C3  UNL     1      38.563  19.609  20.790  1.00  0.00     0.012 A
HETATM    9  C2  UNL     1      38.715  18.305  20.365  1.00  0.00     0.020 A
HETATM   10  C1  UNL     1      38.439  17.270  21.236  1.00  0.00     0.122 A
HETATM   11  N1  UNL     1      38.023  17.510  22.493  1.00  0.00    -0.247 N
HETATM   12  C10 UNL     1      37.871  18.777  22.921  1.00  0.00     0.132 A
BRANCH  11  13
HETATM   13  O1  UNL     1      37.744  16.476  23.377  1.00  0.00    -0.284 OA
ATOM     14  H1  UNL     1      38.411  16.120  23.952  1.00  0.00     0.245 HD
ENDBRANCH  11  13
ENDBRANCH   1   7
BRANCH   3  15
HETATM   15  O2  UNL     1      36.889  22.724  25.025  1.00  0.00    -0.371 OA
ATOM     16  H2  UNL     1      36.286  22.708  24.292  1.00  0.00     0.212 HD
ENDBRANCH   3  15
BRANCH   5  17
HETATM   17  C9  UNL     1      37.104  23.776  21.549  1.00  0.00     0.224 C
BRANCH  17  18
HETATM   18  O4  UNL     1      36.146  24.208  22.497  1.00  0.00    -0.396 OA
ATOM     19  H4  UNL     1      35.601  24.882  22.107  1.00  0.00     0.209 HD
ENDBRANCH  17  18
ENDBRANCH   5  17
TORSDOF 5
ENDMDL