MODEL 5
REMARK VINA RESULT: -5.408083420      1.813      4.515
REMARK  4 active torsions:
REMARK  status: ('A' for Active; 'I' for Inactive)
REMARK    1  A    between atoms: C2_3  and  C3_4
REMARK    2  A    between atoms: C8_11  and  O3_12
REMARK    3  A    between atoms: C9_14  and  C10_15
REMARK    4  A    between atoms: C10_15  and  O4_16
ROOT
HETATM    1  N1  UNL     1      38.147  18.914  21.856  1.00  0.00    -0.191 NA
HETATM    2  C1  UNL     1      37.984  20.061  21.839  1.00  0.00     0.134 C
HETATM    3  C2  UNL     1      37.788  21.529  21.805  1.00  0.00     0.286 C
HETATM    4  O2  UNL     1      38.695  22.043  20.933  1.00  0.00    -0.337 OA
HETATM    5  C7  UNL     1      38.299  23.097  20.173  1.00  0.00     0.207 C
HETATM    6  C8  UNL     1      36.925  22.995  19.594  1.00  0.00     0.173 C
HETATM    7  C9  UNL     1      36.205  21.761  20.147  1.00  0.00     0.180 C
HETATM    8  O5  UNL     1      36.468  21.740  21.496  1.00  0.00    -0.330 OA
ENDROOT
BRANCH   3   9
HETATM    9  C3  UNL     1      38.039  21.995  23.219  1.00  0.00     0.019 C
HETATM   10  C4  UNL     1      38.384  21.257  24.266  1.00  0.00     0.011 C
HETATM   11  C5  UNL     1      38.518  22.178  25.456  1.00  0.00     0.196 C
HETATM   12  O1  UNL     1      38.781  23.395  24.817  1.00  0.00    -0.383 OA
HETATM   13  C6  UNL     1      37.939  23.393  23.709  1.00  0.00     0.208 C
ENDBRANCH   3   9
BRANCH   7  14
HETATM   14  C10 UNL     1      34.728  21.986  19.943  1.00  0.00     0.199 C
BRANCH  14  15
HETATM   15  O4  UNL     1      34.450  23.361  19.899  1.00  0.00    -0.398 OA
ATOM     16  H4  UNL     1      33.601  23.536  20.288  1.00  0.00     0.209 HD
ENDBRANCH  14  15
ENDBRANCH   7  14
BRANCH   6  17
HETATM   17  O3  UNL     1      36.885  22.906  18.224  1.00  0.00    -0.391 OA
ATOM     18  H3  UNL     1      36.018  22.771  17.860  1.00  0.00     0.210 HD
ENDBRANCH   6  17
TORSDOF 4
ENDMDL