MODEL 4
REMARK VINA RESULT: -3.988634844      1.693      2.282
REMARK  2 active torsions:
REMARK  status: ('A' for Active; 'I' for Inactive)
REMARK    1  A    between atoms: C2_2  and  O1_3
REMARK    2  A    between atoms: O1_3  and  C3_4
ROOT
HETATM    1  C3  UNL     1       0.606  18.672  23.256  1.00  0.00     0.084 A
HETATM    2  C4  UNL     1       1.735  19.216  23.675  1.00  0.00     0.043 A
HETATM    3  C5  UNL     1       2.133  17.922  24.244  1.00  0.00     0.249 A
HETATM    4  N1  UNL     1       1.303  17.328  25.239  1.00  0.00    -0.053 N
ATOM      5  H11 UNL     1       0.866  17.626  26.110  1.00  0.00     0.279 HD
ATOM      6  H12 UNL     1       1.415  16.628  25.972  1.00  0.00     0.279 HD
HETATM    7  C6  UNL     1       0.948  17.329  23.824  1.00  0.00     0.277 A
ENDROOT
BRANCH   1   8
HETATM    8  O1  UNL     1      -0.452  19.232  22.556  1.00  0.00    -0.326 OA
BRANCH   8   9
HETATM    9  C2  UNL     1      -1.471  19.938  23.194  1.00  0.00     0.132 C
HETATM   10  C1  UNL     1      -1.409  21.254  23.088  1.00  0.00     0.037 C
ENDBRANCH   8   9
ENDBRANCH   1   8
TORSDOF 2
ENDMDL