MODEL 3
REMARK VINA RESULT: -4.358514673      1.260      1.798
REMARK  1 active torsions:
REMARK  status: ('A' for Active; 'I' for Inactive)
REMARK    1  A    between atoms: C2_2  and  C3_3
ROOT
HETATM    1  C3  UNL     1       0.118  19.010  23.850  1.00  0.00     0.255 C
HETATM    2  N1  UNL     1       1.288  19.855  23.614  1.00  0.00    -0.058 N
ATOM      3  H11 UNL     1       1.471  20.684  24.178  1.00  0.00     0.278 HD
ATOM      4  H12 UNL     1       1.363  20.444  22.784  1.00  0.00     0.278 HD
HETATM    5  C4  UNL     1       2.075  18.649  23.761  1.00  0.00     0.287 C
HETATM    6  C5  UNL     1       0.897  17.908  23.227  1.00  0.00     0.040 C
HETATM    7  N2  UNL     1       0.613  16.868  22.569  1.00  0.00    -0.402 N
ATOM      8  H21 UNL     1       1.148  16.111  22.141  1.00  0.00     0.155 HD
ATOM      9  H22 UNL     1      -0.193  16.361  22.203  1.00  0.00     0.155 HD
ENDROOT
BRANCH   1  10
HETATM   10  C2  UNL     1      -1.090  19.426  23.119  1.00  0.00     0.002 C
HETATM   11  C1  UNL     1      -1.466  20.713  23.114  1.00  0.00     0.009 C
ENDBRANCH   1  10
TORSDOF 1
ENDMDL