MODEL 1
REMARK VINA RESULT: -4.243137961      0.000      0.000
REMARK  2 active torsions:
REMARK  status: ('A' for Active; 'I' for Inactive)
REMARK    1  A    between atoms: C3_3  and  N1_4
REMARK    2  A    between atoms: N1_4  and  C4_7
ROOT
HETATM    1  N1  UNL     1      -0.713  21.197  23.183  1.00  0.00    -0.043 N
ATOM      2  H11 UNL     1      -0.114  21.336  22.369  1.00  0.00     0.280 HD
ATOM      3  H12 UNL     1      -0.042  21.394  23.925  1.00  0.00     0.280 HD
ENDROOT
BRANCH   1   4
HETATM    4  C3  UNL     1      -1.165  19.833  23.255  1.00  0.00     0.189 A
HETATM    5  C1  UNL     1      -0.286  18.788  23.818  1.00  0.00     0.035 A
HETATM    6  C2  UNL     1      -0.630  18.776  22.370  1.00  0.00     0.035 A
ENDBRANCH   1   4
BRANCH   1   7
HETATM    7  C4  UNL     1      -1.782  22.155  23.197  1.00  0.00     0.345 A
HETATM    8  C5  UNL     1      -1.613  23.522  23.532  1.00  0.00     0.231 A
HETATM    9  O1  UNL     1      -1.728  23.152  22.129  1.00  0.00    -0.353 OA
ENDBRANCH   1   7
TORSDOF 2
ENDMDL