MODEL 1
REMARK VINA RESULT: -4.438517118      0.000      0.000
REMARK  1 active torsions:
REMARK  status: ('A' for Active; 'I' for Inactive)
REMARK    1  A    between atoms: C2_2  and  C3_3
ROOT
HETATM    1  C3  UNL     1       0.612  18.214  23.348  1.00  0.00     0.344 C
HETATM    2  N1  UNL     1       1.774  19.049  23.625  1.00  0.00    -0.043 N
ATOM      3  H11 UNL     1       1.588  19.956  24.054  1.00  0.00     0.280 HD
ATOM      4  H12 UNL     1       2.247  19.449  22.815  1.00  0.00     0.280 HD
HETATM    5  C4  UNL     1       2.550  18.094  24.428  1.00  0.00     0.262 C
HETATM    6  C5  UNL     1       1.450  17.291  25.107  1.00  0.00     0.198 C
HETATM    7  O1  UNL     1       0.243  17.825  24.623  1.00  0.00    -0.355 OA
ENDROOT
BRANCH   1   8
HETATM    8  C2  UNL     1      -0.445  18.915  22.612  1.00  0.00     0.023 C
HETATM    9  C1  UNL     1      -1.240  19.840  23.111  1.00  0.00     0.011 C
ENDBRANCH   1   8
TORSDOF 1
ENDMDL