MODEL 5
REMARK VINA RESULT: -3.939058784      2.868      5.005
REMARK  1 active torsions:
REMARK  status: ('A' for Active; 'I' for Inactive)
REMARK    1  A    between atoms: N1_2  and  C2_4
ROOT
HETATM    1  C2  UNL     1      -1.417  21.847  23.027  1.00  0.00     0.283 C
HETATM    2  C3  UNL     1      -2.524  21.776  24.086  1.00  0.00     0.056 C
HETATM    3  C4  UNL     1      -2.992  23.223  24.076  1.00  0.00     0.031 C
HETATM    4  C5  UNL     1      -1.809  24.004  23.511  1.00  0.00     0.235 C
HETATM    5  N2  UNL     1      -0.719  23.032  23.466  1.00  0.00    -0.054 N
ATOM      6  H21 UNL     1       0.084  23.302  22.897  1.00  0.00     0.279 HD
ATOM      7  H22 UNL     1      -0.187  22.931  24.330  1.00  0.00     0.279 HD
ENDROOT
BRANCH   1   8
HETATM    8  N1  UNL     1      -0.638  20.669  23.066  1.00  0.00    -0.382 N
HETATM    9  C1  UNL     1      -1.243  19.553  23.164  1.00  0.00     0.114 C
ATOM     10  H1  UNL     1       0.380  20.711  23.016  1.00  0.00     0.160 HD
ENDBRANCH   1   8
TORSDOF 1
ENDMDL