MODEL 4
REMARK VINA RESULT: -3.898769526      1.724      2.323
REMARK  2 active torsions:
REMARK  status: ('A' for Active; 'I' for Inactive)
REMARK    1  A    between atoms: C1_4  and  O1_5
REMARK    2  A    between atoms: O1_5  and  C2_6
ROOT
HETATM    1  O1  UNL     1      -1.411  20.907  23.507  1.00  0.00    -0.342 OA
ENDROOT
BRANCH   1   2
HETATM    2  C1  UNL     1      -1.525  22.241  23.141  1.00  0.00     0.219 C
HETATM    3  N1  UNL     1      -0.496  22.959  23.306  1.00  0.00    -0.390 N
ATOM      4  H12 UNL     1       0.363  22.564  23.689  1.00  0.00     0.157 HD
ATOM      5  H11 UNL     1      -0.580  23.939  23.037  1.00  0.00     0.157 HD
ENDBRANCH   1   2
BRANCH   1   6
HETATM    6  C2  UNL     1      -0.645  19.937  22.887  1.00  0.00     0.129 A
HETATM    7  C3  UNL     1       0.571  19.427  23.580  1.00  0.00     0.032 A
HETATM    8  C4  UNL     1       0.080  18.004  23.539  1.00  0.00     0.005 A
HETATM    9  C5  UNL     1      -1.192  18.528  22.877  1.00  0.00     0.032 A
ENDBRANCH   1   6
TORSDOF 2
ENDMDL