MODEL 1
REMARK VINA RESULT: -4.658197295      0.000      0.000
REMARK  0 active torsions:
REMARK  status: ('A' for Active; 'I' for Inactive)
ROOT
HETATM    1  C1  UNL     1      -1.363  20.192  23.158  1.00  0.00     0.097 C
HETATM    2  C2  UNL     1      -0.587  19.226  23.225  1.00  0.00    -0.181 C
HETATM    3  C3  UNL     1       0.307  18.114  23.301  1.00  0.00     0.079 C
HETATM    4  C4  UNL     1       1.747  18.637  23.181  1.00  0.00     0.045 C
HETATM    5  C5  UNL     1       2.408  18.307  24.462  1.00  0.00     0.233 C
HETATM    6  N1  UNL     1       1.686  17.159  24.999  1.00  0.00    -0.074 N
ATOM      7  H11 UNL     1       1.868  16.961  25.982  1.00  0.00     0.277 HD
ATOM      8  H12 UNL     1       2.005  16.253  24.653  1.00  0.00     0.277 HD
HETATM    9  C6  UNL     1       0.310  17.477  24.688  1.00  0.00     0.248 C
ENDROOT
TORSDOF 0
ENDMDL