MODEL 2
REMARK VINA RESULT: -4.091453286      4.272      5.531
REMARK  1 active torsions:
REMARK  status: ('A' for Active; 'I' for Inactive)
REMARK    1  A    between atoms: C2_2  and  C3_3
ROOT
HETATM    1  C3  UNL     1      -1.495  22.596  22.884  1.00  0.00     0.122 C
HETATM    2  C4  UNL     1      -2.558  23.586  23.286  1.00  0.00     0.149 C
HETATM    3  N1  UNL     1      -1.921  24.406  24.283  1.00  0.00    -0.384 N
ATOM      4  H1  UNL     1      -2.416  25.076  24.872  1.00  0.00     0.160 HD
HETATM    5  C5  UNL     1      -0.645  24.193  24.342  1.00  0.00     0.171 C
HETATM    6  N2  UNL     1      -0.299  23.210  23.392  1.00  0.00    -0.377 N
ATOM      7  H2  UNL     1       0.652  22.971  23.111  1.00  0.00     0.161 HD
ENDROOT
BRANCH   1   8
HETATM    8  C2  UNL     1      -1.711  21.293  23.570  1.00  0.00    -0.011 C
HETATM    9  C1  UNL     1      -1.238  20.149  23.128  1.00  0.00     0.009 C
ENDBRANCH   1   8
TORSDOF 1
ENDMDL