MODEL 3
REMARK VINA RESULT: -4.268128577      1.073      1.073
REMARK  2 active torsions:
REMARK  status: ('A' for Active; 'I' for Inactive)
REMARK    1  A    between atoms: C2_2  and  C3_3
REMARK    2  A    between atoms: C5_7  and  N2_8
ROOT
HETATM    1  C3  UNL     1       0.250  17.772  23.071  1.00  0.00     0.138 A
HETATM    2  N1  UNL     1       0.087  17.768  24.452  1.00  0.00    -0.390 N
ATOM      3  H1  UNL     1      -0.727  17.634  25.053  1.00  0.00     0.159 HD
HETATM    4  C4  UNL     1       1.286  17.988  24.691  1.00  0.00     0.091 A
HETATM    5  C5  UNL     1       1.656  18.030  23.303  1.00  0.00     0.247 A
ENDROOT
BRANCH   5   6
HETATM    6  N2  UNL     1       2.227  19.268  22.809  1.00  0.00    -0.068 N
ATOM      7  H23 UNL     1       3.217  19.297  23.056  1.00  0.00     0.275 HD
ATOM      8  H22 UNL     1       2.278  19.225  21.792  1.00  0.00     0.275 HD
ATOM      9  H21 UNL     1       1.793  20.150  23.082  1.00  0.00     0.275 HD
ENDBRANCH   5   6
BRANCH   1  10
HETATM   10  C2  UNL     1      -0.569  18.884  22.487  1.00  0.00    -0.010 C
HETATM   11  C1  UNL     1      -1.371  19.551  23.298  1.00  0.00     0.009 C
ENDBRANCH   1  10
TORSDOF 2
ENDMDL