MODEL 3
REMARK VINA RESULT: -4.497887794      1.320      4.278
REMARK  2 active torsions:
REMARK  status: ('A' for Active; 'I' for Inactive)
REMARK    1  A    between atoms: C2_2  and  N1_3
REMARK    2  A    between atoms: N1_3  and  C3_5
ROOT
HETATM    1  C3  UNL     1      -0.579  20.037  23.207  1.00  0.00     0.076 A
HETATM    2  N2  UNL     1       0.685  20.196  23.473  1.00  0.00    -0.380 N
ATOM      3  H2  UNL     1       1.117  21.091  23.702  1.00  0.00     0.160 HD
HETATM    4  C4  UNL     1       1.392  18.950  23.402  1.00  0.00     0.121 A
HETATM    5  C5  UNL     1       0.397  17.887  23.066  1.00  0.00     0.027 A
HETATM    6  C6  UNL     1      -0.892  18.633  22.915  1.00  0.00     0.078 A
ENDROOT
BRANCH   1   7
HETATM    7  N1  UNL     1      -1.486  21.129  23.214  1.00  0.00    -0.357 N
ATOM      8  H1  UNL     1      -2.457  20.948  23.472  1.00  0.00     0.166 HD
BRANCH   7   9
HETATM    9  C2  UNL     1      -1.117  22.458  22.883  1.00  0.00     0.079 C
HETATM   10  C1  UNL     1      -2.043  23.374  22.819  1.00  0.00     0.029 C
ENDBRANCH   7   9
ENDBRANCH   1   7
TORSDOF 2
ENDMDL