MODEL 4
REMARK VINA RESULT: -6.034552765      1.672      1.934
REMARK  5 active torsions:
REMARK  status: ('A' for Active; 'I' for Inactive)
REMARK    1  A    between atoms: C2_2  and  O1_3
REMARK    2  A    between atoms: O1_3  and  O2_4
REMARK    3  A    between atoms: C4_9  and  O3_10
REMARK    4  A    between atoms: C5_12  and  N2_13
REMARK    5  A    between atoms: N3_19  and  O7_21
ROOT
HETATM    1  C1  UNL     1     -13.447 -26.801  -6.079  1.00  0.00     0.082 C
HETATM    2  C2  UNL     1     -12.536 -27.430  -5.070  1.00  0.00     0.109 C
HETATM    3  C3  UNL     1     -11.328 -26.971  -4.973  1.00  0.00     0.099 A
HETATM    4  N1  UNL     1     -10.895 -25.886  -5.825  1.00  0.00    -0.331 N
ATOM      5  H1  UNL     1     -11.565 -25.504  -6.491  1.00  0.00     0.168 HD
HETATM    6  C4  UNL     1      -9.602 -25.321  -5.792  1.00  0.00     0.178 A
HETATM    7  C5  UNL     1      -8.688 -25.759  -4.965  1.00  0.00     0.205 A
HETATM    8  C6  UNL     1      -8.973 -26.824  -4.068  1.00  0.00     0.239 A
HETATM    9  O6  UNL     1      -8.130 -27.267  -3.267  1.00  0.00    -0.283 OA
HETATM   10  C7  UNL     1     -10.326 -27.490  -4.030  1.00  0.00     0.136 A
HETATM   11  N3  UNL     1     -10.497 -28.396  -3.235  1.00  0.00    -0.263 N
ATOM     12  H3  UNL     1      -9.596 -28.471  -2.763  1.00  0.00     0.194 HD
ENDROOT
BRANCH   2  13
HETATM   13  O1  UNL     1     -13.064 -28.436  -4.338  1.00  0.00    -0.203 OA
BRANCH  13  14
HETATM   14  O2  UNL     1     -13.686 -28.236  -3.148  1.00  0.00    -0.245 OA
ATOM     15  H2  UNL     1     -14.114 -28.933  -2.665  1.00  0.00     0.254 HD
ENDBRANCH  13  14
ENDBRANCH   2  13
BRANCH   6  16
HETATM   16  O3  UNL     1      -9.299 -24.281  -6.656  1.00  0.00    -0.344 OA
ATOM     17  H3  UNL     1      -9.483 -24.383  -7.583  1.00  0.00     0.219 HD
ENDBRANCH   6  16
BRANCH  11  18
HETATM   18  O7  UNL     1     -11.195 -29.296  -2.681  1.00  0.00    -0.289 OA
ATOM     19  H7  UNL     1     -11.553 -29.745  -1.924  1.00  0.00     0.244 HD
ENDBRANCH  11  18
BRANCH   7  20
HETATM   20  N2  UNL     1      -7.394 -25.169  -4.957  1.00  0.00    -0.107 N
HETATM   21  O4  UNL     1      -6.454 -25.610  -5.653  1.00  0.00    -0.531 OA
HETATM   22  O5  UNL     1      -7.156 -24.075  -4.159  1.00  0.00    -0.531 OA
ENDBRANCH   7  20
TORSDOF 5
ENDMDL