MODEL 4
REMARK VINA RESULT: -6.051776016      2.362      3.745
REMARK  6 active torsions:
REMARK  status: ('A' for Active; 'I' for Inactive)
REMARK    1  A    between atoms: C2_2  and  O1_3
REMARK    2  A    between atoms: O1_3  and  C3_4
REMARK    3  A    between atoms: C3_4  and  C4_5
REMARK    4  A    between atoms: C5_6  and  C6_7
REMARK    5  A    between atoms: C6_7  and  O2_8
REMARK    6  A    between atoms: N3_19  and  O5_21
ROOT
HETATM    1  C6  UNL     1      -8.984 -24.986  -3.963  1.00  0.00     0.271 C
HETATM    2  C7  UNL     1      -7.858 -25.761  -3.397  1.00  0.00     0.222 C
HETATM    3  O3  UNL     1      -8.049 -26.451  -2.372  1.00  0.00    -0.287 OA
HETATM    4  C8  UNL     1      -6.533 -25.749  -3.992  1.00  0.00     0.162 C
HETATM    5  N1  UNL     1      -6.382 -25.316  -5.205  1.00  0.00    -0.305 N
ATOM      6  H1  UNL     1      -5.450 -25.310  -5.617  1.00  0.00     0.186 HD
HETATM    7  N2  UNL     1      -7.458 -24.860  -5.962  1.00  0.00    -0.266 N
ATOM      8  H2  UNL     1      -7.303 -24.527  -6.914  1.00  0.00     0.190 HD
HETATM    9  C9  UNL     1      -8.752 -24.855  -5.425  1.00  0.00     0.291 C
HETATM   10  O4  UNL     1      -9.767 -24.734  -6.193  1.00  0.00    -0.267 OA
ENDROOT
BRANCH   1  11
HETATM   11  C5  UNL     1     -10.232 -25.763  -3.813  1.00  0.00    -0.041 C
HETATM   12  C4  UNL     1     -11.266 -26.382  -3.697  1.00  0.00    -0.017 C
BRANCH  12  13
HETATM   13  C3  UNL     1     -12.503 -27.104  -3.578  1.00  0.00     0.219 C
HETATM   14  N3  UNL     1     -12.500 -28.335  -3.195  1.00  0.00    -0.240 N
ATOM     15  H3  UNL     1     -13.394 -28.821  -3.120  1.00  0.00     0.197 HD
BRANCH  13  16
HETATM   16  O1  UNL     1     -13.740 -26.540  -3.858  1.00  0.00    -0.328 OA
BRANCH  16  17
HETATM   17  C2  UNL     1     -14.184 -25.350  -3.186  1.00  0.00     0.173 C
HETATM   18  C1  UNL     1     -15.431 -25.686  -2.428  1.00  0.00     0.034 C
ENDBRANCH  16  17
ENDBRANCH  13  16
BRANCH  14  19
HETATM   19  O5  UNL     1     -11.354 -29.029  -2.881  1.00  0.00    -0.287 OA
ATOM     20  H5  UNL     1     -11.299 -29.977  -2.882  1.00  0.00     0.244 HD
ENDBRANCH  14  19
ENDBRANCH  12  13
ENDBRANCH   1  11
BRANCH   1  21
HETATM   21  O2  UNL     1      -9.089 -23.745  -3.341  1.00  0.00    -0.363 OA
ATOM     22  H2  UNL     1      -8.251 -23.300  -3.326  1.00  0.00     0.212 HD
ENDBRANCH   1  21
TORSDOF 6
ENDMDL