MODEL 5
REMARK VINA RESULT: -5.975414426      2.844      4.108
REMARK  2 active torsions:
REMARK  status: ('A' for Active; 'I' for Inactive)
REMARK    1  A    between atoms: N2_13  and  N3_15
REMARK    2  A    between atoms: C8_18  and  N4_19
ROOT
HETATM    1  C1  UNL     1      -9.034 -23.533  -3.040  1.00  0.00     0.042 C
HETATM    2  C2  UNL     1      -8.716 -24.800  -3.794  1.00  0.00     0.158 C
HETATM    3  O1  UNL     1      -7.435 -25.225  -3.463  1.00  0.00    -0.320 OA
HETATM    4  C3  UNL     1      -7.406 -26.590  -3.493  1.00  0.00     0.389 C
HETATM    5  N1  UNL     1      -6.305 -27.221  -4.168  1.00  0.00     0.021 N
ATOM      6  H11 UNL     1      -5.794 -26.776  -4.930  1.00  0.00     0.288 HD
ATOM      7  H12 UNL     1      -6.421 -28.017  -4.794  1.00  0.00     0.288 HD
HETATM    8  C4  UNL     1      -5.765 -27.345  -2.814  1.00  0.00     0.230 C
HETATM    9  C5  UNL     1      -4.902 -26.184  -2.388  1.00  0.00     0.078 C
HETATM   10  C6  UNL     1      -5.097 -28.651  -2.516  1.00  0.00     0.078 C
HETATM   11  O2  UNL     1      -7.042 -27.197  -2.268  1.00  0.00    -0.289 OA
HETATM   12  C7  UNL     1      -8.757 -27.070  -3.856  1.00  0.00     0.127 C
HETATM   13  N2  UNL     1      -9.145 -28.141  -4.416  1.00  0.00    -0.306 N
ATOM     14  H2  UNL     1     -10.150 -28.243  -4.561  1.00  0.00     0.186 HD
HETATM   15  C8  UNL     1      -9.608 -25.948  -3.387  1.00  0.00     0.238 C
ENDROOT
BRANCH  13  16
HETATM   16  N3  UNL     1      -8.353 -29.176  -4.848  1.00  0.00    -0.345 N
ATOM     17  H32 UNL     1      -8.801 -30.093  -4.871  1.00  0.00     0.176 HD
ATOM     18  H31 UNL     1      -7.379 -29.117  -5.143  1.00  0.00     0.176 HD
ENDBRANCH  13  16
BRANCH  15  19
HETATM   19  N4  UNL     1     -10.895 -25.937  -3.949  1.00  0.00    -0.142 N
HETATM   20  O3  UNL     1     -11.897 -25.962  -3.232  1.00  0.00    -0.536 OA
HETATM   21  O4  UNL     1     -11.077 -25.898  -5.294  1.00  0.00    -0.536 OA
ENDBRANCH  15  19
TORSDOF 2
ENDMDL