MODEL 4
REMARK VINA RESULT: -5.799421633      3.048      5.271
REMARK  2 active torsions:
REMARK  status: ('A' for Active; 'I' for Inactive)
REMARK       I    between atoms: C2_2  and  N1_4
REMARK    1  A    between atoms: N1_4  and  N2_6
REMARK    2  A    between atoms: N5_15  and  N6_16
ROOT
HETATM    1  N2  UNL     1      -6.160 -26.877  -3.038  1.00  0.00    -0.287 N
ATOM      2  H2  UNL     1      -5.298 -26.935  -3.580  1.00  0.00     0.188 HD
HETATM    3  C3  UNL     1      -7.325 -26.689  -3.602  1.00  0.00     0.161 A
HETATM    4  S1  UNL     1      -8.799 -26.582  -2.754  1.00  0.00    -0.051 SA
HETATM    5  C4  UNL     1     -10.128 -26.334  -3.785  1.00  0.00     0.130 A
HETATM    6  C5  UNL     1     -11.502 -26.208  -3.319  1.00  0.00     0.110 C
HETATM    7  N3  UNL     1     -12.586 -26.109  -2.928  1.00  0.00    -0.191 NA
HETATM    8  C6  UNL     1      -9.821 -26.259  -5.123  1.00  0.00     0.168 A
HETATM    9  N4  UNL     1     -10.928 -26.049  -6.029  1.00  0.00    -0.078 NA
HETATM   10  N5  UNL     1      -8.593 -26.365  -5.634  1.00  0.00    -0.208 N
HETATM   11  C7  UNL     1      -7.454 -26.559  -4.971  1.00  0.00     0.302 A
HETATM   12  O2  UNL     1      -6.340 -26.640  -5.606  1.00  0.00    -0.263 OA
ENDROOT
BRANCH  10  13
HETATM   13  N6  UNL     1      -8.444 -26.263  -7.051  1.00  0.00    -0.334 N
ATOM     14  H62 UNL     1      -7.495 -26.057  -7.362  1.00  0.00     0.177 HD
ATOM     15  H61 UNL     1      -9.271 -26.399  -7.631  1.00  0.00     0.177 HD
ENDBRANCH  10  13
BRANCH   1  16
HETATM   16  N1  UNL     1      -6.171 -26.994  -1.638  1.00  0.00    -0.269 N
HETATM   17  C2  UNL     1      -5.468 -28.044  -1.002  1.00  0.00     0.232 C
HETATM   18  C1  UNL     1      -5.497 -28.141   0.472  1.00  0.00     0.119 C
HETATM   19  O1  UNL     1      -4.810 -28.909  -1.635  1.00  0.00    -0.272 OA
ATOM     20  H1  UNL     1      -6.690 -26.318  -1.077  1.00  0.00     0.190 HD
ENDBRANCH   1  16
TORSDOF 2
ENDMDL