MODEL 4
REMARK VINA RESULT: -5.276602150      1.716      4.146
REMARK  4 active torsions:
REMARK  status: ('A' for Active; 'I' for Inactive)
REMARK    1  A    between atoms: C2_2  and  O1_6
REMARK    2  A    between atoms: O1_6  and  C3_7
REMARK    3  A    between atoms: C4_8  and  C5_9
REMARK    4  A    between atoms: N2_14  and  O5_15
ROOT
HETATM    1  C3  UNL     1      -4.825 -28.818  -2.761  1.00  0.00     0.178 A
HETATM    2  C4  UNL     1      -3.453 -28.971  -2.748  1.00  0.00     0.162 A
HETATM    3  C6  UNL     1      -2.765 -28.841  -3.964  1.00  0.00     0.297 A
HETATM    4  O4  UNL     1      -1.510 -28.985  -3.932  1.00  0.00    -0.264 OA
HETATM    5  N2  UNL     1      -3.463 -28.580  -5.054  1.00  0.00    -0.133 N
HETATM    6  C7  UNL     1      -4.808 -28.437  -5.018  1.00  0.00     0.357 A
HETATM    7  O6  UNL     1      -5.403 -28.187  -6.113  1.00  0.00    -0.244 OA
HETATM    8  N3  UNL     1      -5.505 -28.553  -3.885  1.00  0.00    -0.281 N
HETATM    9  C8  UNL     1      -6.932 -28.407  -3.818  1.00  0.00     0.163 C
ENDROOT
BRANCH   1  10
HETATM   10  O1  UNL     1      -5.566 -28.937  -1.597  1.00  0.00    -0.280 OA
BRANCH  10  11
HETATM   11  C2  UNL     1      -5.435 -27.885  -0.674  1.00  0.00     0.115 C
HETATM   12  C1  UNL     1      -5.582 -28.146   0.803  1.00  0.00     0.097 C
HETATM   13  N1  UNL     1      -5.190 -26.696  -1.103  1.00  0.00    -0.383 N
ATOM     14  H12 UNL     1      -5.094 -25.933  -0.433  1.00  0.00     0.157 HD
ATOM     15  H11 UNL     1      -5.090 -26.519  -2.103  1.00  0.00     0.157 HD
ENDBRANCH  10  11
ENDBRANCH   1  10
BRANCH   2  16
HETATM   16  C5  UNL     1      -2.734 -29.236  -1.521  1.00  0.00     0.219 C
HETATM   17  O2  UNL     1      -2.470 -30.416  -1.197  1.00  0.00    -0.644 OA
HETATM   18  O3  UNL     1      -2.342 -28.196  -0.719  1.00  0.00    -0.644 OA
ENDBRANCH   2  16
BRANCH   5  19
HETATM   19  O5  UNL     1      -2.777 -28.455  -6.240  1.00  0.00    -0.276 OA
ATOM     20  H5  UNL     1      -3.172 -27.930  -6.926  1.00  0.00     0.245 HD
ENDBRANCH   5  19
TORSDOF 4
ENDMDL