MODEL 2
REMARK VINA RESULT: -6.813940349      2.069      2.333
REMARK  3 active torsions:
REMARK  status: ('A' for Active; 'I' for Inactive)
REMARK    1  A    between atoms: N1_1  and  N2_4
REMARK    2  A    between atoms: N2_4  and  C1_6
REMARK    3  A    between atoms: C4_14  and  N5_15
ROOT
HETATM    1  C1  UNL     1     -14.740 -27.746  -1.372  1.00  0.00     0.700 A
HETATM    2  N3  UNL     1     -14.955 -26.487  -1.756  1.00  0.00    -0.153 N
ATOM      3  H3  UNL     1     -15.787 -26.026  -1.389  1.00  0.00     0.187 HD
HETATM    4  C2  UNL     1     -14.187 -25.784  -2.568  1.00  0.00     0.289 A
HETATM    5  O1  UNL     1     -14.515 -24.599  -2.844  1.00  0.00    -0.265 OA
HETATM    6  C3  UNL     1     -13.029 -26.375  -3.101  1.00  0.00     0.138 A
HETATM    7  N4  UNL     1     -12.174 -25.813  -3.913  1.00  0.00    -0.325 N
ATOM      8  H4  UNL     1     -12.318 -24.852  -4.221  1.00  0.00     0.168 HD
HETATM    9  C4  UNL     1     -11.122 -26.492  -4.335  1.00  0.00     0.218 A
HETATM   10  S1  UNL     1     -11.330 -27.999  -3.563  1.00  0.00    -0.027 SA
HETATM   11  C5  UNL     1     -12.798 -27.663  -2.716  1.00  0.00     0.126 A
HETATM   12  N6  UNL     1     -13.628 -28.341  -1.871  1.00  0.00    -0.181 N
ATOM     13  H6  UNL     1     -13.410 -29.304  -1.612  1.00  0.00     0.185 HD
ENDROOT
BRANCH   1  14
HETATM   14  N2  UNL     1     -15.500 -28.411  -0.582  1.00  0.00    -0.138 N
ATOM     15  H2  UNL     1     -16.497 -28.203  -0.558  1.00  0.00     0.205 HD
BRANCH  14  16
HETATM   16  N1  UNL     1     -14.995 -29.405   0.239  1.00  0.00    -0.331 N
ATOM     17  H12 UNL     1     -14.908 -29.210   1.237  1.00  0.00     0.177 HD
ATOM     18  H11 UNL     1     -14.714 -30.312  -0.134  1.00  0.00     0.177 HD
ENDBRANCH  14  16
ENDBRANCH   1  14
BRANCH   9  19
HETATM   19  N5  UNL     1     -10.071 -26.081  -5.215  1.00  0.00    -0.090 N
HETATM   20  O2  UNL     1     -10.294 -25.411  -6.227  1.00  0.00    -0.530 OA
HETATM   21  O3  UNL     1      -8.801 -26.445  -4.919  1.00  0.00    -0.530 OA
ENDBRANCH   9  19
TORSDOF 3
ENDMDL