MODEL 5
REMARK VINA RESULT: -6.999489929      1.403      2.214
REMARK  1 active torsions:
REMARK  status: ('A' for Active; 'I' for Inactive)
REMARK    1  A    between atoms: C6_10  and  C7_11
ROOT
HETATM    1  C1  UNL     1      -7.575 -27.399  -5.855  1.00  0.00     0.070 C
HETATM    2  C2  UNL     1      -8.920 -27.336  -5.182  1.00  0.00     0.031 A
HETATM    3  C3  UNL     1      -9.750 -26.310  -5.281  1.00  0.00     0.120 A
HETATM    4  C4  UNL     1      -9.496 -25.120  -6.036  1.00  0.00     0.103 C
HETATM    5  N1  UNL     1      -9.285 -24.142  -6.631  1.00  0.00    -0.191 NA
HETATM    6  C5  UNL     1     -10.990 -26.547  -4.507  1.00  0.00     0.332 A
HETATM    7  O1  UNL     1     -12.105 -26.464  -5.348  1.00  0.00    -0.220 OA
HETATM    8  N2  UNL     1     -13.357 -26.550  -4.791  1.00  0.00    -0.239 N
ATOM      9  H2  UNL     1     -14.143 -26.952  -5.302  1.00  0.00     0.196 HD
HETATM   10  C6  UNL     1     -13.492 -26.097  -3.591  1.00  0.00     0.223 C
HETATM   11  N3  UNL     1     -12.337 -25.561  -2.973  1.00  0.00    -0.239 N
ATOM     12  H3  UNL     1     -12.437 -25.162  -2.039  1.00  0.00     0.196 HD
HETATM   13  O4  UNL     1     -11.122 -25.543  -3.531  1.00  0.00    -0.220 OA
HETATM   14  C8  UNL     1     -10.786 -27.879  -3.919  1.00  0.00     0.295 A
HETATM   15  O5  UNL     1     -11.596 -28.514  -3.162  1.00  0.00    -0.266 OA
HETATM   16  N4  UNL     1      -9.510 -28.328  -4.354  1.00  0.00    -0.325 N
ATOM     17  H4  UNL     1      -9.085 -29.223  -4.110  1.00  0.00     0.169 HD
ENDROOT
BRANCH  10  18
HETATM   18  C7  UNL     1     -14.768 -26.135  -2.901  1.00  0.00     0.248 C
HETATM   19  O2  UNL     1     -15.502 -27.149  -2.949  1.00  0.00    -0.642 OA
HETATM   20  O3  UNL     1     -15.199 -25.042  -2.173  1.00  0.00    -0.642 OA
ENDBRANCH  10  18
TORSDOF 1
ENDMDL