MODEL 3
REMARK VINA RESULT: -6.300067875      4.845      8.020
REMARK  3 active torsions:
REMARK  status: ('A' for Active; 'I' for Inactive)
REMARK    1  A    between atoms: C2_2  and  O1_3
REMARK    2  A    between atoms: C2_2  and  N1_5
REMARK    3  A    between atoms: C3_6  and  N2_7
ROOT
HETATM    1  N1  UNL     1      -9.871 -26.367  -4.599  1.00  0.00     0.013 N
HETATM    2  C3  UNL     1      -9.819 -25.840  -3.358  1.00  0.00     0.699 A
HETATM    3  N3  UNL     1     -10.876 -25.841  -2.527  1.00  0.00    -0.140 N
ATOM      4  H3  UNL     1     -10.795 -25.433  -1.595  1.00  0.00     0.189 HD
HETATM    5  C4  UNL     1     -12.028 -26.375  -2.922  1.00  0.00     0.360 A
HETATM    6  O2  UNL     1     -13.010 -26.372  -2.140  1.00  0.00    -0.245 OA
HETATM    7  N4  UNL     1     -12.122 -26.905  -4.139  1.00  0.00    -0.082 N
HETATM    8  C5  UNL     1     -13.160 -27.493  -4.753  1.00  0.00     0.180 A
HETATM    9  C6  UNL     1     -14.457 -27.679  -4.186  1.00  0.00     0.122 C
HETATM   10  N5  UNL     1     -15.502 -27.833  -3.710  1.00  0.00    -0.190 NA
HETATM   11  C7  UNL     1     -12.740 -27.874  -6.013  1.00  0.00     0.168 A
HETATM   12  C8  UNL     1     -13.562 -28.544  -6.999  1.00  0.00     0.121 C
HETATM   13  N6  UNL     1     -14.227 -29.093  -7.777  1.00  0.00    -0.190 NA
HETATM   14  N7  UNL     1     -11.456 -27.497  -6.107  1.00  0.00    -0.177 N
ATOM     15  H7  UNL     1     -10.864 -27.640  -6.926  1.00  0.00     0.185 HD
HETATM   16  C9  UNL     1     -11.056 -26.897  -4.958  1.00  0.00     0.714 A
ENDROOT
BRANCH   1  17
HETATM   17  C2  UNL     1      -8.738 -26.368  -5.495  1.00  0.00     0.257 C
HETATM   18  C1  UNL     1      -8.808 -25.274  -6.525  1.00  0.00     0.064 C
BRANCH  17  19
HETATM   19  O1  UNL     1      -8.576 -27.621  -6.092  1.00  0.00    -0.375 OA
ATOM     20  H1  UNL     1      -9.061 -27.682  -6.908  1.00  0.00     0.212 HD
ENDBRANCH  17  19
ENDBRANCH   1  17
BRANCH   2  21
HETATM   21  N2  UNL     1      -8.705 -25.321  -2.970  1.00  0.00    -0.234 N
ATOM     22  H22 UNL     1      -7.839 -25.850  -3.075  1.00  0.00     0.174 HD
ATOM     23  H21 UNL     1      -8.730 -24.384  -2.567  1.00  0.00     0.174 HD
ENDBRANCH   2  21
TORSDOF 3
ENDMDL