MODEL 4
REMARK VINA RESULT: -5.154723082      3.151      3.712
REMARK  3 active torsions:
REMARK  status: ('A' for Active; 'I' for Inactive)
REMARK    1  A    between atoms: N1_2  and  C3_4
REMARK    2  A    between atoms: C4_7  and  N3_8
REMARK    3  A    between atoms: C9_17  and  N6_18
ROOT
HETATM    1  C3  UNL     1     -10.815 -26.151  -3.944  1.00  0.00     0.684 A
HETATM    2  N2  UNL     1     -10.226 -25.399  -2.994  1.00  0.00    -0.174 N
ATOM      3  H2  UNL     1     -10.729 -25.234  -2.122  1.00  0.00     0.186 HD
HETATM    4  C4  UNL     1      -9.015 -24.858  -3.144  1.00  0.00     0.146 A
HETATM    5  C5  UNL     1      -8.374 -25.115  -4.352  1.00  0.00     0.140 A
HETATM    6  C6  UNL     1      -8.984 -25.900  -5.342  1.00  0.00     0.172 A
HETATM    7  N4  UNL     1     -10.192 -26.410  -5.137  1.00  0.00    -0.169 N
HETATM    8  C7  UNL     1     -10.846 -27.219  -6.117  1.00  0.00     0.177 C
HETATM    9  N5  UNL     1      -8.159 -25.996  -6.411  1.00  0.00    -0.170 N
HETATM   10  C8  UNL     1      -8.378 -26.695  -7.641  1.00  0.00     0.177 C
HETATM   11  C9  UNL     1      -7.058 -25.278  -6.074  1.00  0.00     0.681 A
HETATM   12  N7  UNL     1      -7.190 -24.762  -4.860  1.00  0.00    -0.180 N
HETATM   13  C10 UNL     1      -6.243 -23.936  -4.137  1.00  0.00     0.176 C
ENDROOT
BRANCH   1  14
HETATM   14  N1  UNL     1     -12.101 -26.680  -3.693  1.00  0.00    -0.226 N
HETATM   15  C1  UNL     1     -12.268 -28.074  -3.417  1.00  0.00     0.168 C
HETATM   16  C2  UNL     1     -13.249 -25.826  -3.708  1.00  0.00     0.168 C
ENDBRANCH   1  14
BRANCH   4  17
HETATM   17  N3  UNL     1      -8.392 -24.134  -2.291  1.00  0.00    -0.383 N
ATOM     18  H32 UNL     1      -8.914 -23.378  -1.849  1.00  0.00     0.157 HD
ATOM     19  H31 UNL     1      -7.419 -24.235  -2.003  1.00  0.00     0.157 HD
ENDBRANCH   4  17
BRANCH  11  20
HETATM   20  N6  UNL     1      -6.044 -25.159  -6.895  1.00  0.00    -0.234 N
ATOM     21  H62 UNL     1      -5.056 -25.316  -6.700  1.00  0.00     0.174 HD
ATOM     22  H61 UNL     1      -6.180 -24.879  -7.867  1.00  0.00     0.174 HD
ENDBRANCH  11  20
TORSDOF 3
ENDMDL