MODEL 4
REMARK VINA RESULT: -5.525643949      2.064      2.582
REMARK  2 active torsions:
REMARK  status: ('A' for Active; 'I' for Inactive)
REMARK    1  A    between atoms: N3_11  and  O3_12
REMARK    2  A    between atoms: N4_17  and  O4_18
ROOT
HETATM    1  C1  UNL     1      -6.960 -26.803  -2.418  1.00  0.00     0.163 C
HETATM    2  N1  UNL     1      -5.612 -26.400  -2.781  1.00  0.00    -0.286 N
HETATM    3  C2  UNL     1      -4.572 -27.227  -2.579  1.00  0.00     0.171 A
HETATM    4  C3  UNL     1      -3.275 -26.838  -2.929  1.00  0.00     0.174 A
HETATM    5  C4  UNL     1      -3.124 -25.570  -3.488  1.00  0.00     0.282 A
HETATM    6  O1  UNL     1      -1.945 -25.233  -3.800  1.00  0.00    -0.265 OA
HETATM    7  N2  UNL     1      -4.174 -24.764  -3.680  1.00  0.00    -0.273 N
ATOM      8  H2  UNL     1      -4.048 -23.839  -4.091  1.00  0.00     0.173 HD
HETATM    9  C5  UNL     1      -5.395 -25.191  -3.325  1.00  0.00     0.330 A
HETATM   10  O2  UNL     1      -6.405 -24.440  -3.499  1.00  0.00    -0.246 OA
HETATM   11  N3  UNL     1      -2.382 -27.898  -2.607  1.00  0.00    -0.220 N
HETATM   12  C6  UNL     1      -3.205 -29.081  -2.521  1.00  0.00     0.152 C
HETATM   13  C7  UNL     1      -3.412 -29.630  -3.922  1.00  0.00     0.067 C
HETATM   14  C8  UNL     1      -2.634 -30.121  -1.595  1.00  0.00     0.067 C
HETATM   15  N4  UNL     1      -4.457 -28.537  -2.040  1.00  0.00    -0.210 N
ENDROOT
BRANCH  11  16
HETATM   16  O3  UNL     1      -1.052 -27.743  -2.434  1.00  0.00    -0.284 OA
ATOM     17  H3  UNL     1      -0.440 -27.551  -3.135  1.00  0.00     0.245 HD
ENDBRANCH  11  16
BRANCH  15  18
HETATM   18  O4  UNL     1      -5.386 -29.095  -1.238  1.00  0.00    -0.283 OA
ATOM     19  H4  UNL     1      -6.161 -29.537  -1.563  1.00  0.00     0.245 HD
ENDBRANCH  15  18
TORSDOF 2
ENDMDL