MODEL 5
REMARK VINA RESULT: -5.379881493      1.841      2.432
REMARK  3 active torsions:
REMARK  status: ('A' for Active; 'I' for Inactive)
REMARK    1  A    between atoms: N1_1  and  C1_5
REMARK    2  A    between atoms: C7_11  and  N2_12
REMARK    3  A    between atoms: C8_16  and  O1_17
ROOT
HETATM    1  C1  UNL     1      -8.067  13.847 -34.812  1.00  0.00     0.190 C
HETATM    2  C2  UNL     1      -9.317  14.086 -33.978  1.00  0.00     0.040 C
HETATM    3  C3  UNL     1      -9.945  12.706 -33.740  1.00  0.00     0.018 C
HETATM    4  C4  UNL     1      -9.063  12.011 -32.713  1.00  0.00     0.008 C
HETATM    5  C5  UNL     1      -7.587  12.245 -33.027  1.00  0.00     0.009 C
HETATM    6  C6  UNL     1      -7.525  12.459 -34.543  1.00  0.00     0.049 C
HETATM    7  C7  UNL     1      -8.452  11.414 -35.135  1.00  0.00     0.218 C
HETATM    8  C8  UNL     1      -9.849  11.997 -35.098  1.00  0.00     0.153 C
ENDROOT
BRANCH   1   9
HETATM    9  N1  UNL     1      -7.088  14.859 -34.544  1.00  0.00    -0.075 N
ATOM     10  H13 UNL     1      -6.324  14.837 -35.219  1.00  0.00     0.274 HD
ATOM     11  H12 UNL     1      -7.443  15.793 -34.747  1.00  0.00     0.274 HD
ATOM     12  H11 UNL     1      -6.750  14.780 -33.585  1.00  0.00     0.274 HD
ENDBRANCH   1   9
BRANCH   7  13
HETATM   13  N2  UNL     1      -8.035  10.992 -36.425  1.00  0.00    -0.072 N
ATOM     14  H23 UNL     1      -8.649  11.362 -37.150  1.00  0.00     0.274 HD
ATOM     15  H22 UNL     1      -7.165  11.450 -36.699  1.00  0.00     0.274 HD
ATOM     16  H21 UNL     1      -7.953   9.977 -36.493  1.00  0.00     0.274 HD
ENDBRANCH   7  13
BRANCH   8  17
HETATM   17  O1  UNL     1     -10.838  11.052 -35.257  1.00  0.00    -0.393 OA
ATOM     18  H1  UNL     1     -11.669  11.345 -34.902  1.00  0.00     0.210 HD
ENDBRANCH   8  17
TORSDOF 3
ENDMDL