MODEL 4
REMARK VINA RESULT: -5.200311881      1.737      2.769
REMARK  3 active torsions:
REMARK  status: ('A' for Active; 'I' for Inactive)
REMARK    1  A    between atoms: C5_5  and  O1_6
REMARK    2  A    between atoms: C6_8  and  O2_9
REMARK    3  A    between atoms: C7_11  and  O3_12
ROOT
HETATM    1  C1  UNL     1      -7.088  14.586 -36.142  1.00  0.00     0.012 C
HETATM    2  C2  UNL     1      -7.924  13.458 -35.527  1.00  0.00     0.013 C
HETATM    3  C3  UNL     1      -7.466  13.266 -34.133  1.00  0.00     0.009 C
HETATM    4  C4  UNL     1      -7.844  11.992 -33.481  1.00  0.00     0.035 C
HETATM    5  C5  UNL     1      -8.315  10.925 -34.476  1.00  0.00     0.149 C
HETATM    6  C6  UNL     1      -7.323  11.060 -35.639  1.00  0.00     0.175 C
HETATM    7  C7  UNL     1      -7.853  12.273 -36.411  1.00  0.00     0.153 C
ENDROOT
BRANCH   5   8
HETATM    8  O1  UNL     1      -9.593  11.329 -34.858  1.00  0.00    -0.393 OA
ATOM      9  H1  UNL     1      -9.487  11.675 -35.736  1.00  0.00     0.210 HD
ENDBRANCH   5   8
BRANCH   6  10
HETATM   10  O2  UNL     1      -7.264   9.930 -36.411  1.00  0.00    -0.390 OA
ATOM     11  H2  UNL     1      -6.435   9.474 -36.326  1.00  0.00     0.210 HD
ENDBRANCH   6  10
BRANCH   7  12
HETATM   12  O3  UNL     1      -7.089  12.408 -37.536  1.00  0.00    -0.393 OA
ATOM     13  H3  UNL     1      -6.166  12.583 -37.396  1.00  0.00     0.210 HD
ENDBRANCH   7  12
TORSDOF 3
ENDMDL