MODEL 4
REMARK VINA RESULT: -3.962610006      1.789      1.899
REMARK  4 active torsions:
REMARK  status: ('A' for Active; 'I' for Inactive)
REMARK    1  A    between atoms: N1_1  and  C1_5
REMARK    2  A    between atoms: C1_5  and  O1_6
REMARK    3  A    between atoms: C1_5  and  C2_8
REMARK    4  A    between atoms: C3_9  and  C4_10
ROOT
HETATM    1  C1  UNL     1     -10.312  10.945 -32.223  1.00  0.00     0.398 C
ENDROOT
BRANCH   1   2
HETATM    2  N1  UNL     1     -10.405   9.530 -32.441  1.00  0.00    -0.042 N
ATOM      3  H13 UNL     1     -11.356   9.202 -32.270  1.00  0.00     0.278 HD
ATOM      4  H12 UNL     1     -10.325   9.314 -33.434  1.00  0.00     0.278 HD
ATOM      5  H11 UNL     1      -9.734   8.985 -31.899  1.00  0.00     0.278 HD
ENDBRANCH   1   2
BRANCH   1   6
HETATM    6  O1  UNL     1      -9.430  11.299 -31.215  1.00  0.00    -0.361 OA
ATOM      7  H1  UNL     1      -9.239  12.229 -31.181  1.00  0.00     0.213 HD
ENDBRANCH   1   6
BRANCH   1   8
HETATM    8  C2  UNL     1      -9.853  11.554 -33.477  1.00  0.00    -0.045 C
HETATM    9  C3  UNL     1      -9.467  12.070 -34.498  1.00  0.00    -0.087 C
BRANCH   9  10
HETATM   10  C4  UNL     1      -8.985  12.724 -35.737  1.00  0.00     0.127 C
HETATM   11  C5  UNL     1      -8.441  14.115 -35.501  1.00  0.00     0.038 C
HETATM   12  C6  UNL     1      -7.231  13.940 -36.371  1.00  0.00     0.077 C
HETATM   13  S1  UNL     1      -7.342  12.160 -36.249  1.00  0.00    -0.152 SA
ENDBRANCH   9  10
ENDBRANCH   1   8
TORSDOF 4
ENDMDL