MODEL 2
REMARK VINA RESULT: -4.986603358      1.944      3.051
REMARK  2 active torsions:
REMARK  status: ('A' for Active; 'I' for Inactive)
REMARK    1  A    between atoms: C5_6  and  O1_7
REMARK    2  A    between atoms: C7_10  and  O2_11
ROOT
HETATM    1  C1  UNL     1     -10.804  12.982 -35.254  1.00  0.00     0.311 C
HETATM    2  N1  UNL     1      -9.961  12.172 -34.386  1.00  0.00     0.098 N
HETATM    3  C2  UNL     1     -10.557  12.115 -33.049  1.00  0.00     0.253 C
HETATM    4  C3  UNL     1      -9.942  13.504 -32.817  1.00  0.00     0.077 C
HETATM    5  C4  UNL     1      -8.919  13.014 -33.800  1.00  0.00     0.253 C
HETATM    6  C5  UNL     1      -7.876  12.130 -33.198  1.00  0.00     0.154 C
HETATM    7  C6  UNL     1      -8.532  10.790 -32.834  1.00  0.00     0.068 C
HETATM    8  C7  UNL     1      -9.842  11.169 -32.140  1.00  0.00     0.154 C
ENDROOT
BRANCH   6   9
HETATM    9  O1  UNL     1      -6.898  11.857 -34.125  1.00  0.00    -0.393 OA
ATOM     10  H1  UNL     1      -7.287  11.733 -34.983  1.00  0.00     0.210 HD
ENDBRANCH   6   9
BRANCH   8  11
HETATM   11  O2  UNL     1     -10.567  10.086 -31.740  1.00  0.00    -0.393 OA
ATOM     12  H2  UNL     1     -11.508  10.210 -31.729  1.00  0.00     0.210 HD
ENDBRANCH   8  11
TORSDOF 2
ENDMDL