MODEL 5
REMARK VINA RESULT: -5.133440989      2.428      4.017
REMARK  1 active torsions:
REMARK  status: ('A' for Active; 'I' for Inactive)
REMARK       I    between atoms: C1_4  and  N3_6
REMARK    1  A    between atoms: N4_12  and  O1_13
ROOT
HETATM    1  N1  UNL     1     -10.089   9.554 -32.061  1.00  0.00    -0.374 N
ATOM      2  H11 UNL     1      -9.491   8.790 -32.375  1.00  0.00     0.158 HD
ATOM      3  H12 UNL     1     -10.781   9.374 -31.334  1.00  0.00     0.158 HD
HETATM    4  C1  UNL     1     -10.014  10.757 -32.542  1.00  0.00     0.184 C
HETATM    5  N2  UNL     1     -10.838  11.812 -32.109  1.00  0.00    -0.064 NA
HETATM    6  N3  UNL     1      -9.050  11.008 -33.555  1.00  0.00    -0.348 N
HETATM    7  C2  UNL     1      -9.453  11.231 -34.950  1.00  0.00     0.148 C
HETATM    8  C3  UNL     1      -8.122  11.744 -35.514  1.00  0.00     0.106 C
HETATM    9  C4  UNL     1      -7.211  10.680 -34.867  1.00  0.00     0.050 C
HETATM   10  C5  UNL     1      -7.623  11.087 -33.439  1.00  0.00     0.103 C
HETATM   11  C6  UNL     1      -7.177  12.548 -33.532  1.00  0.00     0.146 C
HETATM   12  N4  UNL     1      -7.801  12.925 -34.794  1.00  0.00    -0.192 NA
ENDROOT
BRANCH  12  13
HETATM   13  O1  UNL     1      -7.088  13.829 -35.478  1.00  0.00    -0.313 OA
ATOM     14  H1  UNL     1      -6.794  14.576 -34.971  1.00  0.00     0.237 HD
ENDBRANCH  12  13
TORSDOF 1
ENDMDL