MODEL 3
REMARK VINA RESULT: -5.535828805      1.118      1.173
REMARK  3 active torsions:
REMARK  status: ('A' for Active; 'I' for Inactive)
REMARK    1  A    between atoms: O1_1  and  C1_3
REMARK    2  A    between atoms: C2_4  and  O2_5
REMARK    3  A    between atoms: C7_11  and  O3_12
ROOT
HETATM    1  C1  UNL     1     -10.703  11.118 -32.951  1.00  0.00     0.176 C
HETATM    2  C2  UNL     1     -10.726  12.201 -34.027  1.00  0.00     0.154 C
HETATM    3  C3  UNL     1      -9.424  12.894 -33.831  1.00  0.00     0.024 C
HETATM    4  C4  UNL     1      -8.399  12.766 -34.904  1.00  0.00     0.008 C
HETATM    5  C5  UNL     1      -7.417  12.263 -33.843  1.00  0.00     0.008 C
HETATM    6  C6  UNL     1      -8.567  12.018 -32.937  1.00  0.00     0.024 C
HETATM    7  C7  UNL     1      -9.244  10.678 -33.040  1.00  0.00     0.154 C
ENDROOT
BRANCH   1   8
HETATM    8  O1  UNL     1     -10.838  11.744 -31.707  1.00  0.00    -0.390 OA
ATOM      9  H1  UNL     1      -9.967  11.930 -31.377  1.00  0.00     0.210 HD
ENDBRANCH   1   8
BRANCH   2  10
HETATM   10  O2  UNL     1     -10.838  11.625 -35.289  1.00  0.00    -0.393 OA
ATOM     11  H2  UNL     1     -11.177  12.258 -35.910  1.00  0.00     0.210 HD
ENDBRANCH   2  10
BRANCH   7  12
HETATM   12  O3  UNL     1      -8.973   9.901 -31.915  1.00  0.00    -0.393 OA
ATOM     13  H3  UNL     1      -8.334   9.246 -32.169  1.00  0.00     0.210 HD
ENDBRANCH   7  12
TORSDOF 3
ENDMDL