MODEL 1
REMARK VINA RESULT: -4.906935898      0.000      0.000
REMARK  2 active torsions:
REMARK  status: ('A' for Active; 'I' for Inactive)
REMARK    1  A    between atoms: C6_7  and  O1_8
REMARK    2  A    between atoms: C7_10  and  O2_11
ROOT
HETATM    1  C1  UNL     1      -9.006  12.888 -35.493  1.00  0.00     0.052 C
HETATM    2  C2  UNL     1      -8.658  11.767 -34.540  1.00  0.00     0.185 A
HETATM    3  C3  UNL     1      -7.341  11.118 -34.770  1.00  0.00     0.074 A
HETATM    4  C4  UNL     1      -6.858  11.675 -33.451  1.00  0.00     0.276 A
HETATM    5  N1  UNL     1      -8.211  12.180 -33.236  1.00  0.00     0.103 N
HETATM    6  C5  UNL     1      -8.980  11.430 -32.260  1.00  0.00     0.307 C
HETATM    7  C6  UNL     1     -10.334  11.323 -32.972  1.00  0.00     0.177 C
HETATM    8  C7  UNL     1      -9.843  10.863 -34.352  1.00  0.00     0.187 C
ENDROOT
BRANCH   7   9
HETATM    9  O1  UNL     1     -10.835  12.598 -33.093  1.00  0.00    -0.391 OA
ATOM     10  H1  UNL     1     -10.564  12.929 -33.942  1.00  0.00     0.210 HD
ENDBRANCH   7   9
BRANCH   8  11
HETATM   11  O2  UNL     1     -10.838  11.054 -35.286  1.00  0.00    -0.390 OA
ATOM     12  H2  UNL     1     -11.712  11.072 -34.914  1.00  0.00     0.210 HD
ENDBRANCH   8  11
TORSDOF 2
ENDMDL