MODEL 4
REMARK VINA RESULT: -5.456047706      1.742      3.021
REMARK  3 active torsions:
REMARK  status: ('A' for Active; 'I' for Inactive)
REMARK    1  A    between atoms: N1_1  and  C1_5
REMARK    2  A    between atoms: C2_6  and  O1_7
REMARK    3  A    between atoms: C8_14  and  O2_15
ROOT
HETATM    1  C1  UNL     1     -10.506  11.497 -34.579  1.00  0.00     0.219 C
HETATM    2  C2  UNL     1      -9.136  10.877 -34.788  1.00  0.00     0.155 C
HETATM    3  C3  UNL     1      -8.481  11.029 -33.412  1.00  0.00     0.046 C
HETATM    4  C4  UNL     1      -7.812  12.355 -33.383  1.00  0.00     0.010 C
HETATM    5  C5  UNL     1      -8.677  13.528 -33.177  1.00  0.00     0.001 C
HETATM    6  C6  UNL     1     -10.092  13.278 -32.850  1.00  0.00     0.009 C
HETATM    7  C7  UNL     1     -10.610  11.919 -33.168  1.00  0.00     0.048 C
HETATM    8  C8  UNL     1      -9.667  10.905 -32.502  1.00  0.00     0.131 C
ENDROOT
BRANCH   1   9
HETATM    9  N1  UNL     1     -10.701  12.515 -35.553  1.00  0.00    -0.072 N
ATOM     10  H13 UNL     1      -9.910  12.601 -36.190  1.00  0.00     0.274 HD
ATOM     11  H12 UNL     1     -11.411  12.266 -36.242  1.00  0.00     0.274 HD
ATOM     12  H11 UNL     1     -10.913  13.390 -35.074  1.00  0.00     0.274 HD
ENDBRANCH   1   9
BRANCH   2  13
HETATM   13  O1  UNL     1      -8.416  11.542 -35.769  1.00  0.00    -0.393 OA
ATOM     14  H1  UNL     1      -7.622  11.930 -35.419  1.00  0.00     0.210 HD
ENDBRANCH   2  13
BRANCH   8  15
HETATM   15  O2  UNL     1      -9.422  11.203 -31.196  1.00  0.00    -0.395 OA
ATOM     16  H2  UNL     1     -10.142  11.021 -30.603  1.00  0.00     0.210 HD
ENDBRANCH   8  15
TORSDOF 3
ENDMDL