MODEL 4
REMARK VINA RESULT: -5.699631870      1.272      3.974
REMARK  3 active torsions:
REMARK  status: ('A' for Active; 'I' for Inactive)
REMARK    1  A    between atoms: O1_1  and  C1_3
REMARK    2  A    between atoms: C5_7  and  O2_8
REMARK    3  A    between atoms: C8_12  and  O3_13
ROOT
HETATM    1  C1  UNL     1      -7.157  12.460 -35.842  1.00  0.00     0.147 C
HETATM    2  C2  UNL     1      -8.404  13.107 -35.271  1.00  0.00     0.039 C
HETATM    3  C3  UNL     1      -8.092  13.305 -33.798  1.00  0.00    -0.003 C
HETATM    4  C4  UNL     1      -9.379  13.381 -32.963  1.00  0.00     0.037 C
HETATM    5  C5  UNL     1      -9.247  11.859 -32.819  1.00  0.00     0.123 C
HETATM    6  C6  UNL     1      -7.751  12.060 -33.092  1.00  0.00     0.021 C
HETATM    7  C7  UNL     1      -7.157  10.964 -33.860  1.00  0.00     0.041 C
HETATM    8  C8  UNL     1      -7.209  11.038 -35.331  1.00  0.00     0.147 C
ENDROOT
BRANCH   1   9
HETATM    9  O1  UNL     1      -7.052  12.557 -37.197  1.00  0.00    -0.393 OA
ATOM     10  H1  UNL     1      -7.487  11.857 -37.669  1.00  0.00     0.210 HD
ENDBRANCH   1   9
BRANCH   8  11
HETATM   11  O3  UNL     1      -8.381  10.432 -35.825  1.00  0.00    -0.393 OA
ATOM     12  H3  UNL     1      -8.141   9.863 -36.547  1.00  0.00     0.210 HD
ENDBRANCH   8  11
BRANCH   5  13
HETATM   13  O2  UNL     1      -9.549  11.421 -31.555  1.00  0.00    -0.395 OA
ATOM     14  H2  UNL     1     -10.453  11.140 -31.472  1.00  0.00     0.210 HD
ENDBRANCH   5  13
TORSDOF 3
ENDMDL