MODEL 1
REMARK VINA RESULT: -6.347133478      0.000      0.000
REMARK  3 active torsions:
REMARK  status: ('A' for Active; 'I' for Inactive)
REMARK    1  A    between atoms: C2_2  and  C3_6
REMARK    2  A    between atoms: C3_6  and  N3_9
REMARK       I    between atoms: N3_9  and  C5_11
REMARK    3  A    between atoms: C5_11  and  C6_13
ROOT
HETATM    1  C3  UNL     1      -0.973   5.640   9.222  1.00  0.00     0.237 C
HETATM    2  C4  UNL     1      -0.228   6.557  10.119  1.00  0.00     0.090 C
HETATM    3  N2  UNL     1       0.365   7.264  10.817  1.00  0.00    -0.195 NA
ENDROOT
BRANCH   1   4
HETATM    4  C2  UNL     1      -1.620   6.470   8.173  1.00  0.00     0.013 C
HETATM    5  C1  UNL     1      -2.713   5.958   7.306  1.00  0.00     0.066 C
HETATM    6  N1  UNL     1      -1.210   7.670   8.022  1.00  0.00    -0.403 N
ATOM      7  H12 UNL     1      -1.654   8.239   7.302  1.00  0.00     0.155 HD
ATOM      8  H11 UNL     1      -0.460   8.021   8.617  1.00  0.00     0.155 HD
ENDBRANCH   1   4
BRANCH   1   9
HETATM    9  N3  UNL     1      -1.974   4.912   9.980  1.00  0.00    -0.339 N
HETATM   10  C5  UNL     1      -1.701   3.656  10.586  1.00  0.00     0.223 C
HETATM   11  O1  UNL     1      -0.551   3.182  10.450  1.00  0.00    -0.273 OA
ATOM     12  H3  UNL     1      -2.906   5.315  10.081  1.00  0.00     0.164 HD
BRANCH  10  13
HETATM   13  C6  UNL     1      -2.772   2.980  11.339  1.00  0.00     0.085 C
HETATM   14  C7  UNL     1      -2.155   1.875  12.199  1.00  0.00     0.015 C
HETATM   15  C8  UNL     1      -2.639   0.894  11.126  1.00  0.00     0.010 C
HETATM   16  C9  UNL     1      -3.595   1.963  10.634  1.00  0.00    -0.036 C
HETATM   17  C10 UNL     1      -3.745   2.059   9.154  1.00  0.00     0.015 C
HETATM   18  C11 UNL     1      -4.975   1.760  11.275  1.00  0.00     0.015 C
ENDBRANCH  10  13
ENDBRANCH   1   9
TORSDOF 3
ENDMDL