MODEL 2
REMARK VINA RESULT: -6.391554825      1.617      2.077
REMARK  3 active torsions:
REMARK  status: ('A' for Active; 'I' for Inactive)
REMARK    1  A    between atoms: C2_2  and  N2_5
REMARK       I    between atoms: N2_5  and  C4_7
REMARK    2  A    between atoms: C4_7  and  C5_9
REMARK    3  A    between atoms: C8_12  and  C9_13
ROOT
HETATM    1  C1  UNL     1      -3.200  -0.845  11.077  1.00  0.00     0.048 C
HETATM    2  C2  UNL     1      -3.858   0.303  10.357  1.00  0.00     0.188 C
HETATM    3  C3  UNL     1      -4.253  -0.099   9.016  1.00  0.00     0.084 C
HETATM    4  N1  UNL     1      -4.583  -0.416   7.957  1.00  0.00    -0.195 NA
ENDROOT
BRANCH   2   5
HETATM    5  N2  UNL     1      -2.987   1.454  10.230  1.00  0.00    -0.344 N
HETATM    6  C4  UNL     1      -3.219   2.675  10.899  1.00  0.00     0.222 C
HETATM    7  O1  UNL     1      -4.230   2.766  11.638  1.00  0.00    -0.273 OA
ATOM      8  H2  UNL     1      -2.167   1.379   9.629  1.00  0.00     0.163 HD
BRANCH   6   9
HETATM    9  C5  UNL     1      -2.302   3.821  10.737  1.00  0.00     0.078 C
HETATM   10  C6  UNL     1      -2.614   4.569   9.435  1.00  0.00     0.015 C
HETATM   11  C7  UNL     1      -1.800   5.857   9.502  1.00  0.00     0.016 C
HETATM   12  C8  UNL     1      -0.341   5.412   9.340  1.00  0.00     0.087 C
HETATM   13  C10 UNL     1       0.001   4.591  10.567  1.00  0.00     0.016 C
HETATM   14  C11 UNL     1      -0.846   3.358  10.584  1.00  0.00     0.015 C
BRANCH  12  15
HETATM   15  C9  UNL     1       0.467   6.626   9.227  1.00  0.00     0.177 C
HETATM   16  O2  UNL     1       0.057   7.555   8.492  1.00  0.00    -0.648 OA
HETATM   17  O3  UNL     1       1.668   6.805   9.895  1.00  0.00    -0.648 OA
ENDBRANCH  12  15
ENDBRANCH   6   9
ENDBRANCH   2   5
TORSDOF 3
ENDMDL