MODEL 5
REMARK VINA RESULT: -5.442659874      2.090      2.781
REMARK  4 active torsions:
REMARK  status: ('A' for Active; 'I' for Inactive)
REMARK    1  A    between atoms: C2_2  and  C3_3
REMARK    2  A    between atoms: C3_3  and  C4_4
REMARK    3  A    between atoms: C4_4  and  O1_5
REMARK    4  A    between atoms: C4_4  and  C5_7
ROOT
HETATM    1  C5  UNL     1      -4.147   1.571   9.090  1.00  0.00     0.094 C
HETATM    2  C6  UNL     1      -3.156   0.610   8.456  1.00  0.00     0.050 C
HETATM    3  O2  UNL     1      -5.009   1.929   8.005  1.00  0.00    -0.338 OA
HETATM    4  C7  UNL     1      -6.204   1.347   8.143  1.00  0.00     0.199 A
HETATM    5  O3  UNL     1      -7.293   1.990   7.616  1.00  0.00    -0.341 OA
HETATM    6  C8  UNL     1      -7.137   1.594   9.062  1.00  0.00     0.198 A
HETATM    7  C9  UNL     1      -6.149   0.408   9.202  1.00  0.00     0.096 A
HETATM    8  C10 UNL     1      -4.954   0.881  10.073  1.00  0.00    -0.003 C
HETATM    9  C11 UNL     1      -4.376  -0.456  10.572  1.00  0.00     0.018 C
HETATM   10  C12 UNL     1      -5.573   1.572  11.211  1.00  0.00     0.018 C
ENDROOT
BRANCH   1  11
HETATM   11  C4  UNL     1      -3.417   2.830   9.384  1.00  0.00     0.156 C
BRANCH  11  12
HETATM   12  C3  UNL     1      -2.109   2.765  10.086  1.00  0.00     0.061 C
BRANCH  12  13
HETATM   13  C2  UNL     1      -2.062   2.844  11.534  1.00  0.00    -0.034 C
HETATM   14  C1  UNL     1      -1.866   1.751  12.312  1.00  0.00     0.007 C
ENDBRANCH  12  13
ENDBRANCH  11  12
BRANCH  11  15
HETATM   15  O1  UNL     1      -2.980   3.234   8.044  1.00  0.00    -0.392 OA
ATOM     16  H1  UNL     1      -3.768   3.661   7.727  1.00  0.00     0.210 HD
ENDBRANCH  11  15
ENDBRANCH   1  11
TORSDOF 4
ENDMDL