MODEL 2
REMARK VINA RESULT: -6.663665040      1.046      1.664
REMARK  3 active torsions:
REMARK  status: ('A' for Active; 'I' for Inactive)
REMARK    1  A    between atoms: C1_2  and  C2_4
REMARK    2  A    between atoms: C5_7  and  N1_8
REMARK    3  A    between atoms: N1_8  and  C6_10
ROOT
HETATM    1  C2  UNL     1      -3.325   2.779  11.511  1.00  0.00     0.089 C
HETATM    2  C3  UNL     1      -2.058   2.106  11.955  1.00  0.00     0.017 C
HETATM    3  C4  UNL     1      -0.913   2.640  11.105  1.00  0.00     0.026 C
HETATM    4  C5  UNL     1      -1.542   3.973  10.642  1.00  0.00     0.077 C
HETATM    5  C11 UNL     1      -2.877   3.488  10.198  1.00  0.00     0.040 C
ENDROOT
BRANCH   4   6
HETATM    6  N1  UNL     1      -0.696   4.638   9.778  1.00  0.00    -0.413 N
ATOM      7  H1  UNL     1      -0.076   4.071   9.199  1.00  0.00     0.154 HD
BRANCH   6   8
HETATM    8  C6  UNL     1      -0.619   6.015   9.633  1.00  0.00     0.081 C
HETATM    9  C7  UNL     1      -1.548   6.596   8.629  1.00  0.00     0.051 C
HETATM   10  C8  UNL     1      -1.148   8.019   8.232  1.00  0.00     0.169 C
HETATM   11  O3  UNL     1       0.196   8.186   8.053  1.00  0.00    -0.391 OA
HETATM   12  C9  UNL     1       0.917   7.947   9.230  1.00  0.00     0.169 C
HETATM   13  C10 UNL     1       0.831   6.433   9.441  1.00  0.00     0.051 C
ENDBRANCH   6   8
ENDBRANCH   4   6
BRANCH   1  14
HETATM   14  C1  UNL     1      -4.380   1.814  11.238  1.00  0.00     0.177 C
HETATM   15  O1  UNL     1      -4.113   0.733  10.629  1.00  0.00    -0.648 OA
HETATM   16  O2  UNL     1      -5.717   2.043  11.635  1.00  0.00    -0.648 OA
ENDBRANCH   1  14
TORSDOF 3
ENDMDL