MODEL 4
REMARK VINA RESULT: -6.311587034      1.515      2.176
REMARK  4 active torsions:
REMARK  status: ('A' for Active; 'I' for Inactive)
REMARK    1  A    between atoms: C2_2  and  O1_4
REMARK    2  A    between atoms: C2_2  and  C4_6
REMARK    3  A    between atoms: C5_7  and  C6_8
REMARK       I    between atoms: C6_8  and  N1_10
REMARK    4  A    between atoms: N1_10  and  N2_12
ROOT
HETATM    1  C6  UNL     1      -0.493   6.002   9.330  1.00  0.00     0.259 C
HETATM    2  O2  UNL     1       0.206   5.522   8.397  1.00  0.00    -0.267 OA
HETATM    3  N1  UNL     1      -0.201   7.280   9.851  1.00  0.00    -0.265 N
ATOM      4  H1  UNL     1      -0.772   7.664  10.605  1.00  0.00     0.190 HD
ENDROOT
BRANCH   1   5
HETATM    5  C5  UNL     1      -1.604   5.227   9.872  1.00  0.00     0.075 C
HETATM    6  C4  UNL     1      -1.371   4.017  10.299  1.00  0.00     0.015 C
BRANCH   6   7
HETATM    7  C2  UNL     1      -2.336   3.072  10.876  1.00  0.00     0.068 C
HETATM    8  C1  UNL     1      -1.794   2.211  11.977  1.00  0.00     0.050 C
HETATM    9  C3  UNL     1      -2.845   2.193   9.733  1.00  0.00     0.050 C
BRANCH   7  10
HETATM   10  O1  UNL     1      -3.477   3.739  11.381  1.00  0.00    -0.387 OA
ATOM     11  H1  UNL     1      -4.218   3.480  10.847  1.00  0.00     0.211 HD
ENDBRANCH   7  10
ENDBRANCH   6   7
ENDBRANCH   1   5
BRANCH   3  12
HETATM   12  N2  UNL     1       0.828   7.997   9.359  1.00  0.00    -0.304 N
HETATM   13  C7  UNL     1       0.632   8.924   8.316  1.00  0.00     0.083 C
HETATM   14  C8  UNL     1       1.077  10.309   8.774  1.00  0.00     0.046 C
HETATM   15  C9  UNL     1       2.449  10.317   9.360  1.00  0.00     0.007 C
HETATM   16  C10 UNL     1       3.066   8.940   9.349  1.00  0.00     0.022 C
HETATM   17  C11 UNL     1       2.060   8.025  10.054  1.00  0.00     0.148 C
ENDBRANCH   3  12
TORSDOF 4
ENDMDL