MODEL 2
REMARK VINA RESULT: -5.500091396      7.940      9.839
REMARK  4 active torsions:
REMARK  status: ('A' for Active; 'I' for Inactive)
REMARK    1  A    between atoms: C2_2  and  C4_4
REMARK    2  A    between atoms: C9_10  and  C10_11
REMARK    3  A    between atoms: C10_11  and  O1_12
REMARK    4  A    between atoms: C10_11  and  C11_14
ROOT
HETATM    1  C4  UNL     1      -3.146   1.372  10.017  1.00  0.00     0.059 C
HETATM    2  C5  UNL     1      -3.516   2.196   8.805  1.00  0.00     0.281 C
HETATM    3  N1  UNL     1      -4.900   1.743   9.021  1.00  0.00     0.102 N
HETATM    4  C6  UNL     1      -5.423   1.331   7.742  1.00  0.00     0.273 C
HETATM    5  C7  UNL     1      -5.111  -0.105   7.532  1.00  0.00     0.033 C
HETATM    6  C8  UNL     1      -4.147  -0.414   8.648  1.00  0.00     0.047 C
HETATM    7  C9  UNL     1      -4.389   0.646   9.734  1.00  0.00     0.200 C
ENDROOT
BRANCH   7   8
HETATM    8  C10 UNL     1      -5.141   0.026  10.857  1.00  0.00     0.258 C
BRANCH   8   9
HETATM    9  O1  UNL     1      -5.556  -1.263  10.429  1.00  0.00    -0.382 OA
ATOM     10  H1  UNL     1      -6.497  -1.312  10.548  1.00  0.00     0.210 HD
ENDBRANCH   8   9
BRANCH   8  11
HETATM   11  C11 UNL     1      -6.392   0.765  11.138  1.00  0.00     0.205 C
HETATM   12  O2  UNL     1      -7.482   0.357  10.664  1.00  0.00    -0.646 OA
HETATM   13  O3  UNL     1      -6.457   1.919  11.915  1.00  0.00    -0.646 OA
ENDBRANCH   8  11
ENDBRANCH   7   8
BRANCH   1  14
HETATM   14  C2  UNL     1      -2.947   2.233  11.191  1.00  0.00    -0.014 C
HETATM   15  C1  UNL     1      -2.716   3.694  10.871  1.00  0.00     0.010 C
HETATM   16  C3  UNL     1      -1.967   1.784  12.218  1.00  0.00     0.010 C
ENDBRANCH   1  14
TORSDOF 4
ENDMDL