MODEL 4
REMARK VINA RESULT: -6.409393741      2.865      5.825
REMARK  4 active torsions:
REMARK  status: ('A' for Active; 'I' for Inactive)
REMARK    1  A    between atoms: C2_2  and  C4_4
REMARK    2  A    between atoms: C4_4  and  N4_11
REMARK    3  A    between atoms: N1_5  and  N2_7
REMARK    4  A    between atoms: N4_11  and  C6_13
ROOT
HETATM    1  N2  UNL     1      -5.328   2.260  11.620  1.00  0.00    -0.235 N
ATOM      2  H2  UNL     1      -5.195   2.395  12.622  1.00  0.00     0.199 HD
HETATM    3  C5  UNL     1      -6.389   1.487  11.156  1.00  0.00     0.197 C
HETATM    4  N3  UNL     1      -7.268   0.822  10.770  1.00  0.00    -0.170 NA
ENDROOT
BRANCH   1   5
HETATM    5  N1  UNL     1      -4.462   2.840  10.727  1.00  0.00    -0.280 N
HETATM    6  C4  UNL     1      -3.201   2.580  10.655  1.00  0.00     0.096 C
ATOM      7  H1  UNL     1      -4.842   3.525  10.075  1.00  0.00     0.189 HD
BRANCH   6   8
HETATM    8  C2  UNL     1      -2.647   1.580  11.605  1.00  0.00     0.046 C
HETATM    9  C1  UNL     1      -1.293   2.067  12.104  1.00  0.00     0.017 C
HETATM   10  C3  UNL     1      -2.504   0.207  10.970  1.00  0.00     0.017 C
ENDBRANCH   6   8
BRANCH   6  11
HETATM   11  N4  UNL     1      -2.406   3.231   9.704  1.00  0.00    -0.374 N
ATOM     12  H4  UNL     1      -2.006   2.661   8.958  1.00  0.00     0.161 HD
BRANCH  11  13
HETATM   13  C6  UNL     1      -2.108   4.630   9.691  1.00  0.00     0.082 C
HETATM   14  C7  UNL     1      -0.621   4.912   9.935  1.00  0.00     0.025 C
HETATM   15  C8  UNL     1      -0.383   6.380  10.010  1.00  0.00     0.002 C
HETATM   16  C9  UNL     1      -0.947   7.195   8.923  1.00  0.00     0.000 C
HETATM   17  C10 UNL     1      -2.235   6.720   8.335  1.00  0.00     0.002 C
HETATM   18  C11 UNL     1      -2.402   5.232   8.341  1.00  0.00     0.025 C
ENDBRANCH  11  13
ENDBRANCH   6  11
ENDBRANCH   1   5
TORSDOF 4
ENDMDL