MODEL 4
REMARK VINA RESULT: -5.329608528      1.944      4.428
REMARK  3 active torsions:
REMARK  status: ('A' for Active; 'I' for Inactive)
REMARK    1  A    between atoms: O1_2  and  C2_3
REMARK    2  A    between atoms: C4_5  and  C5_6
REMARK    3  A    between atoms: C8_11  and  C10_13
ROOT
HETATM    1  C2  UNL     1      -4.172   1.389   8.935  1.00  0.00     0.140 C
HETATM    2  C3  UNL     1      -2.820   1.941   9.250  1.00  0.00     0.048 C
HETATM    3  C4  UNL     1      -2.813   2.942  10.371  1.00  0.00     0.089 C
HETATM    4  C6  UNL     1      -3.544   2.428  11.560  1.00  0.00     0.017 C
HETATM    5  C7  UNL     1      -4.937   1.937  11.271  1.00  0.00     0.024 C
HETATM    6  C8  UNL     1      -5.010   1.009  10.099  1.00  0.00     0.071 C
HETATM    7  C9  UNL     1      -6.461   0.881   9.678  1.00  0.00     0.029 C
ENDROOT
BRANCH   6   8
HETATM    8  C10 UNL     1      -4.584  -0.320  10.588  1.00  0.00     0.184 C
HETATM    9  O4  UNL     1      -5.444  -1.222  10.677  1.00  0.00    -0.647 OA
HETATM   10  O5  UNL     1      -3.288  -0.619  10.952  1.00  0.00    -0.647 OA
ENDBRANCH   6   8
BRANCH   1  11
HETATM   11  O1  UNL     1      -4.027   0.345   8.034  1.00  0.00    -0.389 OA
HETATM   12  C1  UNL     1      -2.865   0.510   7.314  1.00  0.00     0.202 C
ENDBRANCH   1  11
BRANCH   3  13
HETATM   13  C5  UNL     1      -1.390   3.142  10.800  1.00  0.00     0.177 C
HETATM   14  O2  UNL     1      -0.861   2.404  11.694  1.00  0.00    -0.648 OA
HETATM   15  O3  UNL     1      -0.595   4.141  10.236  1.00  0.00    -0.648 OA
ENDBRANCH   3  13
TORSDOF 3
ENDMDL