MODEL 1
REMARK VINA RESULT: -6.599829237      0.000      0.000
REMARK  3 active torsions:
REMARK  status: ('A' for Active; 'I' for Inactive)
REMARK    1  A    between atoms: C2_3  and  N2_4
REMARK    2  A    between atoms: C2_3  and  C10_14
REMARK       I    between atoms: N2_4  and  C3_6
REMARK    3  A    between atoms: C3_6  and  C4_8
ROOT
HETATM    1  N1  UNL     1      -3.961   4.512   4.874  1.00  0.00    -0.194 NA
HETATM    2  C1  UNL     1      -3.396   5.125   5.694  1.00  0.00     0.096 C
HETATM    3  C2  UNL     1      -2.713   5.897   6.730  1.00  0.00     0.293 C
ENDROOT
BRANCH   3   4
HETATM    4  N2  UNL     1      -2.801   5.202   7.996  1.00  0.00    -0.335 N
HETATM    5  C3  UNL     1      -1.690   5.086   8.882  1.00  0.00     0.223 C
HETATM    6  O1  UNL     1      -0.603   5.608   8.539  1.00  0.00    -0.273 OA
ATOM      7  H2  UNL     1      -3.690   4.780   8.265  1.00  0.00     0.164 HD
BRANCH   5   8
HETATM    8  C4  UNL     1      -1.846   4.362  10.161  1.00  0.00     0.078 C
HETATM    9  C5  UNL     1      -3.057   3.440  10.101  1.00  0.00     0.014 C
HETATM   10  C6  UNL     1      -3.228   2.980  11.544  1.00  0.00     0.001 C
HETATM   11  C7  UNL     1      -2.102   2.043  11.821  1.00  0.00     0.000 C
HETATM   12  C8  UNL     1      -0.747   2.557  11.537  1.00  0.00     0.001 C
HETATM   13  C9  UNL     1      -0.602   3.625  10.541  1.00  0.00     0.014 C
ENDBRANCH   5   8
ENDBRANCH   3   4
BRANCH   3  14
HETATM   14  C10 UNL     1      -3.292   7.245   6.886  1.00  0.00     0.211 C
HETATM   15  O2  UNL     1      -4.275   7.581   6.200  1.00  0.00    -0.646 OA
HETATM   16  O3  UNL     1      -2.766   8.154   7.785  1.00  0.00    -0.646 OA
ENDBRANCH   3  14
TORSDOF 3
ENDMDL