MODEL 2
REMARK VINA RESULT: -5.858149827      4.576      6.276
REMARK  4 active torsions:
REMARK  status: ('A' for Active; 'I' for Inactive)
REMARK    1  A    between atoms: C1_2  and  C2_4
REMARK    2  A    between atoms: C5_7  and  O3_8
REMARK    3  A    between atoms: C7_11  and  O4_12
REMARK    4  A    between atoms: O4_12  and  C8_13
ROOT
HETATM    1  C2  UNL     1      -6.075   0.645   9.855  1.00  0.00     0.116 C
HETATM    2  C3  UNL     1      -6.109  -0.854   9.555  1.00  0.00     0.020 C
HETATM    3  C4  UNL     1      -6.290  -0.927   8.032  1.00  0.00     0.033 C
HETATM    4  C5  UNL     1      -5.482   0.188   7.444  1.00  0.00     0.120 C
HETATM    5  C6  UNL     1      -4.252   0.544   8.241  1.00  0.00     0.064 C
HETATM    6  C7  UNL     1      -4.669   1.129   9.575  1.00  0.00     0.138 C
ENDROOT
BRANCH   6   7
HETATM    7  O4  UNL     1      -3.772   0.810  10.581  1.00  0.00    -0.380 OA
BRANCH   7   8
HETATM    8  C8  UNL     1      -2.850   1.797  10.727  1.00  0.00     0.122 C
HETATM    9  C9  UNL     1      -1.402   1.374  10.403  1.00  0.00     0.032 C
HETATM   10  C10 UNL     1      -1.011   2.443  11.432  1.00  0.00     0.005 C
HETATM   11  C11 UNL     1      -2.335   2.105  12.116  1.00  0.00     0.032 C
ENDBRANCH   7   8
ENDBRANCH   6   7
BRANCH   1  12
HETATM   12  C1  UNL     1      -6.528   0.920  11.227  1.00  0.00     0.179 C
HETATM   13  O1  UNL     1      -7.150   0.049  11.872  1.00  0.00    -0.648 OA
HETATM   14  O2  UNL     1      -6.267   2.138  11.801  1.00  0.00    -0.648 OA
ENDBRANCH   1  12
BRANCH   4  15
HETATM   15  O3  UNL     1      -5.058  -0.225   6.161  1.00  0.00    -0.395 OA
ATOM     16  H3  UNL     1      -4.615   0.511   5.756  1.00  0.00     0.210 HD
ENDBRANCH   4  15
TORSDOF 4
ENDMDL