MODEL 1
REMARK VINA RESULT: -5.718483176      0.000      0.000
REMARK  3 active torsions:
REMARK  status: ('A' for Active; 'I' for Inactive)
REMARK    1  A    between atoms: C2_4  and  N2_5
REMARK    2  A    between atoms: N2_5  and  N3_7
REMARK    3  A    between atoms: N3_7  and  C3_8
ROOT
HETATM    1  N2  UNL     1      13.817  16.577  13.617  1.00  0.00    -0.284 N
ATOM      2  H2  UNL     1      13.992  16.287  12.655  1.00  0.00     0.184 HD
ENDROOT
BRANCH   1   3
HETATM    3  C2  UNL     1      12.991  17.697  13.879  1.00  0.00     0.133 A
HETATM    4  N1  UNL     1      13.038  18.876  13.249  1.00  0.00    -0.337 N
HETATM    5  C1  UNL     1      12.077  19.647  13.791  1.00  0.00     0.182 A
ATOM      6  H1  UNL     1      13.680  19.140  12.501  1.00  0.00     0.168 HD
HETATM    7  N5  UNL     1      11.411  18.998  14.753  1.00  0.00    -0.358 N
HETATM    8  C5  UNL     1      11.965  17.787  14.820  1.00  0.00     0.138 A
ATOM      9  H5  UNL     1      10.639  19.355  15.317  1.00  0.00     0.166 HD
ENDBRANCH   1   3
BRANCH   1  10
HETATM   10  N3  UNL     1      14.389  15.872  14.670  1.00  0.00    -0.078 NA
BRANCH  10  11
HETATM   11  C3  UNL     1      13.449  14.892  15.146  1.00  0.00     0.442 C
HETATM   12  N4  UNL     1      13.967  13.563  15.403  1.00  0.00    -0.012 N
HETATM   13  C4  UNL     1      12.946  13.579  16.466  1.00  0.00     0.408 C
ATOM     14  H42 UNL     1      14.023  12.836  14.691  1.00  0.00     0.284 HD
ATOM     15  H41 UNL     1      14.953  13.370  15.577  1.00  0.00     0.284 HD
HETATM   16  O1  UNL     1      13.212  14.972  16.539  1.00  0.00    -0.318 OA
ENDBRANCH  10  11
ENDBRANCH   1  10
TORSDOF 3
ENDMDL