MODEL 3
REMARK VINA RESULT: -3.931032418      1.412      1.932
REMARK  5 active torsions:
REMARK  status: ('A' for Active; 'I' for Inactive)
REMARK    1  A    between atoms: C2_2  and  C3_3
REMARK    2  A    between atoms: C2_2  and  N3_12
REMARK    3  A    between atoms: C3_3  and  N1_4
REMARK    4  A    between atoms: C3_3  and  N2_8
REMARK    5  A    between atoms: C5_16  and  N5_17
ROOT
HETATM    1  C1  UNL     1      10.332  20.019  13.872  1.00  0.00     0.038 C
HETATM    2  C2  UNL     1      11.788  19.817  14.212  1.00  0.00     0.163 C
ENDROOT
BRANCH   2   3
HETATM    3  C3  UNL     1      12.634  20.314  13.034  1.00  0.00     0.402 C
BRANCH   3   4
HETATM    4  N1  UNL     1      13.769  21.023  13.570  1.00  0.00    -0.048 N
ATOM      5  H13 UNL     1      13.724  22.027  13.398  1.00  0.00     0.276 HD
ATOM      6  H12 UNL     1      13.767  21.058  14.589  1.00  0.00     0.276 HD
ATOM      7  H11 UNL     1      14.614  20.596  13.191  1.00  0.00     0.276 HD
ENDBRANCH   3   4
BRANCH   3   8
HETATM    8  N2  UNL     1      11.795  21.114  12.205  1.00  0.00    -0.048 N
ATOM      9  H23 UNL     1      11.403  21.917  12.696  1.00  0.00     0.276 HD
ATOM     10  H22 UNL     1      12.315  21.630  11.495  1.00  0.00     0.276 HD
ATOM     11  H21 UNL     1      11.081  20.504  11.808  1.00  0.00     0.276 HD
ENDBRANCH   3   8
ENDBRANCH   2   3
BRANCH   2  12
HETATM   12  N3  UNL     1      12.072  18.421  14.477  1.00  0.00    -0.265 N
HETATM   13  C4  UNL     1      13.006  17.633  13.925  1.00  0.00     0.219 A
HETATM   14  N4  UNL     1      12.927  16.407  14.457  1.00  0.00    -0.185 N
HETATM   15  C5  UNL     1      11.941  16.449  15.337  1.00  0.00     0.691 A
ATOM     16  H4  UNL     1      13.510  15.602  14.229  1.00  0.00     0.185 HD
HETATM   17  N6  UNL     1      11.421  17.681  15.347  1.00  0.00    -0.129 N
ATOM     18  H6  UNL     1      10.648  17.995  15.933  1.00  0.00     0.206 HD
BRANCH  15  19
HETATM   19  N5  UNL     1      11.570  15.436  16.056  1.00  0.00    -0.233 N
ATOM     20  H52 UNL     1      12.033  14.531  16.130  1.00  0.00     0.174 HD
ATOM     21  H51 UNL     1      10.739  15.433  16.649  1.00  0.00     0.174 HD
ENDBRANCH  15  19
ENDBRANCH   2  12
TORSDOF 5
ENDMDL