MODEL 5
REMARK VINA RESULT: -4.413444626      1.655      1.948
REMARK  4 active torsions:
REMARK  status: ('A' for Active; 'I' for Inactive)
REMARK    1  A    between atoms: N1_2  and  N2_3
REMARK    2  A    between atoms: N2_3  and  N3_4
REMARK    3  A    between atoms: N2_3  and  C2_7
REMARK    4  A    between atoms: C4_9  and  N4_10
ROOT
HETATM    1  C2  UNL     1      12.791  17.093  14.411  1.00  0.00     0.145 A
HETATM    2  C3  UNL     1      12.305  16.187  15.353  1.00  0.00     0.099 A
HETATM    3  C4  UNL     1      13.034  15.039  15.609  1.00  0.00     0.103 A
HETATM    4  N5  UNL     1      14.186  14.810  14.959  1.00  0.00    -0.339 N
ATOM      5  H5  UNL     1      14.720  13.963  15.150  1.00  0.00     0.168 HD
HETATM    6  C5  UNL     1      14.633  15.692  14.062  1.00  0.00     0.183 A
HETATM    7  N6  UNL     1      13.937  16.803  13.806  1.00  0.00    -0.336 N
ATOM      8  H6  UNL     1      14.303  17.457  13.115  1.00  0.00     0.168 HD
ENDROOT
BRANCH   1   9
HETATM    9  N2  UNL     1      12.038  18.261  14.175  1.00  0.00    -0.191 N
BRANCH   9  10
HETATM   10  N1  UNL     1      12.239  18.987  13.003  1.00  0.00    -0.121 NA
HETATM   11  C1  UNL     1      12.561  20.373  13.209  1.00  0.00     0.161 C
ENDBRANCH   9  10
BRANCH   9  12
HETATM   12  N3  UNL     1      11.099  18.725  15.075  1.00  0.00    -0.325 N
ATOM     13  H32 UNL     1      10.252  18.201  15.293  1.00  0.00     0.178 HD
ATOM     14  H31 UNL     1      11.273  19.620  15.533  1.00  0.00     0.178 HD
ENDBRANCH   9  12
ENDBRANCH   1   9
BRANCH   3  15
HETATM   15  N4  UNL     1      12.678  14.138  16.456  1.00  0.00    -0.385 N
ATOM     16  H42 UNL     1      13.433  13.579  16.852  1.00  0.00     0.157 HD
ATOM     17  H41 UNL     1      11.711  13.969  16.734  1.00  0.00     0.157 HD
ENDBRANCH   3  15
TORSDOF 4
ENDMDL