MODEL 1
REMARK VINA RESULT: -4.116135729      0.000      0.000
REMARK  4 active torsions:
REMARK  status: ('A' for Active; 'I' for Inactive)
REMARK    1  A    between atoms: C3_9  and  C4_10
REMARK    2  A    between atoms: C4_10  and  N4_11
REMARK    3  A    between atoms: C4_10  and  C5_15
REMARK    4  A    between atoms: C5_15  and  N5_17
ROOT
HETATM    1  C4  UNL     1      12.476  20.868  13.477  1.00  0.00     0.266 C
ENDROOT
BRANCH   1   2
HETATM    2  C3  UNL     1      12.294  19.457  13.793  1.00  0.00     0.083 A
HETATM    3  C2  UNL     1      11.494  18.756  14.660  1.00  0.00     0.049 A
HETATM    4  C1  UNL     1      10.233  19.287  15.274  1.00  0.00     0.072 C
HETATM    5  N1  UNL     1      11.940  17.445  14.733  1.00  0.00    -0.289 N
HETATM    6  N2  UNL     1      12.993  17.345  13.932  1.00  0.00    -0.242 N
ATOM      7  H1  UNL     1      11.535  16.698  15.297  1.00  0.00     0.188 HD
HETATM    8  N3  UNL     1      13.204  18.498  13.381  1.00  0.00    -0.286 N
ATOM      9  H2  UNL     1      13.544  16.501  13.777  1.00  0.00     0.208 HD
ATOM     10  H3  UNL     1      13.957  18.680  12.717  1.00  0.00     0.188 HD
ENDBRANCH   1   2
BRANCH   1  11
HETATM   11  N4  UNL     1      13.915  21.233  13.593  1.00  0.00    -0.068 N
ATOM     12  H43 UNL     1      14.223  21.271  14.565  1.00  0.00     0.275 HD
ATOM     13  H42 UNL     1      14.527  20.483  13.272  1.00  0.00     0.275 HD
ATOM     14  H41 UNL     1      14.093  22.108  13.101  1.00  0.00     0.275 HD
ENDBRANCH   1  11
BRANCH   1  15
HETATM   15  C5  UNL     1      12.111  21.160  12.070  1.00  0.00     0.215 C
HETATM   16  C6  UNL     1      12.395  22.473  11.442  1.00  0.00     0.042 C
BRANCH  15  17
HETATM   17  N5  UNL     1      10.563  21.121  12.038  1.00  0.00    -0.073 N
ATOM     18  H53 UNL     1      10.166  21.273  11.111  1.00  0.00     0.274 HD
ATOM     19  H52 UNL     1      10.170  20.190  12.183  1.00  0.00     0.274 HD
ATOM     20  H51 UNL     1      10.265  21.807  12.732  1.00  0.00     0.274 HD
ENDBRANCH  15  17
ENDBRANCH   1  15
TORSDOF 4
ENDMDL