MODEL 1
REMARK VINA RESULT: -4.937336846      0.000      0.000
REMARK  3 active torsions:
REMARK  status: ('A' for Active; 'I' for Inactive)
REMARK    1  A    between atoms: C2_2  and  N1_3
REMARK    2  A    between atoms: C2_2  and  C3_7
REMARK    3  A    between atoms: N1_3  and  N2_4
ROOT
HETATM    1  C3  UNL     1      12.345  17.610  14.575  1.00  0.00     0.119 A
HETATM    2  N3  UNL     1      11.380  18.161  15.341  1.00  0.00    -0.340 N
ATOM      3  H3  UNL     1      10.902  17.584  16.032  1.00  0.00     0.168 HD
HETATM    4  C4  UNL     1      11.035  19.456  15.213  1.00  0.00     0.199 A
HETATM    5  N4  UNL     1      11.635  20.261  14.318  1.00  0.00    -0.188 N
ATOM      6  H4  UNL     1      11.370  21.242  14.226  1.00  0.00     0.185 HD
HETATM    7  C5  UNL     1      12.599  19.722  13.551  1.00  0.00     0.678 A
HETATM    8  N5  UNL     1      13.171  20.504  12.694  1.00  0.00    -0.234 N
ATOM      9  H51 UNL     1      13.902  20.095  12.112  1.00  0.00     0.174 HD
ATOM     10  H52 UNL     1      12.913  21.485  12.594  1.00  0.00     0.174 HD
HETATM   11  N6  UNL     1      12.941  18.423  13.683  1.00  0.00    -0.179 N
ATOM     12  H6  UNL     1      13.676  18.045  13.086  1.00  0.00     0.185 HD
ENDROOT
BRANCH   1  13
HETATM   13  C2  UNL     1      12.737  16.177  14.706  1.00  0.00     0.162 C
HETATM   14  C1  UNL     1      12.375  15.648  16.065  1.00  0.00     0.038 C
BRANCH  13  15
HETATM   15  N1  UNL     1      14.171  16.006  14.518  1.00  0.00    -0.136 NA
BRANCH  15  16
HETATM   16  N2  UNL     1      14.500  14.693  14.831  1.00  0.00    -0.348 N
ATOM     17  H22 UNL     1      14.548  14.310  15.776  1.00  0.00     0.172 HD
ATOM     18  H21 UNL     1      14.681  14.192  13.961  1.00  0.00     0.172 HD
ENDBRANCH  15  16
ENDBRANCH  13  15
ENDBRANCH   1  13
TORSDOF 3
ENDMDL