MODEL 2
REMARK VINA RESULT: -4.806802167      0.257      1.175
REMARK  5 active torsions:
REMARK  status: ('A' for Active; 'I' for Inactive)
REMARK    1  A    between atoms: N1_1  and  C1_5
REMARK    2  A    between atoms: C1_5  and  N2_6
REMARK    3  A    between atoms: C1_5  and  C2_10
REMARK    4  A    between atoms: N3_11  and  N4_13
REMARK    5  A    between atoms: N4_13  and  C3_15
ROOT
HETATM    1  C2  UNL     1      12.040  14.686  16.094  1.00  0.00     0.141 C
HETATM    2  N3  UNL     1      12.355  15.849  15.653  1.00  0.00    -0.309 N
ATOM      3  H3  UNL     1      13.332  16.073  15.466  1.00  0.00     0.185 HD
ENDROOT
BRANCH   2   4
HETATM    4  N4  UNL     1      11.365  16.811  15.428  1.00  0.00    -0.272 N
ATOM      5  H4  UNL     1      10.395  16.578  15.643  1.00  0.00     0.190 HD
BRANCH   4   6
HETATM    6  C3  UNL     1      11.659  18.109  14.908  1.00  0.00     0.190 C
HETATM    7  N5  UNL     1      12.490  18.324  13.940  1.00  0.00    -0.360 N
HETATM    8  C4  UNL     1      12.593  19.714  13.621  1.00  0.00     0.142 C
ATOM      9  H5  UNL     1      13.010  17.589  13.461  1.00  0.00     0.162 HD
HETATM   10  C5  UNL     1      12.045  20.375  14.886  1.00  0.00     0.142 C
HETATM   11  N6  UNL     1      11.112  19.365  15.342  1.00  0.00    -0.360 N
ATOM     12  H6  UNL     1      10.247  19.514  15.862  1.00  0.00     0.162 HD
ENDBRANCH   4   6
ENDBRANCH   2   4
BRANCH   1  13
HETATM   13  C1  UNL     1      13.064  13.650  16.341  1.00  0.00     0.417 C
BRANCH  13  14
HETATM   14  N1  UNL     1      12.411  12.406  16.608  1.00  0.00    -0.046 N
ATOM     15  H13 UNL     1      11.405  12.498  16.466  1.00  0.00     0.277 HD
ATOM     16  H12 UNL     1      12.632  11.727  15.880  1.00  0.00     0.277 HD
ATOM     17  H11 UNL     1      12.603  12.011  17.529  1.00  0.00     0.277 HD
ENDBRANCH  13  14
BRANCH  13  18
HETATM   18  N2  UNL     1      13.998  13.618  15.264  1.00  0.00    -0.046 N
ATOM     19  H23 UNL     1      14.675  12.869  15.407  1.00  0.00     0.277 HD
ATOM     20  H22 UNL     1      13.544  13.286  14.413  1.00  0.00     0.277 HD
ATOM     21  H21 UNL     1      14.479  14.499  15.086  1.00  0.00     0.277 HD
ENDBRANCH  13  18
ENDBRANCH   1  13
TORSDOF 5
ENDMDL