MODEL 4
REMARK VINA RESULT: -4.485128644      1.664      2.695
REMARK  3 active torsions:
REMARK  status: ('A' for Active; 'I' for Inactive)
REMARK    1  A    between atoms: N1_2  and  N2_3
REMARK    2  A    between atoms: N2_3  and  N3_4
REMARK    3  A    between atoms: N3_4  and  C2_6
ROOT
HETATM    1  C2  UNL     1      12.373  20.262  13.622  1.00  0.00     0.119 A
HETATM    2  C3  UNL     1      12.070  20.745  15.025  1.00  0.00     0.064 C
HETATM    3  C4  UNL     1      12.990  21.381  12.826  1.00  0.00     0.127 A
HETATM    4  C5  UNL     1      11.711  21.310  12.095  1.00  0.00     0.095 A
HETATM    5  N4  UNL     1      11.270  22.109  10.970  1.00  0.00    -0.088 NA
HETATM    6  N5  UNL     1      11.211  20.360  12.783  1.00  0.00    -0.355 N
ATOM      7  H5  UNL     1      10.323  19.860  12.750  1.00  0.00     0.163 HD
ENDROOT
BRANCH   1   8
HETATM    8  N3  UNL     1      13.128  19.071  13.516  1.00  0.00    -0.295 N
ATOM      9  H3  UNL     1      14.129  19.075  13.710  1.00  0.00     0.180 HD
BRANCH   8  10
HETATM   10  N2  UNL     1      12.509  17.936  13.156  1.00  0.00    -0.035 NA
BRANCH  10  11
HETATM   11  N1  UNL     1      12.926  16.856  13.979  1.00  0.00    -0.131 NA
HETATM   12  C1  UNL     1      12.079  16.766  15.151  1.00  0.00     0.156 C
ENDBRANCH  10  11
ENDBRANCH   8  10
ENDBRANCH   1   8
TORSDOF 3
ENDMDL