MODEL 5
REMARK VINA RESULT: -5.079617386      1.623      5.636
REMARK  4 active torsions:
REMARK  status: ('A' for Active; 'I' for Inactive)
REMARK    1  A    between atoms: C1_4  and  N2_5
REMARK    2  A    between atoms: N2_5  and  N3_7
REMARK    3  A    between atoms: C2_9  and  C3_10
REMARK    4  A    between atoms: C4_13  and  N5_14
ROOT
HETATM    1  C3  UNL     1     -17.487  -6.294 -12.073  1.00  0.00     0.202 A
HETATM    2  N4  UNL     1     -16.551  -5.711 -12.841  1.00  0.00    -0.166 N
ATOM      3  H4  UNL     1     -15.677  -5.313 -12.499  1.00  0.00     0.186 HD
HETATM    4  C4  UNL     1     -16.941  -5.731 -14.131  1.00  0.00     0.698 A
HETATM    5  N6  UNL     1     -18.137  -6.341 -14.124  1.00  0.00    -0.089 N
ATOM      6  H6  UNL     1     -18.717  -6.524 -14.943  1.00  0.00     0.213 HD
HETATM    7  O1  UNL     1     -18.433  -6.664 -12.886  1.00  0.00    -0.203 OA
ENDROOT
BRANCH   1   8
HETATM    8  C2  UNL     1     -17.487  -6.495 -10.626  1.00  0.00     0.166 C
HETATM    9  N3  UNL     1     -16.750  -5.780  -9.842  1.00  0.00    -0.307 N
ATOM     10  H3  UNL     1     -16.143  -5.050 -10.216  1.00  0.00     0.186 HD
BRANCH   9  11
HETATM   11  N2  UNL     1     -16.806  -6.029  -8.484  1.00  0.00    -0.297 N
ATOM     12  H2  UNL     1     -16.927  -5.254  -7.832  1.00  0.00     0.187 HD
BRANCH  11  13
HETATM   13  C1  UNL     1     -16.696  -7.344  -7.998  1.00  0.00     0.190 C
HETATM   14  N1  UNL     1     -15.673  -7.706  -7.295  1.00  0.00    -0.394 N
ATOM     15  H12 UNL     1     -14.946  -7.017  -7.100  1.00  0.00     0.156 HD
ATOM     16  H11 UNL     1     -15.594  -8.660  -6.942  1.00  0.00     0.156 HD
ENDBRANCH  11  13
ENDBRANCH   9  11
ENDBRANCH   1   8
BRANCH   4  17
HETATM   17  N5  UNL     1     -16.283  -5.257 -15.133  1.00  0.00    -0.233 N
ATOM     18  H52 UNL     1     -16.349  -4.332 -15.559  1.00  0.00     0.174 HD
ATOM     19  H51 UNL     1     -15.573  -5.748 -15.675  1.00  0.00     0.174 HD
ENDBRANCH   4  17
TORSDOF 4
ENDMDL