MODEL 5
REMARK VINA RESULT: -4.689926624      3.514      5.713
REMARK  2 active torsions:
REMARK  status: ('A' for Active; 'I' for Inactive)
REMARK       I    between atoms: N1_1  and  C1_5
REMARK       I    between atoms: C1_5  and  N2_6
REMARK       I    between atoms: C1_5  and  N3_10
REMARK    1  A    between atoms: N3_10  and  C2_12
REMARK    2  A    between atoms: N4_14  and  O1_15
ROOT
HETATM    1  N1  UNL     1     -17.448  -9.155  -8.498  1.00  0.00    -0.033 N
ATOM      2  H11 UNL     1     -16.693  -8.710  -9.021  1.00  0.00     0.278 HD
ATOM      3  H12 UNL     1     -17.180 -10.088  -8.186  1.00  0.00     0.278 HD
ATOM      4  H13 UNL     1     -17.577  -8.710  -7.589  1.00  0.00     0.278 HD
HETATM    5  C1  UNL     1     -18.709  -9.190  -9.255  1.00  0.00     0.481 C
HETATM    6  N2  UNL     1     -19.764  -9.811  -8.523  1.00  0.00    -0.033 N
ATOM      7  H21 UNL     1     -20.638  -9.836  -9.049  1.00  0.00     0.278 HD
ATOM      8  H22 UNL     1     -19.893  -9.367  -7.615  1.00  0.00     0.278 HD
ATOM      9  H23 UNL     1     -19.496 -10.745  -8.211  1.00  0.00     0.278 HD
HETATM   10  N3  UNL     1     -19.084  -7.843  -9.593  1.00  0.00    -0.325 N
ATOM     11  H3  UNL     1     -19.974  -7.474  -9.256  1.00  0.00     0.165 HD
ENDROOT
BRANCH  10  12
HETATM   12  C2  UNL     1     -18.243  -7.013 -10.384  1.00  0.00     0.136 A
HETATM   13  C3  UNL     1     -17.238  -6.182  -9.946  1.00  0.00     0.190 A
HETATM   14  N4  UNL     1     -16.694  -5.579 -11.035  1.00  0.00    -0.155 N
HETATM   15  N5  UNL     1     -17.346  -6.027 -12.094  1.00  0.00     0.007 NA
HETATM   16  N6  UNL     1     -18.278  -6.889 -11.720  1.00  0.00    -0.266 N
ATOM     17  H6  UNL     1     -18.919  -7.378 -12.345  1.00  0.00     0.186 HD
BRANCH  14  18
HETATM   18  O1  UNL     1     -15.650  -4.665 -11.015  1.00  0.00    -0.270 OA
ATOM     19  H1  UNL     1     -15.236  -4.282 -11.779  1.00  0.00     0.246 HD
ENDBRANCH  14  18
ENDBRANCH  10  12
TORSDOF 2
ENDMDL