MODEL 1
REMARK VINA RESULT: -4.578916546      0.000      0.000
REMARK  5 active torsions:
REMARK  status: ('A' for Active; 'I' for Inactive)
REMARK    1  A    between atoms: N1_1  and  C1_5
REMARK    2  A    between atoms: C1_5  and  C2_6
REMARK    3  A    between atoms: C2_6  and  N2_7
REMARK    4  A    between atoms: C2_6  and  C3_11
REMARK    5  A    between atoms: C3_11  and  N3_12
ROOT
HETATM    1  C2  UNL     1     -16.867  -6.810  -7.076  1.00  0.00     0.228 C
ENDROOT
BRANCH   1   2
HETATM    2  C1  UNL     1     -16.554  -8.197  -6.600  1.00  0.00     0.264 C
BRANCH   2   3
HETATM    3  N1  UNL     1     -15.196  -8.507  -7.009  1.00  0.00    -0.077 N
ATOM      4  H13 UNL     1     -14.943  -8.081  -7.901  1.00  0.00     0.274 HD
ATOM      5  H12 UNL     1     -14.493  -8.042  -6.435  1.00  0.00     0.274 HD
ATOM      6  H11 UNL     1     -15.098  -9.523  -7.013  1.00  0.00     0.274 HD
ENDBRANCH   2   3
ENDBRANCH   1   2
BRANCH   1   7
HETATM    7  N2  UNL     1     -17.073  -5.976  -5.885  1.00  0.00    -0.072 N
ATOM      8  H23 UNL     1     -17.566  -6.463  -5.137  1.00  0.00     0.274 HD
ATOM      9  H22 UNL     1     -16.210  -5.789  -5.374  1.00  0.00     0.274 HD
ATOM     10  H21 UNL     1     -17.549  -5.126  -6.189  1.00  0.00     0.274 HD
ENDBRANCH   1   7
BRANCH   1  11
HETATM   11  C3  UNL     1     -18.157  -6.756  -7.874  1.00  0.00     0.182 C
BRANCH  11  12
HETATM   12  N3  UNL     1     -17.818  -6.575  -9.297  1.00  0.00    -0.300 N
HETATM   13  C4  UNL     1     -18.441  -7.121 -10.352  1.00  0.00     0.113 A
HETATM   14  C5  UNL     1     -17.821  -6.705 -11.507  1.00  0.00     0.065 A
HETATM   15  C6  UNL     1     -16.789  -5.879 -11.117  1.00  0.00     0.132 A
HETATM   16  N4  UNL     1     -15.884  -5.225 -12.005  1.00  0.00    -0.081 NA
HETATM   17  N5  UNL     1     -16.839  -5.841  -9.791  1.00  0.00    -0.286 N
ATOM     18  H5  UNL     1     -16.191  -5.302  -9.217  1.00  0.00     0.188 HD
ENDBRANCH  11  12
ENDBRANCH   1  11
TORSDOF 5
ENDMDL