MODEL 2
REMARK VINA RESULT: -4.268085806      1.260      2.287
REMARK  5 active torsions:
REMARK  status: ('A' for Active; 'I' for Inactive)
REMARK    1  A    between atoms: N1_2  and  C2_5
REMARK    2  A    between atoms: C2_5  and  C4_8
REMARK    3  A    between atoms: C4_8  and  N3_9
REMARK    4  A    between atoms: C4_8  and  C5_13
REMARK    5  A    between atoms: N3_9  and  N4_10
ROOT
HETATM    1  C2  UNL     1     -17.203  -7.626  -7.543  1.00  0.00     0.314 C
HETATM    2  C3  UNL     1     -17.753  -6.472  -6.796  1.00  0.00     0.094 C
HETATM    3  N2  UNL     1     -18.164  -5.558  -6.180  1.00  0.00    -0.195 NA
ENDROOT
BRANCH   1   4
HETATM    4  N1  UNL     1     -15.779  -7.658  -7.182  1.00  0.00    -0.061 N
HETATM    5  C1  UNL     1     -15.516  -9.057  -6.833  1.00  0.00     0.268 C
ATOM      6  H12 UNL     1     -15.521  -6.993  -6.454  1.00  0.00     0.278 HD
ATOM      7  H11 UNL     1     -15.160  -7.287  -7.903  1.00  0.00     0.278 HD
ENDBRANCH   1   4
BRANCH   1   8
HETATM    8  C4  UNL     1     -17.411  -7.449  -8.990  1.00  0.00     0.174 C
BRANCH   8   9
HETATM    9  N3  UNL     1     -17.638  -6.068  -9.305  1.00  0.00    -0.138 NA
BRANCH   9  10
HETATM   10  N4  UNL     1     -16.664  -5.536 -10.087  1.00  0.00    -0.348 N
ATOM     11  H42 UNL     1     -15.673  -5.714  -9.929  1.00  0.00     0.172 HD
ATOM     12  H41 UNL     1     -17.032  -4.950 -10.836  1.00  0.00     0.172 HD
ENDBRANCH   9  10
ENDBRANCH   8   9
BRANCH   8  13
HETATM   13  C5  UNL     1     -18.620  -8.194  -9.517  1.00  0.00     0.169 A
HETATM   14  C6  UNL     1     -19.176  -9.310  -8.890  1.00  0.00     0.202 A
HETATM   15  O1  UNL     1     -18.142  -9.602  -9.778  1.00  0.00    -0.379 OA
ENDBRANCH   8  13
ENDBRANCH   1   8
TORSDOF 5
ENDMDL