MODEL 4
REMARK VINA RESULT: -4.651862438      1.737      4.535
REMARK  2 active torsions:
REMARK  status: ('A' for Active; 'I' for Inactive)
REMARK    1  A    between atoms: C3_9  and  C4_10
REMARK    2  A    between atoms: C4_10  and  N4_11
REMARK       I    between atoms: N4_11  and  C5_13
REMARK       I    between atoms: C5_13  and  N5_14
REMARK       I    between atoms: C5_13  and  N6_18
ROOT
HETATM    1  N4  UNL     1     -17.988  -6.799  -9.642  1.00  0.00    -0.369 N
ATOM      2  H4  UNL     1     -17.818  -5.884  -9.226  1.00  0.00     0.157 HD
HETATM    3  C5  UNL     1     -18.056  -7.903  -8.803  1.00  0.00     0.476 C
HETATM    4  N5  UNL     1     -16.780  -7.937  -7.999  1.00  0.00    -0.033 N
ATOM      5  H51 UNL     1     -16.830  -8.748  -7.383  1.00  0.00     0.278 HD
ATOM      6  H52 UNL     1     -16.602  -7.067  -7.499  1.00  0.00     0.278 HD
ATOM      7  H53 UNL     1     -15.942  -7.930  -8.582  1.00  0.00     0.278 HD
HETATM    8  N6  UNL     1     -18.106  -9.176  -9.513  1.00  0.00    -0.033 N
ATOM      9  H61 UNL     1     -18.156  -9.987  -8.896  1.00  0.00     0.278 HD
ATOM     10  H62 UNL     1     -17.319  -9.261 -10.156  1.00  0.00     0.278 HD
ATOM     11  H63 UNL     1     -18.875  -9.184 -10.182  1.00  0.00     0.278 HD
ENDROOT
BRANCH   1  12
HETATM   12  C4  UNL     1     -18.143  -6.883 -11.041  1.00  0.00     0.178 C
BRANCH  12  13
HETATM   13  C3  UNL     1     -17.048  -5.969 -11.610  1.00  0.00     0.068 A
HETATM   14  C2  UNL     1     -16.647  -5.920 -12.932  1.00  0.00     0.049 A
HETATM   15  C1  UNL     1     -17.299  -6.587 -14.078  1.00  0.00     0.072 C
HETATM   16  N1  UNL     1     -15.518  -5.102 -12.964  1.00  0.00    -0.289 N
HETATM   17  N2  UNL     1     -15.341  -4.776 -11.697  1.00  0.00    -0.242 N
ATOM     18  H1  UNL     1     -14.962  -4.823 -13.772  1.00  0.00     0.188 HD
HETATM   19  N3  UNL     1     -16.201  -5.282 -10.951  1.00  0.00    -0.287 N
ATOM     20  H2  UNL     1     -14.585  -4.176 -11.366  1.00  0.00     0.208 HD
ATOM     21  H3  UNL     1     -16.224  -5.161  -9.939  1.00  0.00     0.188 HD
ENDBRANCH  12  13
ENDBRANCH   1  12
TORSDOF 2
ENDMDL