MODEL 1
REMARK VINA RESULT: -5.290168895      0.000      0.000
REMARK  3 active torsions:
REMARK  status: ('A' for Active; 'I' for Inactive)
REMARK    1  A    between atoms: C2_5  and  N3_6
REMARK    2  A    between atoms: N3_6  and  N4_8
REMARK    3  A    between atoms: N4_8  and  C3_10
ROOT
HETATM    1  C1  UNL     1     -18.614  -7.147 -10.906  1.00  0.00     0.198 C
HETATM    2  N1  UNL     1     -17.699  -6.443 -11.807  1.00  0.00    -0.114 N
HETATM    3  N2  UNL     1     -17.769  -6.558 -13.114  1.00  0.00    -0.114 N
ATOM      4  H2  UNL     1     -18.450  -7.133 -13.611  1.00  0.00     0.206 HD
HETATM    5  C2  UNL     1     -16.823  -5.815 -13.701  1.00  0.00     0.726 A
HETATM    6  N5  UNL     1     -16.157  -5.231 -12.686  1.00  0.00    -0.018 N
ATOM      7  H5  UNL     1     -15.367  -4.595 -12.791  1.00  0.00     0.203 HD
HETATM    8  C4  UNL     1     -16.697  -5.618 -11.498  1.00  0.00     0.707 A
HETATM    9  N6  UNL     1     -16.320  -5.265 -10.324  1.00  0.00    -0.233 N
ATOM     10  H61 UNL     1     -15.555  -4.634 -10.087  1.00  0.00     0.174 HD
ATOM     11  H62 UNL     1     -16.725  -5.555  -9.433  1.00  0.00     0.174 HD
ENDROOT
BRANCH   5  12
HETATM   12  N3  UNL     1     -16.613  -5.713 -15.105  1.00  0.00    -0.128 N
ATOM     13  H3  UNL     1     -16.465  -6.573 -15.633  1.00  0.00     0.205 HD
BRANCH  12  14
HETATM   14  N4  UNL     1     -16.599  -4.508 -15.795  1.00  0.00    -0.263 N
ATOM     15  H4  UNL     1     -15.719  -4.111 -16.124  1.00  0.00     0.190 HD
BRANCH  14  16
HETATM   16  C3  UNL     1     -17.826  -3.835 -16.037  1.00  0.00     0.369 C
HETATM   17  O1  UNL     1     -18.828  -4.439 -16.536  1.00  0.00    -0.282 OA
ENDBRANCH  14  16
ENDBRANCH  12  14
ENDBRANCH   5  12
TORSDOF 3
ENDMDL