MODEL 1
REMARK VINA RESULT: -5.655171461      0.000      0.000
REMARK  3 active torsions:
REMARK  status: ('A' for Active; 'I' for Inactive)
REMARK    1  A    between atoms: C3_5  and  N2_6
REMARK    2  A    between atoms: N2_6  and  N3_8
REMARK    3  A    between atoms: N3_8  and  C4_10
ROOT
HETATM    1  N3  UNL     1     -16.874  -6.151  -8.135  1.00  0.00    -0.269 N
ATOM      2  H3  UNL     1     -17.453  -5.602  -7.499  1.00  0.00     0.190 HD
ENDROOT
BRANCH   1   3
HETATM    3  N2  UNL     1     -15.826  -6.908  -7.673  1.00  0.00    -0.283 N
ATOM      4  H2  UNL     1     -14.891  -6.515  -7.785  1.00  0.00     0.188 HD
BRANCH   3   5
HETATM    5  C3  UNL     1     -15.912  -8.188  -7.052  1.00  0.00     0.119 A
HETATM    6  N1  UNL     1     -14.898  -9.046  -6.829  1.00  0.00    -0.351 N
HETATM    7  C2  UNL     1     -15.361 -10.153  -6.203  1.00  0.00     0.090 A
ATOM      8  H1  UNL     1     -13.925  -8.885  -7.091  1.00  0.00     0.166 HD
HETATM    9  C1  UNL     1     -16.721 -10.037  -6.001  1.00  0.00     0.021 A
HETATM   10  C6  UNL     1     -17.048  -8.800  -6.538  1.00  0.00     0.051 A
ENDBRANCH   3   5
ENDBRANCH   1   3
BRANCH   1  11
HETATM   11  C4  UNL     1     -17.122  -6.163  -9.544  1.00  0.00     0.207 A
HETATM   12  N4  UNL     1     -16.546  -5.367 -10.394  1.00  0.00    -0.273 N
HETATM   13  N5  UNL     1     -16.986  -5.608 -11.696  1.00  0.00    -0.119 NA
ATOM     14  H4  UNL     1     -15.861  -4.656 -10.142  1.00  0.00     0.185 HD
HETATM   15  C5  UNL     1     -17.905  -6.739 -11.663  1.00  0.00     0.259 A
HETATM   16  N6  UNL     1     -18.002  -7.014 -10.235  1.00  0.00    -0.345 N
ATOM     17  H6  UNL     1     -18.611  -7.712  -9.807  1.00  0.00     0.164 HD
ENDBRANCH   1  11
TORSDOF 3
ENDMDL