MODEL 4
REMARK VINA RESULT: -4.263789442      1.214      4.565
REMARK  5 active torsions:
REMARK  status: ('A' for Active; 'I' for Inactive)
REMARK    1  A    between atoms: C2_2  and  N1_3
REMARK    2  A    between atoms: N1_3  and  C3_5
REMARK    3  A    between atoms: C4_8  and  C5_9
REMARK    4  A    between atoms: C5_9  and  N3_10
REMARK    5  A    between atoms: N4_14  and  N5_15
ROOT
HETATM    1  C3  UNL     1     -17.953  -6.559 -11.915  1.00  0.00     0.695 A
HETATM    2  N2  UNL     1     -18.089  -6.616 -13.249  1.00  0.00    -0.174 N
ATOM      3  H2  UNL     1     -18.865  -7.048 -13.750  1.00  0.00     0.185 HD
HETATM    4  C4  UNL     1     -17.030  -6.006 -13.817  1.00  0.00     0.163 A
HETATM    5  N4  UNL     1     -16.252  -5.581 -12.822  1.00  0.00    -0.174 N
HETATM    6  N6  UNL     1     -16.805  -5.913 -11.640  1.00  0.00    -0.110 N
ATOM      7  H6  UNL     1     -16.426  -5.713 -10.715  1.00  0.00     0.208 HD
ENDROOT
BRANCH   4   8
HETATM    8  C5  UNL     1     -16.733  -5.815 -15.258  1.00  0.00     0.310 C
BRANCH   8   9
HETATM    9  N3  UNL     1     -16.867  -4.452 -15.678  1.00  0.00    -0.072 N
ATOM     10  H33 UNL     1     -17.849  -4.181 -15.729  1.00  0.00     0.274 HD
ATOM     11  H32 UNL     1     -16.555  -3.813 -14.947  1.00  0.00     0.274 HD
ATOM     12  H31 UNL     1     -16.388  -4.260 -16.558  1.00  0.00     0.274 HD
ENDBRANCH   8   9
ENDBRANCH   4   8
BRANCH   5  13
HETATM   13  N5  UNL     1     -15.048  -4.896 -12.956  1.00  0.00    -0.322 N
ATOM     14  H52 UNL     1     -14.162  -5.338 -13.201  1.00  0.00     0.179 HD
ATOM     15  H51 UNL     1     -14.909  -3.893 -12.830  1.00  0.00     0.179 HD
ENDBRANCH   5  13
BRANCH   1  16
HETATM   16  N1  UNL     1     -18.752  -7.027 -11.025  1.00  0.00    -0.225 N
ATOM     17  H1  UNL     1     -19.711  -7.254 -11.288  1.00  0.00     0.177 HD
BRANCH  16  18
HETATM   18  C2  UNL     1     -18.327  -7.241  -9.655  1.00  0.00     0.134 C
HETATM   19  C1  UNL     1     -18.461  -8.744  -9.400  1.00  0.00     0.027 C
ENDBRANCH  16  18
ENDBRANCH   1  16
TORSDOF 5
ENDMDL