MODEL 1
REMARK VINA RESULT: -7.293556516      0.000      0.000
REMARK  15 active torsions:
REMARK  status: ('A' for Active; 'I' for Inactive)
REMARK    1  A    between atoms: C2_2  and  O2_4
REMARK    2  A    between atoms: O2_4  and  C3_5
REMARK    3  A    between atoms: C3_5  and  C4_6
REMARK    4  A    between atoms: C4_6  and  C5_7
REMARK    5  A    between atoms: C4_6  and  O3_13
REMARK    6  A    between atoms: C5_7  and  C6_8
REMARK    7  A    between atoms: C6_8  and  N1_9
REMARK    8  A    between atoms: O3_13  and  C7_14
REMARK    9  A    between atoms: C11_18  and  C12_19
REMARK   10  A    between atoms: C13_20  and  C19_30
REMARK   11  A    between atoms: C15_22  and  O4_23
REMARK   12  A    between atoms: C15_22  and  C17_28
REMARK   13  A    between atoms: C16_25  and  O5_26
REMARK   14  A    between atoms: C20_31  and  O6_32
REMARK   15  A    between atoms: C21_34  and  N2_35
ROOT
HETATM    1  C7  UNL     1      15.449  -7.651  21.431  1.00  0.00     0.155 C
HETATM    2  C8  UNL     1      16.331  -8.847  21.615  1.00  0.00     0.039 C
HETATM    3  C9  UNL     1      17.189  -8.760  22.884  1.00  0.00    -0.009 C
HETATM    4  C10 UNL     1      17.802 -10.077  23.141  1.00  0.00     0.010 C
HETATM    5  C11 UNL     1      16.332  -8.128  23.911  1.00  0.00     0.027 C
HETATM    6  C20 UNL     1      16.319  -6.640  23.564  1.00  0.00     0.156 C
HETATM    7  C21 UNL     1      15.943  -6.422  22.143  1.00  0.00     0.241 C
ENDROOT
BRANCH   1   8
HETATM    8  O3  UNL     1      15.444  -7.356  20.069  1.00  0.00    -0.376 OA
BRANCH   8   9
HETATM    9  C4  UNL     1      14.188  -7.600  19.487  1.00  0.00     0.147 C
BRANCH   9  10
HETATM   10  C3  UNL     1      14.305  -8.379  18.227  1.00  0.00     0.210 C
BRANCH  10  11
HETATM   11  O2  UNL     1      13.477  -7.991  17.191  1.00  0.00    -0.319 OA
BRANCH  11  12
HETATM   12  C2  UNL     1      13.141  -8.711  16.066  1.00  0.00     0.254 C
HETATM   13  C1  UNL     1      13.835  -9.969  15.682  1.00  0.00     0.126 C
HETATM   14  O1  UNL     1      12.213  -8.274  15.348  1.00  0.00    -0.266 OA
ENDBRANCH  11  12
ENDBRANCH  10  11
ENDBRANCH   9  10
BRANCH   9  15
HETATM   15  C5  UNL     1      13.660  -6.214  19.208  1.00  0.00     0.061 C
BRANCH  15  16
HETATM   16  C6  UNL     1      12.275  -5.930  19.646  1.00  0.00     0.232 C
BRANCH  16  17
HETATM   17  N1  UNL     1      11.459  -5.961  18.407  1.00  0.00    -0.079 N
ATOM     18  H13 UNL     1      10.468  -6.134  18.571  1.00  0.00     0.274 HD
ATOM     19  H12 UNL     1      11.348  -5.049  17.963  1.00  0.00     0.274 HD
ATOM     20  H11 UNL     1      11.905  -6.658  17.810  1.00  0.00     0.274 HD
ENDBRANCH  16  17
ENDBRANCH  15  16
ENDBRANCH   9  15
ENDBRANCH   8   9
ENDBRANCH   1   8
BRANCH   7  21
HETATM   21  N2  UNL     1      17.000  -5.848  21.342  1.00  0.00    -0.070 N
ATOM     22  H23 UNL     1      16.680  -5.538  20.424  1.00  0.00     0.274 HD
ATOM     23  H22 UNL     1      17.313  -4.941  21.688  1.00  0.00     0.274 HD
ATOM     24  H21 UNL     1      17.754  -6.534  21.288  1.00  0.00     0.274 HD
ENDBRANCH   7  21
BRANCH   6  25
HETATM   25  O6  UNL     1      17.570  -6.063  23.775  1.00  0.00    -0.393 OA
ATOM     26  H6  UNL     1      17.555  -5.479  24.524  1.00  0.00     0.210 HD
ENDBRANCH   6  25
BRANCH   5  27
HETATM   27  C12 UNL     1      16.600  -8.414  25.303  1.00  0.00     0.029 C
HETATM   28  C13 UNL     1      15.581  -9.109  26.143  1.00  0.00     0.000 C
HETATM   29  C14 UNL     1      16.278  -8.939  27.524  1.00  0.00     0.046 C
HETATM   30  C15 UNL     1      16.240  -7.426  27.501  1.00  0.00     0.088 C
HETATM   31  C16 UNL     1      16.895  -7.177  26.151  1.00  0.00     0.157 C
BRANCH  28  32
HETATM   32  C19 UNL     1      14.352  -8.250  26.368  1.00  0.00    -0.002 A
HETATM   33  C17 UNL     1      13.147  -9.206  26.231  1.00  0.00     0.027 A
HETATM   34  C18 UNL     1      13.320  -8.063  25.321  1.00  0.00     0.013 A
ENDBRANCH  28  32
BRANCH  30  35
HETATM   35  O4  UNL     1      16.875  -6.832  28.540  1.00  0.00    -0.387 OA
ATOM     36  H4  UNL     1      17.290  -6.004  28.328  1.00  0.00     0.210 HD
ENDBRANCH  30  35
BRANCH  31  37
HETATM   37  O5  UNL     1      18.238  -6.980  26.359  1.00  0.00    -0.392 OA
ATOM     38  H5  UNL     1      18.436  -6.116  26.701  1.00  0.00     0.210 HD
ENDBRANCH  31  37
ENDBRANCH   5  27
TORSDOF 15
ENDMDL