MODEL 3
REMARK VINA RESULT: -6.860737175      1.469      1.741
REMARK  8 active torsions:
REMARK  status: ('A' for Active; 'I' for Inactive)
REMARK    1  A    between atoms: C1_2  and  C2_4
REMARK    2  A    between atoms: C3_5  and  C4_6
REMARK    3  A    between atoms: C5_9  and  O4_10
REMARK    4  A    between atoms: C5_9  and  C12_17
REMARK    5  A    between atoms: O4_10  and  C6_11
REMARK    6  A    between atoms: C16_24  and  O7_25
REMARK    7  A    between atoms: C17_27  and  C18_28
REMARK    8  A    between atoms: C18_28  and  O8_29
ROOT
HETATM    1  C2  UNL     1      17.643  -8.131  25.378  1.00  0.00     0.112 C
HETATM    2  C3  UNL     1      19.020  -8.619  25.551  1.00  0.00     0.147 C
HETATM    3  C5  UNL     1      19.304  -9.874  26.272  1.00  0.00     0.171 C
HETATM    4  C13 UNL     1      18.496  -9.969  27.599  1.00  0.00     0.125 C
HETATM    5  S1  UNL     1      16.784 -10.126  27.071  1.00  0.00    -0.154 SA
HETATM    6  C14 UNL     1      16.516  -8.528  26.213  1.00  0.00     0.031 A
HETATM    7  C15 UNL     1      15.161  -8.638  25.482  1.00  0.00     0.054 A
HETATM    8  C16 UNL     1      14.508  -7.664  26.401  1.00  0.00     0.127 A
HETATM    9  C17 UNL     1      15.841  -7.584  27.138  1.00  0.00     0.058 A
ENDROOT
BRANCH   3  10
HETATM   10  O4  UNL     1      20.556  -9.998  26.813  1.00  0.00    -0.362 OA
BRANCH  10  11
HETATM   11  C6  UNL     1      21.020  -9.456  27.895  1.00  0.00     0.123 C
HETATM   12  C7  UNL     1      21.929 -10.514  28.585  1.00  0.00     0.032 C
HETATM   13  C8  UNL     1      22.227 -10.073  30.000  1.00  0.00     0.002 C
HETATM   14  C9  UNL     1      22.453  -8.574  30.016  1.00  0.00     0.000 C
HETATM   15  C10 UNL     1      23.027  -8.152  28.679  1.00  0.00     0.002 C
HETATM   16  C11 UNL     1      22.039  -8.351  27.543  1.00  0.00     0.032 C
ENDBRANCH  10  11
ENDBRANCH   3  10
BRANCH   3  17
HETATM   17  C12 UNL     1      18.867 -11.108  25.545  1.00  0.00     0.211 C
HETATM   18  O5  UNL     1      18.078 -11.124  24.568  1.00  0.00    -0.646 OA
HETATM   19  O6  UNL     1      19.302 -12.383  25.890  1.00  0.00    -0.646 OA
ENDBRANCH   3  17
BRANCH   2  20
HETATM   20  C4  UNL     1      19.686  -8.604  24.228  1.00  0.00     0.181 C
HETATM   21  O2  UNL     1      19.127  -8.709  23.113  1.00  0.00    -0.648 OA
HETATM   22  O3  UNL     1      21.062  -8.469  24.171  1.00  0.00    -0.648 OA
ENDBRANCH   2  20
BRANCH   1  23
HETATM   23  C1  UNL     1      17.669  -6.650  25.236  1.00  0.00     0.237 C
HETATM   24  N1  UNL     1      16.983  -6.066  24.131  1.00  0.00    -0.062 NA
HETATM   25  O1  UNL     1      18.256  -5.863  26.021  1.00  0.00    -0.276 OA
ENDBRANCH   1  23
BRANCH   9  26
HETATM   26  C18 UNL     1      15.614  -8.109  28.553  1.00  0.00     0.172 C
BRANCH  26  27
HETATM   27  O8  UNL     1      16.444  -7.446  29.461  1.00  0.00    -0.400 OA
ATOM     28  H8  UNL     1      15.944  -7.141  30.209  1.00  0.00     0.209 HD
ENDBRANCH  26  27
ENDBRANCH   9  26
BRANCH   8  29
HETATM   29  O7  UNL     1      14.104  -6.462  25.813  1.00  0.00    -0.395 OA
ATOM     30  H7  UNL     1      13.541  -5.915  26.348  1.00  0.00     0.210 HD
ENDBRANCH   8  29
TORSDOF 8
ENDMDL