MODEL 3
REMARK VINA RESULT: -7.170210997      5.364      9.075
REMARK  12 active torsions:
REMARK  status: ('A' for Active; 'I' for Inactive)
REMARK    1  A    between atoms: C3_3  and  C4_4
REMARK    2  A    between atoms: C5_5  and  C6_6
REMARK    3  A    between atoms: C7_7  and  C8_8
REMARK    4  A    between atoms: C8_8  and  O1_9
REMARK    5  A    between atoms: C8_8  and  C9_11
REMARK    6  A    between atoms: C9_11  and  C10_12
REMARK    7  A    between atoms: C10_12  and  O2_13
REMARK    8  A    between atoms: C13_18  and  O4_19
REMARK    9  A    between atoms: C15_22  and  O5_23
REMARK   10  A    between atoms: C19_29  and  O7_30
REMARK   11  A    between atoms: C19_29  and  C20_32
REMARK   12  A    between atoms: C20_32  and  O8_34
ROOT
HETATM    1  C6  UNL     1      20.810  -8.510  28.419  1.00  0.00     0.053 C
HETATM    2  C7  UNL     1      21.792  -8.576  27.298  1.00  0.00     0.159 C
HETATM    3  O3  UNL     1      22.977  -8.124  27.826  1.00  0.00    -0.376 OA
HETATM    4  C11 UNL     1      22.954  -8.154  29.192  1.00  0.00     0.136 C
HETATM    5  C12 UNL     1      23.217  -6.770  29.709  1.00  0.00     0.064 C
HETATM    6  C13 UNL     1      23.232  -6.910  31.238  1.00  0.00     0.123 C
HETATM    7  C14 UNL     1      21.800  -7.107  31.627  1.00  0.00     0.064 C
HETATM    8  C15 UNL     1      21.005  -8.032  30.797  1.00  0.00     0.132 C
HETATM    9  C16 UNL     1      21.631  -8.719  29.659  1.00  0.00     0.018 C
HETATM   10  C17 UNL     1      21.888 -10.167  29.983  1.00  0.00     0.021 C
ENDROOT
BRANCH   1  11
HETATM   11  C5  UNL     1      19.551  -9.183  28.270  1.00  0.00    -0.020 C
HETATM   12  C4  UNL     1      18.503  -8.828  27.615  1.00  0.00     0.006 C
BRANCH  12  13
HETATM   13  C3  UNL     1      17.251  -9.646  27.557  1.00  0.00     0.175 C
HETATM   14  C2  UNL     1      16.042  -8.782  27.693  1.00  0.00    -0.018 C
HETATM   15  C1  UNL     1      16.043  -7.570  28.205  1.00  0.00     0.020 C
HETATM   16  C19 UNL     1      14.958  -9.608  27.140  1.00  0.00     0.130 C
HETATM   17  C18 UNL     1      15.730 -10.613  26.303  1.00  0.00     0.214 C
HETATM   18  O6  UNL     1      17.050 -10.188  26.295  1.00  0.00    -0.374 OA
BRANCH  16  19
HETATM   19  O7  UNL     1      14.285 -10.294  28.150  1.00  0.00    -0.380 OA
ATOM     20  H7  UNL     1      13.416  -9.936  28.287  1.00  0.00     0.211 HD
ENDBRANCH  16  19
BRANCH  16  21
HETATM   21  C20 UNL     1      13.960  -8.848  26.324  1.00  0.00     0.155 C
HETATM   22  C21 UNL     1      14.623  -8.219  25.117  1.00  0.00     0.042 C
BRANCH  21  23
HETATM   23  O8  UNL     1      12.896  -9.590  25.893  1.00  0.00    -0.393 OA
ATOM     24  H8  UNL     1      12.054  -9.158  25.977  1.00  0.00     0.210 HD
ENDBRANCH  21  23
ENDBRANCH  16  21
ENDBRANCH  12  13
ENDBRANCH   1  11
BRANCH   2  25
HETATM   25  C8  UNL     1      21.930  -9.868  26.588  1.00  0.00     0.149 C
BRANCH  25  26
HETATM   26  O1  UNL     1      21.485  -9.758  25.252  1.00  0.00    -0.393 OA
ATOM     27  H1  UNL     1      21.297 -10.614  24.886  1.00  0.00     0.210 HD
ENDBRANCH  25  26
BRANCH  25  28
HETATM   28  C9  UNL     1      23.371 -10.332  26.472  1.00  0.00     0.060 C
BRANCH  28  29
HETATM   29  C10 UNL     1      23.883 -10.398  25.072  1.00  0.00     0.166 C
BRANCH  29  30
HETATM   30  O2  UNL     1      24.363  -9.141  24.642  1.00  0.00    -0.401 OA
ATOM     31  H2  UNL     1      24.616  -9.163  23.726  1.00  0.00     0.209 HD
ENDBRANCH  29  30
ENDBRANCH  28  29
ENDBRANCH  25  28
ENDBRANCH   2  25
BRANCH   8  32
HETATM   32  O5  UNL     1      19.820  -7.336  30.434  1.00  0.00    -0.395 OA
ATOM     33  H5  UNL     1      19.287  -7.947  29.939  1.00  0.00     0.210 HD
ENDBRANCH   8  32
BRANCH   6  34
HETATM   34  O4  UNL     1      23.689  -5.687  31.729  1.00  0.00    -0.395 OA
ATOM     35  H4  UNL     1      23.387  -5.639  32.628  1.00  0.00     0.210 HD
ENDBRANCH   6  34
TORSDOF 12
ENDMDL