MODEL 4
REMARK VINA RESULT: -7.127098250      3.272      6.342
REMARK  10 active torsions:
REMARK  status: ('A' for Active; 'I' for Inactive)
REMARK    1  A    between atoms: C2_2  and  C4_4
REMARK    2  A    between atoms: C5_5  and  C6_6
REMARK    3  A    between atoms: C6_6  and  C8_8
REMARK    4  A    between atoms: C9_10  and  C10_11
REMARK    5  A    between atoms: C10_11  and  C13_14
REMARK    6  A    between atoms: C13_14  and  O2_15
REMARK    7  A    between atoms: C13_14  and  C14_17
REMARK    8  A    between atoms: C17_22  and  O5_23
REMARK    9  A    between atoms: C18_25  and  O6_26
REMARK   10  A    between atoms: C19_28  and  O7_29
ROOT
HETATM    1  C8  UNL     1      19.852  -9.249  26.677  1.00  0.00     0.141 C
HETATM    2  O1  UNL     1      18.616  -9.272  27.326  1.00  0.00    -0.377 OA
HETATM    3  C9  UNL     1      17.794  -9.112  26.179  1.00  0.00     0.144 C
HETATM    4  C15 UNL     1      18.120 -10.241  25.378  1.00  0.00     0.024 C
HETATM    5  C16 UNL     1      18.097  -9.755  23.897  1.00  0.00     0.021 C
HETATM    6  C17 UNL     1      17.591 -11.577  25.345  1.00  0.00     0.161 C
HETATM    7  C18 UNL     1      17.843 -12.562  26.463  1.00  0.00     0.183 C
HETATM    8  C19 UNL     1      19.000 -12.178  27.356  1.00  0.00     0.219 C
HETATM    9  C20 UNL     1      19.968 -11.596  26.390  1.00  0.00     0.165 C
HETATM   10  O8  UNL     1      21.029 -12.156  26.209  1.00  0.00    -0.295 OA
HETATM   11  C21 UNL     1      19.636 -10.362  25.670  1.00  0.00     0.101 C
ENDROOT
BRANCH   3  12
HETATM   12  C10 UNL     1      16.539  -8.503  26.547  1.00  0.00     0.015 C
HETATM   13  C11 UNL     1      15.382  -8.592  25.583  1.00  0.00     0.020 C
HETATM   14  C12 UNL     1      16.661  -7.030  26.922  1.00  0.00     0.020 C
BRANCH  12  15
HETATM   15  C13 UNL     1      16.033  -9.291  27.771  1.00  0.00     0.229 C
BRANCH  15  16
HETATM   16  O2  UNL     1      15.138 -10.291  27.424  1.00  0.00    -0.384 OA
ATOM     17  H2  UNL     1      15.570 -11.054  27.058  1.00  0.00     0.210 HD
ENDBRANCH  15  16
BRANCH  15  18
HETATM   18  C14 UNL     1      15.475  -8.498  28.874  1.00  0.00     0.203 C
HETATM   19  O3  UNL     1      16.132  -8.572  30.091  1.00  0.00    -0.646 OA
HETATM   20  O4  UNL     1      14.085  -8.542  29.003  1.00  0.00    -0.646 OA
ENDBRANCH  15  18
ENDBRANCH  12  15
ENDBRANCH   3  12
BRANCH   1  21
HETATM   21  C6  UNL     1      21.024  -9.510  27.568  1.00  0.00     0.033 C
HETATM   22  C7  UNL     1      22.162  -8.632  27.040  1.00  0.00     0.017 C
BRANCH  21  23
HETATM   23  C5  UNL     1      20.682  -9.094  28.945  1.00  0.00    -0.024 C
HETATM   24  C4  UNL     1      21.592  -8.524  29.706  1.00  0.00    -0.026 C
BRANCH  24  25
HETATM   25  C2  UNL     1      21.292  -8.088  31.101  1.00  0.00    -0.001 C
HETATM   26  C1  UNL     1      19.819  -7.862  31.327  1.00  0.00     0.013 C
HETATM   27  C3  UNL     1      21.992  -6.769  31.409  1.00  0.00     0.013 C
ENDBRANCH  24  25
ENDBRANCH  21  23
ENDBRANCH   1  21
BRANCH   6  28
HETATM   28  O5  UNL     1      16.264 -11.784  24.990  1.00  0.00    -0.392 OA
ATOM     29  H5  UNL     1      15.583 -11.245  25.377  1.00  0.00     0.210 HD
ENDBRANCH   6  28
BRANCH   7  30
HETATM   30  O6  UNL     1      16.690 -12.898  27.175  1.00  0.00    -0.390 OA
ATOM     31  H6  UNL     1      15.920 -12.984  26.627  1.00  0.00     0.210 HD
ENDBRANCH   7  30
BRANCH   8  32
HETATM   32  O7  UNL     1      19.527 -13.358  27.924  1.00  0.00    -0.385 OA
ATOM     33  H7  UNL     1      19.950 -13.855  27.233  1.00  0.00     0.210 HD
ENDBRANCH   8  32
TORSDOF 10
ENDMDL