MODEL 1
REMARK VINA RESULT: -8.171382897      0.000      0.000
REMARK  6 active torsions:
REMARK  status: ('A' for Active; 'I' for Inactive)
REMARK       I    between atoms: C1_4  and  N3_6
REMARK    1  A    between atoms: N3_6  and  N4_8
REMARK    2  A    between atoms: C9_21  and  C10_22
REMARK       I    between atoms: C10_22  and  N5_24
REMARK    3  A    between atoms: N5_24  and  C11_26
REMARK    4  A    between atoms: C11_26  and  C12_27
REMARK    5  A    between atoms: C11_26  and  C14_30
REMARK    6  A    between atoms: C12_27  and  C13_28
ROOT
HETATM    1  N4  UNL     1      12.633  -5.799  18.608  1.00  0.00    -0.307 N
ATOM      2  H4  UNL     1      11.943  -5.116  18.922  1.00  0.00     0.186 HD
HETATM    3  C2  UNL     1      13.181  -6.591  19.442  1.00  0.00     0.004 C
HETATM    4  C3  UNL     1      12.880  -6.597  20.897  1.00  0.00     0.057 C
HETATM    5  C4  UNL     1      13.757  -7.695  21.514  1.00  0.00     0.045 C
HETATM    6  C5  UNL     1      15.195  -7.503  21.223  1.00  0.00     0.088 C
HETATM    7  C6  UNL     1      15.460  -7.267  19.742  1.00  0.00     0.045 C
HETATM    8  C7  UNL     1      14.195  -7.593  18.982  1.00  0.00     0.057 C
HETATM    9  O1  UNL     1      15.879  -8.638  21.637  1.00  0.00    -0.364 OA
HETATM   10  C8  UNL     1      17.218  -8.507  21.401  1.00  0.00     0.309 C
HETATM   11  S1  UNL     1      17.509  -6.742  21.644  1.00  0.00     0.182 S
HETATM   12  O2  UNL     1      18.396  -6.480  22.800  1.00  0.00    -0.225 OA
HETATM   13  O3  UNL     1      17.950  -6.090  20.389  1.00  0.00    -0.225 OA
HETATM   14  C9  UNL     1      15.778  -6.371  22.023  1.00  0.00     0.236 C
ENDROOT
BRANCH  14  15
HETATM   15  C10 UNL     1      15.589  -6.531  23.447  1.00  0.00     0.240 C
HETATM   16  O4  UNL     1      15.915  -5.541  24.204  1.00  0.00    -0.272 OA
HETATM   17  N5  UNL     1      15.083  -7.661  24.135  1.00  0.00    -0.345 N
ATOM     18  H5  UNL     1      14.803  -8.481  23.597  1.00  0.00     0.163 HD
BRANCH  17  19
HETATM   19  C11 UNL     1      14.948  -7.689  25.587  1.00  0.00     0.186 C
BRANCH  19  20
HETATM   20  C12 UNL     1      15.846  -8.745  26.173  1.00  0.00     0.047 C
BRANCH  20  21
HETATM   21  C13 UNL     1      16.381  -8.451  27.536  1.00  0.00     0.088 C
HETATM   22  S2  UNL     1      17.053  -6.732  27.437  1.00  0.00    -0.098 SA
ENDBRANCH  20  21
ENDBRANCH  19  20
BRANCH  19  23
HETATM   23  C14 UNL     1      13.549  -7.943  25.952  1.00  0.00     0.196 C
HETATM   24  O5  UNL     1      13.083  -9.112  25.736  1.00  0.00    -0.646 OA
HETATM   25  O6  UNL     1      12.680  -7.021  26.512  1.00  0.00    -0.646 OA
ENDBRANCH  19  23
ENDBRANCH  17  19
ENDBRANCH  14  15
BRANCH   1  26
HETATM   26  N3  UNL     1      12.988  -5.877  17.262  1.00  0.00    -0.274 N
HETATM   27  C1  UNL     1      12.103  -6.402  16.267  1.00  0.00     0.200 C
HETATM   28  N1  UNL     1      10.866  -6.059  16.158  1.00  0.00    -0.372 N
HETATM   29  N2  UNL     1      12.607  -7.353  15.349  1.00  0.00    -0.062 NA
ATOM     30  H12 UNL     1      10.235  -6.433  15.449  1.00  0.00     0.158 HD
ATOM     31  H11 UNL     1      10.502  -5.374  16.821  1.00  0.00     0.158 HD
ATOM     32  H3  UNL     1      13.910  -5.549  16.976  1.00  0.00     0.189 HD
ENDBRANCH   1  26
TORSDOF 6
ENDMDL