MODEL 1
REMARK VINA RESULT: -9.115081258      0.000      0.000
REMARK  10 active torsions:
REMARK  status: ('A' for Active; 'I' for Inactive)
REMARK    1  A    between atoms: C5_5  and  O1_7
REMARK    2  A    between atoms: O1_7  and  C7_8
REMARK    3  A    between atoms: C7_8  and  C8_10
REMARK    4  A    between atoms: C8_10  and  N1_11
REMARK       I    between atoms: N1_11  and  C9_13
REMARK    5  A    between atoms: C9_13  and  C10_15
REMARK    6  A    between atoms: C10_15  and  O4_16
REMARK    7  A    between atoms: C15_22  and  O5_23
REMARK    8  A    between atoms: C15_22  and  C16_25
REMARK    9  A    between atoms: C17_28  and  C18_29
REMARK   10  A    between atoms: C18_29  and  O8_30
ROOT
HETATM    1  C10 UNL     1      15.428  -7.751  25.740  1.00  0.00     0.147 C
HETATM    2  C11 UNL     1      14.217  -8.570  26.115  1.00  0.00     0.049 C
HETATM    3  C12 UNL     1      13.947  -8.524  27.600  1.00  0.00     0.011 C
HETATM    4  C13 UNL     1      15.197  -8.155  28.372  1.00  0.00     0.027 C
HETATM    5  C14 UNL     1      15.078  -8.519  29.836  1.00  0.00     0.014 C
HETATM    6  C15 UNL     1      16.408  -8.788  27.730  1.00  0.00     0.157 C
HETATM    7  C17 UNL     1      16.690  -8.136  26.430  1.00  0.00     0.099 C
ENDROOT
BRANCH   1   8
HETATM    8  C9  UNL     1      15.608  -7.953  24.255  1.00  0.00     0.253 C
HETATM    9  N1  UNL     1      15.175  -6.970  23.330  1.00  0.00    -0.349 N
ATOM     10  H1  UNL     1      14.733  -6.119  23.678  1.00  0.00     0.163 HD
HETATM   11  O3  UNL     1      16.147  -8.994  23.806  1.00  0.00    -0.270 OA
BRANCH   9  12
HETATM   12  C8  UNL     1      15.341  -7.145  21.926  1.00  0.00     0.233 C
BRANCH  12  13
HETATM   13  C7  UNL     1      14.865  -6.006  21.101  1.00  0.00     0.279 C
HETATM   14  O2  UNL     1      15.415  -4.869  21.074  1.00  0.00    -0.263 OA
BRANCH  13  15
HETATM   15  O1  UNL     1      13.746  -6.116  20.275  1.00  0.00    -0.282 OA
BRANCH  15  16
HETATM   16  C5  UNL     1      13.765  -6.651  18.994  1.00  0.00     0.170 C
HETATM   17  C4  UNL     1      12.517  -6.417  18.192  1.00  0.00     0.073 C
HETATM   18  C3  UNL     1      12.867  -6.770  16.738  1.00  0.00     0.041 C
HETATM   19  C2  UNL     1      13.346  -8.181  16.772  1.00  0.00    -0.066 C
HETATM   20  C1  UNL     1      12.970  -9.013  15.781  1.00  0.00     0.016 C
HETATM   21  C19 UNL     1      14.208  -8.631  17.877  1.00  0.00     0.205 C
HETATM   22  O9  UNL     1      13.978  -8.011  19.076  1.00  0.00    -0.351 OA
HETATM   23  C6  UNL     1      14.898  -5.939  18.240  1.00  0.00     0.079 C
ENDBRANCH  15  16
ENDBRANCH  13  15
ENDBRANCH  12  13
ENDBRANCH   9  12
ENDBRANCH   1   8
BRANCH   1  24
HETATM   24  O4  UNL     1      15.219  -6.391  25.952  1.00  0.00    -0.380 OA
ATOM     25  H4  UNL     1      14.386  -6.298  26.399  1.00  0.00     0.211 HD
ENDBRANCH   1  24
BRANCH   7  26
HETATM   26  C18 UNL     1      17.688  -6.998  26.486  1.00  0.00     0.175 C
BRANCH  26  27
HETATM   27  O8  UNL     1      17.242  -6.003  27.390  1.00  0.00    -0.400 OA
ATOM     28  H8  UNL     1      17.175  -5.165  26.948  1.00  0.00     0.209 HD
ENDBRANCH  26  27
ENDBRANCH   7  26
BRANCH   6  29
HETATM   29  O5  UNL     1      16.060 -10.133  27.436  1.00  0.00    -0.378 OA
ATOM     30  H5  UNL     1      16.565 -10.682  28.024  1.00  0.00     0.211 HD
ENDBRANCH   6  29
BRANCH   6  31
HETATM   31  C16 UNL     1      17.521  -8.844  28.683  1.00  0.00     0.210 C
HETATM   32  O6  UNL     1      18.298  -9.851  28.790  1.00  0.00    -0.646 OA
HETATM   33  O7  UNL     1      17.813  -7.797  29.547  1.00  0.00    -0.646 OA
ENDBRANCH   6  31
TORSDOF 10
ENDMDL