MODEL 3
REMARK VINA RESULT: -7.204320698      2.335      4.666
REMARK  10 active torsions:
REMARK  status: ('A' for Active; 'I' for Inactive)
REMARK    1  A    between atoms: C2_2  and  O1_3
REMARK    2  A    between atoms: C6_8  and  C7_9
REMARK    3  A    between atoms: C7_9  and  O2_10
REMARK    4  A    between atoms: C9_13  and  C10_14
REMARK    5  A    between atoms: C10_14  and  O3_15
REMARK    6  A    between atoms: C11_18  and  C12_19
REMARK    7  A    between atoms: C13_22  and  O7_23
REMARK    8  A    between atoms: O7_23  and  C14_24
REMARK    9  A    between atoms: C14_24  and  C15_25
REMARK   10  A    between atoms: C17_29  and  O10_30
ROOT
HETATM    1  C1  UNL     1      17.004  -6.065  27.341  1.00  0.00     0.047 C
HETATM    2  C2  UNL     1      16.937  -7.226  26.318  1.00  0.00     0.068 C
HETATM    3  C3  UNL     1      18.036  -8.099  26.628  1.00  0.00     0.025 C
HETATM    4  C4  UNL     1      19.166  -7.514  27.519  1.00  0.00     0.009 C
HETATM    5  C5  UNL     1      19.926  -8.847  27.680  1.00  0.00     0.012 C
HETATM    6  C6  UNL     1      19.607  -9.664  26.416  1.00  0.00    -0.012 C
HETATM    7  C8  UNL     1      18.630 -10.751  26.625  1.00  0.00     0.055 C
HETATM    8  C9  UNL     1      17.455 -10.859  25.697  1.00  0.00     0.110 C
HETATM    9  O4  UNL     1      16.447 -10.085  25.734  1.00  0.00    -0.350 OA
HETATM   10  C11 UNL     1      15.605  -9.408  26.382  1.00  0.00     0.185 A
HETATM   11  C13 UNL     1      14.798  -8.425  25.441  1.00  0.00     0.178 A
HETATM   12  C16 UNL     1      15.620  -7.915  26.538  1.00  0.00     0.101 A
HETATM   13  C17 UNL     1      18.048 -10.605  24.289  1.00  0.00     0.155 C
HETATM   14  C18 UNL     1      18.411  -9.140  24.322  1.00  0.00     0.041 C
HETATM   15  C19 UNL     1      18.922  -8.611  25.571  1.00  0.00     0.005 C
ENDROOT
BRANCH  11  16
HETATM   16  O7  UNL     1      13.440  -8.386  25.542  1.00  0.00    -0.371 OA
BRANCH  16  17
HETATM   17  C14 UNL     1      12.895  -8.001  24.320  1.00  0.00     0.281 C
BRANCH  17  18
HETATM   18  C15 UNL     1      11.579  -8.683  24.119  1.00  0.00     0.197 C
HETATM   19  O8  UNL     1      11.363  -9.803  24.626  1.00  0.00    -0.646 OA
HETATM   20  O9  UNL     1      10.596  -8.056  23.361  1.00  0.00    -0.646 OA
ENDBRANCH  17  18
ENDBRANCH  16  17
ENDBRANCH  11  16
BRANCH  10  21
HETATM   21  C12 UNL     1      14.590 -10.155  27.230  1.00  0.00     0.212 C
HETATM   22  O5  UNL     1      14.407  -9.762  28.403  1.00  0.00    -0.646 OA
HETATM   23  O6  UNL     1      13.895 -11.218  26.748  1.00  0.00    -0.646 OA
ENDBRANCH  10  21
BRANCH   2  24
HETATM   24  O1  UNL     1      16.989  -6.558  25.096  1.00  0.00    -0.389 OA
ATOM     25  H1  UNL     1      16.233  -5.985  25.141  1.00  0.00     0.210 HD
ENDBRANCH   2  24
BRANCH   8  26
HETATM   26  C10 UNL     1      17.150 -12.385  25.705  1.00  0.00     0.204 C
BRANCH  26  27
HETATM   27  O3  UNL     1      15.923 -12.684  25.200  1.00  0.00    -0.398 OA
ATOM     28  H3  UNL     1      15.376 -13.161  25.812  1.00  0.00     0.209 HD
ENDBRANCH  26  27
ENDBRANCH   8  26
BRANCH  13  29
HETATM   29  O10 UNL     1      16.988 -10.837  23.392  1.00  0.00    -0.392 OA
ATOM     30  H10 UNL     1      16.846 -10.008  22.952  1.00  0.00     0.210 HD
ENDBRANCH  13  29
BRANCH   6  31
HETATM   31  C7  UNL     1      20.945 -10.072  25.871  1.00  0.00     0.174 C
BRANCH  31  32
HETATM   32  O2  UNL     1      21.738  -8.942  25.626  1.00  0.00    -0.400 OA
ATOM     33  H2  UNL     1      22.428  -9.149  25.007  1.00  0.00     0.209 HD
ENDBRANCH  31  32
ENDBRANCH   6  31
TORSDOF 10
ENDMDL