MODEL 3
REMARK VINA RESULT: -7.478621929      1.491      1.577
REMARK  7 active torsions:
REMARK  status: ('A' for Active; 'I' for Inactive)
REMARK    1  A    between atoms: N1_2  and  C2_5
REMARK    2  A    between atoms: C2_5  and  C4_7
REMARK    3  A    between atoms: C4_7  and  O1_8
REMARK    4  A    between atoms: C4_7  and  N2_10
REMARK    5  A    between atoms: N2_10  and  C5_12
REMARK    6  A    between atoms: C5_12  and  C6_13
REMARK       I    between atoms: C6_13  and  N3_15
REMARK    7  A    between atoms: N3_15  and  C7_17
ROOT
HETATM    1  C5  UNL     1      14.564  -7.639  25.547  1.00  0.00     0.210 C
HETATM    2  C11 UNL     1      15.185  -6.421  26.064  1.00  0.00     0.096 C
HETATM    3  C12 UNL     1      16.553  -6.402  26.636  1.00  0.00     0.188 C
HETATM    4  N4  UNL     1      17.615  -6.371  25.643  1.00  0.00    -0.068 NA
HETATM    5  N5  UNL     1      16.692  -7.250  27.687  1.00  0.00    -0.407 NA
HETATM    6  C13 UNL     1      17.135  -7.924  28.537  1.00  0.00     0.157 C
HETATM    7  C14 UNL     1      16.158  -8.684  29.437  1.00  0.00     0.069 C
HETATM    8  C15 UNL     1      14.733  -8.372  28.930  1.00  0.00     0.109 C
HETATM    9  C16 UNL     1      14.622  -9.126  27.658  1.00  0.00     0.220 C
HETATM   10  O3  UNL     1      14.994 -10.357  27.788  1.00  0.00    -0.274 OA
HETATM   11  N6  UNL     1      14.192  -8.696  26.411  1.00  0.00    -0.324 N
ATOM     12  H6  UNL     1      13.440  -9.271  26.032  1.00  0.00     0.165 HD
ENDROOT
BRANCH   1  13
HETATM   13  N2  UNL     1      13.357  -7.220  24.843  1.00  0.00    -0.358 N
ATOM     14  H2  UNL     1      13.257  -6.245  24.564  1.00  0.00     0.159 HD
BRANCH  13  15
HETATM   15  C4  UNL     1      12.355  -8.105  24.550  1.00  0.00     0.246 C
BRANCH  15  16
HETATM   16  C2  UNL     1      11.684  -8.070  23.199  1.00  0.00     0.229 C
HETATM   17  C3  UNL     1      10.315  -7.380  23.387  1.00  0.00     0.044 C
BRANCH  16  18
HETATM   18  N1  UNL     1      12.444  -7.407  22.181  1.00  0.00    -0.071 N
HETATM   19  C1  UNL     1      11.619  -6.983  21.079  1.00  0.00     0.267 C
ATOM     20  H12 UNL     1      13.219  -7.988  21.861  1.00  0.00     0.277 HD
ATOM     21  H11 UNL     1      12.976  -6.626  22.567  1.00  0.00     0.277 HD
ENDBRANCH  16  18
ENDBRANCH  15  16
BRANCH  15  22
HETATM   22  O1  UNL     1      11.315  -7.928  25.500  1.00  0.00    -0.375 OA
ATOM     23  H1  UNL     1      11.619  -7.248  26.089  1.00  0.00     0.212 HD
ENDBRANCH  15  22
ENDBRANCH  13  15
ENDBRANCH   1  13
BRANCH   1  24
HETATM   24  C6  UNL     1      15.453  -8.173  24.465  1.00  0.00     0.272 C
HETATM   25  O2  UNL     1      15.924  -9.318  24.617  1.00  0.00    -0.268 OA
HETATM   26  N3  UNL     1      15.778  -7.443  23.297  1.00  0.00    -0.343 N
ATOM     27  H3  UNL     1      15.401  -6.504  23.166  1.00  0.00     0.163 HD
BRANCH  26  28
HETATM   28  C7  UNL     1      16.649  -8.024  22.277  1.00  0.00     0.156 C
HETATM   29  C8  UNL     1      15.947  -8.185  20.956  1.00  0.00     0.110 C
HETATM   30  S1  UNL     1      17.172  -8.264  19.627  1.00  0.00    -0.166 SA
HETATM   31  C9  UNL     1      18.701  -9.014  20.264  1.00  0.00     0.084 C
HETATM   32  C10 UNL     1      19.371  -8.058  21.238  1.00  0.00     0.086 C
HETATM   33  S2  UNL     1      18.113  -6.967  21.996  1.00  0.00    -0.142 SA
ENDBRANCH  26  28
ENDBRANCH   1  24
TORSDOF 7
ENDMDL