MODEL 1
REMARK VINA RESULT: -7.215485865      0.000      0.000
REMARK  11 active torsions:
REMARK  status: ('A' for Active; 'I' for Inactive)
REMARK    1  A    between atoms: C2_2  and  C3_3
REMARK    2  A    between atoms: C2_2  and  C5_8
REMARK    3  A    between atoms: C3_3  and  C4_4
REMARK    4  A    between atoms: C6_9  and  O1_10
REMARK    5  A    between atoms: C7_12  and  O2_13
REMARK    6  A    between atoms: C8_15  and  O3_16
REMARK    7  A    between atoms: C9_18  and  S1_19
REMARK    8  A    between atoms: S1_19  and  C10_20
REMARK    9  A    between atoms: C11_21  and  N2_22
REMARK   10  A    between atoms: N2_22  and  O4_23
REMARK   11  A    between atoms: C17_31  and  C18_32
ROOT
HETATM    1  C5  UNL     1      15.885  -9.390  27.976  1.00  0.00     0.115 C
HETATM    2  C6  UNL     1      15.348  -8.252  28.787  1.00  0.00     0.172 C
HETATM    3  C7  UNL     1      16.248  -7.809  29.897  1.00  0.00     0.180 C
HETATM    4  C8  UNL     1      17.614  -8.510  29.843  1.00  0.00     0.182 C
HETATM    5  C9  UNL     1      18.059  -8.387  28.416  1.00  0.00     0.173 C
HETATM    6  N4  UNL     1      17.264  -9.331  27.654  1.00  0.00    -0.394 N
HETATM    7  C19 UNL     1      17.904 -10.585  27.443  1.00  0.00     0.145 C
ENDROOT
BRANCH   5   8
HETATM    8  S1  UNL     1      19.734  -8.727  28.065  1.00  0.00    -0.133 SA
BRANCH   8   9
HETATM    9  C10 UNL     1      20.741  -9.618  29.206  1.00  0.00     0.104 C
HETATM   10  C11 UNL     1      21.781  -8.756  29.822  1.00  0.00     0.124 C
HETATM   11  C12 UNL     1      23.019  -8.580  28.992  1.00  0.00     0.061 C
HETATM   12  C13 UNL     1      23.340  -9.791  28.152  1.00  0.00     0.230 C
HETATM   13  C14 UNL     1      23.630 -11.007  28.998  1.00  0.00     0.032 A
HETATM   14  N3  UNL     1      22.221 -10.251  27.352  1.00  0.00     0.100 N
HETATM   15  C15 UNL     1      23.218 -12.149  28.183  1.00  0.00     0.027 A
HETATM   16  C18 UNL     1      22.294 -11.601  29.203  1.00  0.00     0.033 A
HETATM   17  C16 UNL     1      22.772 -11.533  26.873  1.00  0.00     0.279 C
HETATM   18  C17 UNL     1      21.347 -10.772  28.412  1.00  0.00     0.243 C
BRANCH  10  19
HETATM   19  N2  UNL     1      21.282  -7.476  30.244  1.00  0.00    -0.098 NA
BRANCH  19  20
HETATM   20  O4  UNL     1      21.081  -7.393  31.572  1.00  0.00    -0.296 OA
ATOM     21  H4  UNL     1      21.841  -7.083  32.049  1.00  0.00     0.238 HD
ENDBRANCH  19  20
ENDBRANCH  10  19
ENDBRANCH   8   9
ENDBRANCH   5   8
BRANCH   4  22
HETATM   22  O3  UNL     1      18.409  -7.849  30.748  1.00  0.00    -0.390 OA
ATOM     23  H3  UNL     1      19.108  -7.456  30.239  1.00  0.00     0.210 HD
ENDBRANCH   4  22
BRANCH   3  24
HETATM   24  O2  UNL     1      15.725  -8.059  31.166  1.00  0.00    -0.390 OA
ATOM     25  H2  UNL     1      15.755  -7.304  31.740  1.00  0.00     0.210 HD
ENDBRANCH   3  24
BRANCH   1  26
HETATM   26  C2  UNL     1      15.133  -9.644  26.714  1.00  0.00     0.011 C
HETATM   27  C1  UNL     1      13.860 -10.407  26.866  1.00  0.00     0.012 C
BRANCH  26  28
HETATM   28  C3  UNL     1      14.803  -8.356  25.966  1.00  0.00     0.050 C
BRANCH  28  29
HETATM   29  C4  UNL     1      13.331  -8.185  25.824  1.00  0.00     0.053 C
HETATM   30  N1  UNL     1      12.759  -7.050  25.881  1.00  0.00    -0.411 N
ATOM     31  H12 UNL     1      13.349  -6.232  26.031  1.00  0.00     0.155 HD
ATOM     32  H11 UNL     1      11.750  -6.933  25.784  1.00  0.00     0.155 HD
ENDBRANCH  28  29
ENDBRANCH  26  28
ENDBRANCH   1  26
BRANCH   2  33
HETATM   33  O1  UNL     1      14.155  -8.678  29.390  1.00  0.00    -0.391 OA
ATOM     34  H1  UNL     1      14.326  -8.807  30.316  1.00  0.00     0.210 HD
ENDBRANCH   2  33
TORSDOF 11
ENDMDL