MODEL 3
REMARK VINA RESULT: -7.254645241      1.685      2.495
REMARK  11 active torsions:
REMARK  status: ('A' for Active; 'I' for Inactive)
REMARK    1  A    between atoms: C2_2  and  N1_3
REMARK    2  A    between atoms: N1_3  and  C3_4
REMARK    3  A    between atoms: N1_3  and  C7_8
REMARK    4  A    between atoms: C12_13  and  O1_14
REMARK    5  A    between atoms: O1_14  and  C13_15
REMARK    6  A    between atoms: C14_16  and  O2_17
REMARK    7  A    between atoms: C15_19  and  O3_20
REMARK    8  A    between atoms: C16_22  and  O4_23
REMARK    9  A    between atoms: C17_25  and  C18_26
REMARK   10  A    between atoms: C19_29  and  O7_30
REMARK   11  A    between atoms: C20_32  and  O8_33
ROOT
HETATM    1  C13 UNL     1      18.404  -8.176  26.618  1.00  0.00     0.185 C
HETATM    2  C14 UNL     1      17.628  -7.632  25.430  1.00  0.00     0.181 C
HETATM    3  C15 UNL     1      16.166  -7.612  25.526  1.00  0.00     0.179 C
HETATM    4  C16 UNL     1      15.510  -8.583  26.447  1.00  0.00     0.166 C
HETATM    5  C17 UNL     1      15.564  -8.221  27.903  1.00  0.00     0.149 C
HETATM    6  C19 UNL     1      16.860  -8.603  28.535  1.00  0.00     0.166 C
HETATM    7  C20 UNL     1      17.941  -7.698  27.919  1.00  0.00     0.179 C
ENDROOT
BRANCH   1   8
HETATM    8  O1  UNL     1      19.716  -7.800  26.375  1.00  0.00    -0.369 OA
BRANCH   8   9
HETATM    9  C12 UNL     1      20.591  -8.869  26.147  1.00  0.00     0.167 C
HETATM   10  C7  UNL     1      21.849  -8.689  26.845  1.00  0.00     0.014 C
HETATM   11  C8  UNL     1      22.857  -9.787  26.668  1.00  0.00     0.055 C
HETATM   12  C9  UNL     1      23.045 -10.016  25.190  1.00  0.00     0.006 C
HETATM   13  C10 UNL     1      22.383  -8.964  24.356  1.00  0.00     0.003 C
HETATM   14  C11 UNL     1      20.932  -8.809  24.614  1.00  0.00     0.038 C
BRANCH  10  15
HETATM   15  N1  UNL     1      21.825  -8.163  28.187  1.00  0.00    -0.381 N
BRANCH  15  16
HETATM   16  C2  UNL     1      23.039  -7.534  28.539  1.00  0.00     0.118 C
HETATM   17  C1  UNL     1      22.963  -6.211  29.231  1.00  0.00     0.026 C
ENDBRANCH  15  16
BRANCH  15  18
HETATM   18  C3  UNL     1      21.107  -8.899  29.124  1.00  0.00     0.084 C
HETATM   19  C4  UNL     1      21.899  -9.498  30.286  1.00  0.00     0.025 C
HETATM   20  C5  UNL     1      21.215  -8.509  31.223  1.00  0.00     0.004 C
HETATM   21  C6  UNL     1      20.221  -8.256  30.098  1.00  0.00     0.025 C
ENDBRANCH  15  18
ENDBRANCH  10  15
ENDBRANCH   8   9
ENDBRANCH   1   8
BRANCH   2  22
HETATM   22  O2  UNL     1      18.086  -6.328  25.185  1.00  0.00    -0.390 OA
ATOM     23  H2  UNL     1      18.821  -6.390  24.586  1.00  0.00     0.210 HD
ENDBRANCH   2  22
BRANCH   7  24
HETATM   24  O8  UNL     1      17.502  -6.368  27.921  1.00  0.00    -0.390 OA
ATOM     25  H8  UNL     1      18.171  -5.735  27.688  1.00  0.00     0.210 HD
ENDBRANCH   7  24
BRANCH   3  26
HETATM   26  O3  UNL     1      15.605  -6.329  25.754  1.00  0.00    -0.390 OA
ATOM     27  H3  UNL     1      15.732  -5.708  25.047  1.00  0.00     0.210 HD
ENDBRANCH   3  26
BRANCH   6  28
HETATM   28  O7  UNL     1      17.219  -9.908  28.232  1.00  0.00    -0.392 OA
ATOM     29  H7  UNL     1      18.159 -10.002  28.130  1.00  0.00     0.210 HD
ENDBRANCH   6  28
BRANCH   4  30
HETATM   30  O4  UNL     1      15.939  -9.882  26.178  1.00  0.00    -0.392 OA
ATOM     31  H4  UNL     1      16.462 -10.217  26.897  1.00  0.00     0.210 HD
ENDBRANCH   4  30
BRANCH   5  32
HETATM   32  C18 UNL     1      14.462  -8.923  28.605  1.00  0.00     0.182 C
HETATM   33  O5  UNL     1      13.959  -9.938  28.078  1.00  0.00    -0.648 OA
HETATM   34  O6  UNL     1      13.967  -8.500  29.820  1.00  0.00    -0.648 OA
ENDBRANCH   5  32
TORSDOF 11
ENDMDL