MODEL 4
REMARK VINA RESULT: -6.570294884      1.556      2.056
REMARK  13 active torsions:
REMARK  status: ('A' for Active; 'I' for Inactive)
REMARK    1  A    between atoms: C2_2  and  C3_3
REMARK    2  A    between atoms: C4_4  and  O1_5
REMARK    3  A    between atoms: C5_7  and  O2_8
REMARK    4  A    between atoms: C6_10  and  O3_11
REMARK    5  A    between atoms: C7_13  and  O4_14
REMARK    6  A    between atoms: O4_14  and  C8_15
REMARK    7  A    between atoms: C10_17  and  N1_18
REMARK    8  A    between atoms: C11_22  and  O5_24
REMARK    9  A    between atoms: O5_24  and  C13_25
REMARK   10  A    between atoms: C13_25  and  C14_26
REMARK   11  A    between atoms: C17_29  and  C18_30
REMARK   12  A    between atoms: C18_30  and  O6_31
REMARK   13  A    between atoms: C20_34  and  O7_35
ROOT
HETATM    1  C14 UNL     1      14.886  -9.265  17.929  1.00  0.00    -0.081 C
HETATM    2  C15 UNL     1      14.157  -9.182  16.948  1.00  0.00    -0.109 C
HETATM    3  C16 UNL     1      13.293  -9.110  15.796  1.00  0.00     0.112 C
ENDROOT
BRANCH   1   4
HETATM    4  C13 UNL     1      15.732  -9.396  19.107  1.00  0.00     0.262 C
BRANCH   4   5
HETATM    5  O5  UNL     1      16.410  -8.367  19.550  1.00  0.00    -0.366 OA
BRANCH   5   6
HETATM    6  C11 UNL     1      16.067  -7.164  19.914  1.00  0.00     0.092 C
HETATM    7  C10 UNL     1      14.756  -7.022  20.610  1.00  0.00     0.220 C
HETATM    8  C9  UNL     1      14.664  -7.570  21.986  1.00  0.00     0.067 C
HETATM    9  C8  UNL     1      15.884  -7.478  22.849  1.00  0.00     0.124 C
HETATM   10  C19 UNL     1      17.114  -7.788  21.987  1.00  0.00     0.041 C
HETATM   11  C17 UNL     1      17.122  -6.670  20.942  1.00  0.00     0.048 C
HETATM   12  C12 UNL     1      16.076  -6.104  18.815  1.00  0.00     0.048 C
BRANCH   7  13
HETATM   13  N1  UNL     1      14.398  -5.579  20.712  1.00  0.00    -0.072 N
ATOM     14  H13 UNL     1      13.725  -5.380  21.451  1.00  0.00     0.274 HD
ATOM     15  H12 UNL     1      15.155  -4.997  21.071  1.00  0.00     0.274 HD
ATOM     16  H11 UNL     1      14.077  -5.299  19.785  1.00  0.00     0.274 HD
ENDBRANCH   7  13
BRANCH   9  17
HETATM   17  O4  UNL     1      16.070  -6.234  23.362  1.00  0.00    -0.375 OA
BRANCH  17  18
HETATM   18  C7  UNL     1      16.361  -6.163  24.726  1.00  0.00     0.182 C
HETATM   19  C6  UNL     1      17.735  -6.623  25.057  1.00  0.00     0.180 C
HETATM   20  C5  UNL     1      18.020  -6.581  26.514  1.00  0.00     0.178 C
HETATM   21  C4  UNL     1      16.803  -6.542  27.369  1.00  0.00     0.159 C
HETATM   22  C3  UNL     1      15.711  -7.410  26.814  1.00  0.00     0.070 C
HETATM   23  C20 UNL     1      15.269  -6.904  25.470  1.00  0.00     0.160 C
BRANCH  19  24
HETATM   24  O3  UNL     1      18.659  -5.764  24.436  1.00  0.00    -0.390 OA
ATOM     25  H3  UNL     1      18.635  -5.959  23.506  1.00  0.00     0.210 HD
ENDBRANCH  19  24
BRANCH  20  26
HETATM   26  O2  UNL     1      18.803  -7.678  26.926  1.00  0.00    -0.390 OA
ATOM     27  H2  UNL     1      18.213  -8.381  27.171  1.00  0.00     0.210 HD
ENDBRANCH  20  26
BRANCH  21  28
HETATM   28  O1  UNL     1      17.102  -7.015  28.647  1.00  0.00    -0.392 OA
ATOM     29  H1  UNL     1      17.833  -6.505  28.975  1.00  0.00     0.210 HD
ENDBRANCH  21  28
BRANCH  22  30
HETATM   30  C2  UNL     1      16.142  -8.823  26.818  1.00  0.00    -0.027 C
HETATM   31  C1  UNL     1      15.757  -9.701  25.872  1.00  0.00     0.007 C
ENDBRANCH  22  30
BRANCH  23  32
HETATM   32  O7  UNL     1      14.255  -5.955  25.743  1.00  0.00    -0.392 OA
ATOM     33  H7  UNL     1      14.247  -5.374  24.992  1.00  0.00     0.210 HD
ENDBRANCH  23  32
ENDBRANCH  17  18
ENDBRANCH   9  17
BRANCH  11  34
HETATM   34  C18 UNL     1      18.456  -6.489  20.299  1.00  0.00     0.172 C
BRANCH  34  35
HETATM   35  O6  UNL     1      19.370  -6.105  21.269  1.00  0.00    -0.400 OA
ATOM     36  H6  UNL     1      20.240  -6.116  20.889  1.00  0.00     0.209 HD
ENDBRANCH  34  35
ENDBRANCH  11  34
ENDBRANCH   5   6
ENDBRANCH   4   5
ENDBRANCH   1   4
TORSDOF 13
ENDMDL