MODEL 4
REMARK VINA RESULT: -6.808104885      2.222      2.702
REMARK  11 active torsions:
REMARK  status: ('A' for Active; 'I' for Inactive)
REMARK    1  A    between atoms: C2_2  and  C3_3
REMARK    2  A    between atoms: C3_3  and  O1_4
REMARK    3  A    between atoms: C4_6  and  N1_7
REMARK    4  A    between atoms: C7_13  and  C8_14
REMARK    5  A    between atoms: C8_14  and  N2_15
REMARK    6  A    between atoms: C10_17  and  N3_18
REMARK    7  A    between atoms: C12_23  and  N4_24
REMARK    8  A    between atoms: C13_28  and  O2_29
REMARK    9  A    between atoms: O2_29  and  C14_30
REMARK   10  A    between atoms: C14_30  and  N6_34
REMARK   11  A    between atoms: C16_39  and  O3_40
ROOT
HETATM    1  N2  UNL     1      16.213  -7.527  22.967  1.00  0.00    -0.359 N
HETATM    2  C9  UNL     1      17.460  -6.879  22.894  1.00  0.00     0.093 C
HETATM    3  C10 UNL     1      18.403  -7.003  24.021  1.00  0.00     0.223 C
HETATM    4  C11 UNL     1      17.999  -7.811  25.192  1.00  0.00     0.075 C
HETATM    5  C12 UNL     1      16.874  -8.794  24.942  1.00  0.00     0.234 C
HETATM    6  C13 UNL     1      15.785  -7.969  24.260  1.00  0.00     0.263 C
ENDROOT
BRANCH   1   7
HETATM    7  C8  UNL     1      15.820  -8.342  21.874  1.00  0.00     0.161 C
BRANCH   7   8
HETATM    8  C7  UNL     1      14.857  -7.656  20.951  1.00  0.00    -0.034 C
HETATM    9  C6  UNL     1      13.592  -7.603  21.352  1.00  0.00    -0.018 C
HETATM   10  C5  UNL     1      12.500  -6.962  20.566  1.00  0.00     0.063 C
HETATM   11  C4  UNL     1      13.101  -6.076  19.497  1.00  0.00     0.223 C
HETATM   12  C3  UNL     1      14.175  -6.792  18.742  1.00  0.00     0.116 C
HETATM   13  C16 UNL     1      15.322  -7.069  19.656  1.00  0.00     0.187 C
BRANCH  11  14
HETATM   14  N1  UNL     1      12.108  -5.519  18.632  1.00  0.00    -0.072 N
ATOM     15  H13 UNL     1      12.381  -5.604  17.654  1.00  0.00     0.274 HD
ATOM     16  H12 UNL     1      11.267  -6.096  18.618  1.00  0.00     0.274 HD
ATOM     17  H11 UNL     1      11.886  -4.551  18.869  1.00  0.00     0.274 HD
ENDBRANCH  11  14
BRANCH  12  18
HETATM   18  C2  UNL     1      13.720  -8.077  18.109  1.00  0.00     0.038 C
HETATM   19  C1  UNL     1      14.869  -8.899  17.582  1.00  0.00     0.008 C
ENDBRANCH  12  18
BRANCH  12  20
HETATM   20  O1  UNL     1      14.594  -5.946  17.710  1.00  0.00    -0.385 OA
ATOM     21  H1  UNL     1      14.846  -5.120  18.106  1.00  0.00     0.210 HD
ENDBRANCH  12  20
BRANCH  13  22
HETATM   22  O3  UNL     1      15.980  -5.871  19.916  1.00  0.00    -0.383 OA
HETATM   23  C17 UNL     1      17.300  -5.875  19.467  1.00  0.00     0.202 C
ENDBRANCH  13  22
ENDBRANCH   7   8
ENDBRANCH   1   7
BRANCH   6  24
HETATM   24  O2  UNL     1      14.568  -8.641  24.135  1.00  0.00    -0.294 OA
BRANCH  24  25
HETATM   25  C14 UNL     1      13.476  -8.500  24.991  1.00  0.00     0.221 C
HETATM   26  N5  UNL     1      13.524  -9.263  26.037  1.00  0.00    -0.365 N
ATOM     27  H52 UNL     1      14.285  -9.915  26.230  1.00  0.00     0.159 HD
ATOM     28  H51 UNL     1      12.725  -9.160  26.663  1.00  0.00     0.159 HD
BRANCH  25  29
HETATM   29  N6  UNL     1      12.430  -7.604  24.726  1.00  0.00    -0.299 N
HETATM   30  C15 UNL     1      11.299  -7.832  24.216  1.00  0.00     0.204 C
HETATM   31  N7  UNL     1      10.940  -9.138  23.822  1.00  0.00    -0.066 NA
HETATM   32  N8  UNL     1      10.403  -6.732  24.054  1.00  0.00    -0.066 NA
ATOM     33  H6  UNL     1      12.608  -6.633  24.982  1.00  0.00     0.171 HD
ENDBRANCH  25  29
ENDBRANCH  24  25
ENDBRANCH   6  24
BRANCH   3  34
HETATM   34  N3  UNL     1      18.653  -5.637  24.526  1.00  0.00    -0.070 N
ATOM     35  H33 UNL     1      18.056  -5.385  25.313  1.00  0.00     0.275 HD
ATOM     36  H32 UNL     1      19.547  -5.546  25.008  1.00  0.00     0.275 HD
ATOM     37  H31 UNL     1      18.559  -5.003  23.733  1.00  0.00     0.275 HD
ENDBRANCH   3  34
BRANCH   5  38
HETATM   38  N4  UNL     1      17.306  -9.910  24.155  1.00  0.00    -0.071 N
ATOM     39  H43 UNL     1      17.371 -10.758  24.718  1.00  0.00     0.274 HD
ATOM     40  H42 UNL     1      16.581 -10.207  23.502  1.00  0.00     0.274 HD
ATOM     41  H41 UNL     1      18.184  -9.717  23.673  1.00  0.00     0.274 HD
ENDBRANCH   5  38
TORSDOF 11
ENDMDL