MODEL 3
REMARK VINA RESULT: -7.465855239      1.646      3.911
REMARK  11 active torsions:
REMARK  status: ('A' for Active; 'I' for Inactive)
REMARK    1  A    between atoms: C2_2  and  C4_4
REMARK    2  A    between atoms: C4_4  and  O1_5
REMARK    3  A    between atoms: C4_4  and  C5_7
REMARK    4  A    between atoms: C6_9  and  O3_10
REMARK    5  A    between atoms: O3_10  and  C7_11
REMARK    6  A    between atoms: C7_11  and  C8_12
REMARK    7  A    between atoms: C9_13  and  O4_14
REMARK    8  A    between atoms: C16_22  and  O5_23
REMARK    9  A    between atoms: C18_26  and  O6_27
REMARK   10  A    between atoms: C19_29  and  O7_30
REMARK   11  A    between atoms: C20_32  and  O8_33
ROOT
HETATM    1  C5  UNL     1      15.402  -7.321  26.845  1.00  0.00     0.185 C
HETATM    2  O2  UNL     1      15.721  -7.413  25.505  1.00  0.00    -0.348 OA
HETATM    3  C6  UNL     1      14.913  -8.348  24.857  1.00  0.00     0.291 C
HETATM    4  C18 UNL     1      13.460  -8.068  25.047  1.00  0.00     0.204 C
HETATM    5  C19 UNL     1      13.094  -8.090  26.519  1.00  0.00     0.183 C
HETATM    6  C20 UNL     1      14.388  -8.289  27.328  1.00  0.00     0.181 C
ENDROOT
BRANCH   3   7
HETATM    7  O3  UNL     1      15.260  -8.421  23.513  1.00  0.00    -0.358 OA
BRANCH   7   8
HETATM    8  C7  UNL     1      15.439  -7.195  22.929  1.00  0.00     0.186 C
BRANCH   8   9
HETATM    9  C8  UNL     1      15.388  -7.297  21.423  1.00  0.00     0.046 A
HETATM   10  C9  UNL     1      16.440  -8.100  20.792  1.00  0.00     0.141 C
HETATM   11  C10 UNL     1      16.615  -7.595  19.420  1.00  0.00    -0.007 A
HETATM   12  C11 UNL     1      17.089  -8.467  18.414  1.00  0.00     0.018 A
HETATM   13  C12 UNL     1      15.741  -8.021  18.322  1.00  0.00    -0.003 A
HETATM   14  C17 UNL     1      16.491  -6.159  19.571  1.00  0.00     0.051 C
HETATM   15  C13 UNL     1      14.476  -8.550  18.857  1.00  0.00     0.006 C
HETATM   16  C14 UNL     1      13.765  -7.369  19.473  1.00  0.00     0.009 C
HETATM   17  C15 UNL     1      14.287  -6.773  20.680  1.00  0.00     0.037 A
HETATM   18  C16 UNL     1      15.493  -5.962  20.659  1.00  0.00     0.076 A
BRANCH  10  19
HETATM   19  O4  UNL     1      16.392  -9.463  20.965  1.00  0.00    -0.394 OA
ATOM     20  H4  UNL     1      15.535  -9.872  21.002  1.00  0.00     0.210 HD
ENDBRANCH  10  19
BRANCH  18  21
HETATM   21  O5  UNL     1      15.599  -4.786  21.350  1.00  0.00    -0.388 OA
ATOM     22  H5  UNL     1      14.829  -4.402  21.751  1.00  0.00     0.210 HD
ENDBRANCH  18  21
ENDBRANCH   8   9
ENDBRANCH   7   8
ENDBRANCH   3   7
BRANCH   4  23
HETATM   23  O6  UNL     1      12.727  -9.046  24.368  1.00  0.00    -0.388 OA
ATOM     24  H6  UNL     1      12.848  -9.877  24.813  1.00  0.00     0.210 HD
ENDBRANCH   4  23
BRANCH   1  25
HETATM   25  C4  UNL     1      16.593  -7.270  27.745  1.00  0.00     0.153 C
BRANCH  25  26
HETATM   26  C2  UNL     1      17.593  -8.350  27.488  1.00  0.00     0.009 C
HETATM   27  C1  UNL     1      18.942  -7.653  27.257  1.00  0.00     0.012 C
HETATM   28  C3  UNL     1      17.800  -9.311  28.629  1.00  0.00     0.012 C
ENDBRANCH  25  26
BRANCH  25  29
HETATM   29  O1  UNL     1      16.296  -7.221  29.099  1.00  0.00    -0.393 OA
ATOM     30  H1  UNL     1      17.068  -6.957  29.586  1.00  0.00     0.210 HD
ENDBRANCH  25  29
ENDBRANCH   1  25
BRANCH   5  31
HETATM   31  O7  UNL     1      12.550  -6.881  26.935  1.00  0.00    -0.390 OA
ATOM     32  H7  UNL     1      12.206  -6.934  27.819  1.00  0.00     0.210 HD
ENDBRANCH   5  31
BRANCH   6  33
HETATM   33  O8  UNL     1      14.112  -8.004  28.679  1.00  0.00    -0.390 OA
ATOM     34  H8  UNL     1      13.582  -7.215  28.716  1.00  0.00     0.210 HD
ENDBRANCH   6  33
TORSDOF 11
ENDMDL