MODEL 4
REMARK VINA RESULT: -6.618785653      1.894      5.568
REMARK  10 active torsions:
REMARK  status: ('A' for Active; 'I' for Inactive)
REMARK    1  A    between atoms: C2_2  and  N1_3
REMARK    2  A    between atoms: N1_3  and  C3_5
REMARK    3  A    between atoms: C5_7  and  O1_8
REMARK    4  A    between atoms: C6_10  and  C7_11
REMARK    5  A    between atoms: C7_11  and  O2_12
REMARK    6  A    between atoms: C11_16  and  O3_18
REMARK    7  A    between atoms: C16_23  and  C17_24
REMARK    8  A    between atoms: C17_24  and  O4_25
REMARK    9  A    between atoms: C19_29  and  N2_30
REMARK   10  A    between atoms: C20_34  and  O6_35
ROOT
HETATM    1  C3  UNL     1      17.384  -7.671  28.225  1.00  0.00     0.122 C
HETATM    2  C4  UNL     1      16.657  -8.375  29.342  1.00  0.00     0.061 C
HETATM    3  C5  UNL     1      15.227  -8.464  28.799  1.00  0.00     0.134 C
HETATM    4  C6  UNL     1      15.475  -8.891  27.367  1.00  0.00     0.045 C
HETATM    5  C9  UNL     1      15.640 -10.387  27.308  1.00  0.00     0.026 C
HETATM    6  C10 UNL     1      16.180 -10.857  25.995  1.00  0.00     0.040 A
HETATM    7  C11 UNL     1      17.606 -11.415  26.135  1.00  0.00     0.073 A
HETATM    8  C12 UNL     1      18.109 -11.695  27.496  1.00  0.00     0.047 C
HETATM    9  C13 UNL     1      17.365 -10.155  25.479  1.00  0.00     0.054 A
HETATM   10  C14 UNL     1      17.524  -8.787  25.967  1.00  0.00    -0.029 C
HETATM   11  C15 UNL     1      18.503  -8.064  25.401  1.00  0.00     0.022 C
HETATM   12  C16 UNL     1      19.378  -8.615  24.333  1.00  0.00     0.129 A
HETATM   13  O5  UNL     1      18.716  -8.255  23.020  1.00  0.00    -0.360 OA
HETATM   14  C18 UNL     1      18.884  -9.626  23.567  1.00  0.00     0.195 A
HETATM   15  C19 UNL     1      17.528 -10.184  23.937  1.00  0.00     0.231 C
HETATM   16  C20 UNL     1      16.674  -8.103  26.975  1.00  0.00     0.114 C
ENDROOT
BRANCH   1  17
HETATM   17  N1  UNL     1      18.780  -7.765  28.199  1.00  0.00    -0.395 N
ATOM     18  H1  UNL     1      19.307  -7.338  27.437  1.00  0.00     0.159 HD
BRANCH  17  19
HETATM   19  C2  UNL     1      19.455  -8.448  29.225  1.00  0.00     0.051 C
HETATM   20  C1  UNL     1      20.624  -9.290  28.789  1.00  0.00     0.054 C
ENDBRANCH  17  19
ENDBRANCH   1  17
BRANCH  16  21
HETATM   21  O6  UNL     1      16.167  -6.890  26.410  1.00  0.00    -0.382 OA
ATOM     22  H6  UNL     1      16.628  -6.798  25.584  1.00  0.00     0.211 HD
ENDBRANCH  16  21
BRANCH   3  23
HETATM   23  O1  UNL     1      14.458  -9.379  29.472  1.00  0.00    -0.395 OA
ATOM     24  H1  UNL     1      13.649  -9.587  29.018  1.00  0.00     0.210 HD
ENDBRANCH   3  23
BRANCH   4  25
HETATM   25  C7  UNL     1      14.235  -8.531  26.584  1.00  0.00     0.182 C
BRANCH  25  26
HETATM   26  O2  UNL     1      13.397  -7.636  27.178  1.00  0.00    -0.395 OA
HETATM   27  C8  UNL     1      12.610  -7.025  26.216  1.00  0.00     0.201 C
ENDBRANCH  25  26
ENDBRANCH   4  25
BRANCH   7  28
HETATM   28  O3  UNL     1      17.778 -12.548  25.285  1.00  0.00    -0.389 OA
ATOM     29  H3  UNL     1      16.968 -12.743  24.828  1.00  0.00     0.210 HD
ENDBRANCH   7  28
BRANCH  15  30
HETATM   30  N2  UNL     1      16.463  -9.503  23.276  1.00  0.00    -0.071 N
ATOM     31  H23 UNL     1      15.565  -9.945  23.468  1.00  0.00     0.274 HD
ATOM     32  H22 UNL     1      16.287  -8.592  23.700  1.00  0.00     0.274 HD
ATOM     33  H21 UNL     1      16.629  -9.420  22.274  1.00  0.00     0.274 HD
ENDBRANCH  15  30
BRANCH  12  34
HETATM   34  C17 UNL     1      20.767  -8.069  24.239  1.00  0.00     0.209 C
BRANCH  34  35
HETATM   35  O4  UNL     1      21.546  -8.842  23.386  1.00  0.00    -0.397 OA
ATOM     36  H4  UNL     1      21.037  -9.143  22.643  1.00  0.00     0.209 HD
ENDBRANCH  34  35
ENDBRANCH  12  34
TORSDOF 10
ENDMDL