MODEL 5
REMARK VINA RESULT: -7.369132292      6.377      8.713
REMARK  11 active torsions:
REMARK  status: ('A' for Active; 'I' for Inactive)
REMARK    1  A    between atoms: C3_3  and  O1_4
REMARK    2  A    between atoms: C3_3  and  C16_26
REMARK    3  A    between atoms: O1_4  and  C4_5
REMARK    4  A    between atoms: C5_6  and  O2_7
REMARK    5  A    between atoms: C6_9  and  O3_10
REMARK    6  A    between atoms: C7_12  and  O4_13
REMARK    7  A    between atoms: O4_13  and  C8_14
REMARK    8  A    between atoms: C14_20  and  O5_21
REMARK    9  A    between atoms: C15_23  and  O6_24
REMARK   10  A    between atoms: C16_26  and  O7_27
REMARK   11  A    between atoms: C19_31  and  N1_32
ROOT
HETATM    1  C1  UNL     1      20.926  -7.712  31.528  1.00  0.00     0.015 C
HETATM    2  C2  UNL     1      20.768  -7.956  30.363  1.00  0.00    -0.082 C
HETATM    3  C3  UNL     1      20.549  -8.245  28.886  1.00  0.00     0.234 C
ENDROOT
BRANCH   3   4
HETATM    4  O1  UNL     1      19.275  -8.664  28.758  1.00  0.00    -0.360 OA
BRANCH   4   5
HETATM    5  C4  UNL     1      18.290  -7.707  28.764  1.00  0.00     0.185 C
HETATM    6  C5  UNL     1      18.075  -7.194  27.377  1.00  0.00     0.181 C
HETATM    7  C6  UNL     1      17.154  -8.093  26.569  1.00  0.00     0.181 C
HETATM    8  C7  UNL     1      15.778  -7.945  27.185  1.00  0.00     0.184 C
HETATM    9  C14 UNL     1      15.795  -7.740  28.650  1.00  0.00     0.181 C
HETATM   10  C15 UNL     1      17.000  -8.205  29.382  1.00  0.00     0.181 C
BRANCH   6  11
HETATM   11  O2  UNL     1      17.405  -5.939  27.396  1.00  0.00    -0.390 OA
ATOM     12  H2  UNL     1      18.027  -5.221  27.392  1.00  0.00     0.210 HD
ENDBRANCH   6  11
BRANCH   7  13
HETATM   13  O3  UNL     1      17.139  -7.552  25.276  1.00  0.00    -0.390 OA
ATOM     14  H3  UNL     1      17.705  -8.113  24.758  1.00  0.00     0.210 HD
ENDBRANCH   7  13
BRANCH   8  15
HETATM   15  O4  UNL     1      14.999  -9.031  26.782  1.00  0.00    -0.375 OA
BRANCH  15  16
HETATM   16  C8  UNL     1      13.986  -8.698  25.920  1.00  0.00     0.122 C
HETATM   17  C9  UNL     1      13.700  -7.208  26.126  1.00  0.00     0.032 C
HETATM   18  C10 UNL     1      12.258  -6.907  25.778  1.00  0.00     0.002 C
HETATM   19  C11 UNL     1      11.904  -7.749  24.559  1.00  0.00     0.000 C
HETATM   20  C12 UNL     1      11.750  -9.182  25.022  1.00  0.00     0.002 C
HETATM   21  C13 UNL     1      12.722  -9.503  26.137  1.00  0.00     0.032 C
ENDBRANCH  15  16
ENDBRANCH   8  15
BRANCH   9  22
HETATM   22  O5  UNL     1      14.679  -8.423  29.189  1.00  0.00    -0.390 OA
ATOM     23  H5  UNL     1      15.010  -9.099  29.769  1.00  0.00     0.210 HD
ENDBRANCH   9  22
BRANCH  10  24
HETATM   24  O6  UNL     1      16.939  -7.712  30.679  1.00  0.00    -0.390 OA
ATOM     25  H6  UNL     1      16.040  -7.799  30.976  1.00  0.00     0.210 HD
ENDBRANCH  10  24
ENDBRANCH   4   5
ENDBRANCH   3   4
BRANCH   3  26
HETATM   26  C16 UNL     1      21.542  -9.308  28.597  1.00  0.00     0.097 C
HETATM   27  C17 UNL     1      21.839 -10.289  29.677  1.00  0.00     0.043 C
HETATM   28  C18 UNL     1      23.139 -10.945  29.167  1.00  0.00     0.036 C
HETATM   29  C19 UNL     1      23.903  -9.813  28.514  1.00  0.00     0.186 C
HETATM   30  C20 UNL     1      22.937  -8.651  28.443  1.00  0.00     0.074 C
BRANCH  26  31
HETATM   31  O7  UNL     1      21.279  -9.956  27.373  1.00  0.00    -0.386 OA
ATOM     32  H7  UNL     1      21.956 -10.585  27.151  1.00  0.00     0.210 HD
ENDBRANCH  26  31
BRANCH  29  33
HETATM   33  N1  UNL     1      24.285 -10.132  27.147  1.00  0.00    -0.075 N
ATOM     34  H13 UNL     1      25.174 -10.632  27.117  1.00  0.00     0.274 HD
ATOM     35  H12 UNL     1      23.682 -10.854  26.753  1.00  0.00     0.274 HD
ATOM     36  H11 UNL     1      24.306  -9.303  26.553  1.00  0.00     0.274 HD
ENDBRANCH  29  33
ENDBRANCH   3  26
TORSDOF 11
ENDMDL