MODEL 4
REMARK VINA RESULT: -7.031467116      2.953      5.992
REMARK  7 active torsions:
REMARK  status: ('A' for Active; 'I' for Inactive)
REMARK       I    between atoms: C2_4  and  N3_6
REMARK    1  A    between atoms: N3_6  and  C3_8
REMARK    2  A    between atoms: C5_11  and  N4_12
REMARK    3  A    between atoms: C7_14  and  N5_15
REMARK    4  A    between atoms: C8_19  and  N6_21
REMARK    5  A    between atoms: C11_26  and  C12_27
REMARK    6  A    between atoms: C12_27  and  C13_28
REMARK    7  A    between atoms: C12_27  and  S2_31
ROOT
HETATM    1  C3  UNL     1      16.467  -9.813  25.553  1.00  0.00     0.052 A
HETATM    2  C4  UNL     1      17.352 -10.782  25.093  1.00  0.00     0.082 A
HETATM    3  S1  UNL     1      17.627 -10.332  23.483  1.00  0.00    -0.081 SA
HETATM    4  C5  UNL     1      16.642  -8.952  23.406  1.00  0.00     0.082 A
HETATM    5  C11 UNL     1      16.101  -8.865  24.678  1.00  0.00     0.034 A
ENDROOT
BRANCH   4   6
HETATM    6  N4  UNL     1      16.482  -8.110  22.270  1.00  0.00    -0.370 N
HETATM    7  C6  UNL     1      15.719  -8.498  21.085  1.00  0.00     0.159 C
HETATM    8  C7  UNL     1      15.043  -7.203  20.727  1.00  0.00     0.238 C
HETATM    9  C8  UNL     1      16.098  -6.166  20.989  1.00  0.00     0.165 C
HETATM   10  C9  UNL     1      16.871  -5.926  19.697  1.00  0.00     0.050 C
HETATM   11  C10 UNL     1      16.967  -6.766  22.046  1.00  0.00     0.164 C
BRANCH   8  12
HETATM   12  N5  UNL     1      13.869  -6.959  21.549  1.00  0.00    -0.071 N
ATOM     13  H53 UNL     1      14.129  -6.735  22.510  1.00  0.00     0.274 HD
ATOM     14  H52 UNL     1      13.416  -6.081  21.297  1.00  0.00     0.274 HD
ATOM     15  H51 UNL     1      13.211  -7.738  21.515  1.00  0.00     0.274 HD
ENDBRANCH   8  12
BRANCH   9  16
HETATM   16  N6  UNL     1      15.531  -4.892  21.393  1.00  0.00    -0.067 N
ATOM     17  H63 UNL     1      16.239  -4.291  21.815  1.00  0.00     0.275 HD
ATOM     18  H62 UNL     1      15.294  -4.320  20.583  1.00  0.00     0.275 HD
ATOM     19  H61 UNL     1      14.727  -5.005  22.012  1.00  0.00     0.275 HD
ENDBRANCH   9  16
ENDBRANCH   4   6
BRANCH   5  20
HETATM   20  C12 UNL     1      15.191  -7.695  24.990  1.00  0.00     0.268 C
BRANCH  20  21
HETATM   21  C13 UNL     1      15.903  -6.562  25.605  1.00  0.00     0.199 C
HETATM   22  O1  UNL     1      15.310  -5.423  25.603  1.00  0.00    -0.647 OA
HETATM   23  O2  UNL     1      17.153  -6.608  26.183  1.00  0.00    -0.647 OA
ENDBRANCH  20  21
BRANCH  20  24
HETATM   24  S2  UNL     1      13.710  -8.155  25.813  1.00  0.00     0.121 S
HETATM   25  O3  UNL     1      13.316  -9.586  25.691  1.00  0.00    -0.594 OA
HETATM   26  O4  UNL     1      13.840  -7.878  27.315  1.00  0.00    -0.594 OA
HETATM   27  O5  UNL     1      12.371  -7.264  25.288  1.00  0.00    -0.594 OA
ENDBRANCH  20  24
ENDBRANCH   5  20
BRANCH   1  28
HETATM   28  N3  UNL     1      16.028  -9.952  26.931  1.00  0.00    -0.330 N
HETATM   29  C2  UNL     1      16.778  -9.521  28.037  1.00  0.00     0.188 C
HETATM   30  N1  UNL     1      16.470  -8.453  28.658  1.00  0.00    -0.369 N
HETATM   31  N2  UNL     1      17.886 -10.290  28.455  1.00  0.00    -0.064 NA
HETATM   32  C1  UNL     1      17.209  -7.959  29.808  1.00  0.00     0.148 C
ATOM     33  H1  UNL     1      15.665  -7.918  28.333  1.00  0.00     0.161 HD
ATOM     34  H3  UNL     1      15.122 -10.389  27.105  1.00  0.00     0.168 HD
ENDBRANCH   1  28
TORSDOF 7
ENDMDL