MODEL 4
REMARK VINA RESULT: -7.664088617      1.428      3.490
REMARK  10 active torsions:
REMARK  status: ('A' for Active; 'I' for Inactive)
REMARK    1  A    between atoms: N1_4  and  C4_6
REMARK    2  A    between atoms: C4_6  and  C5_7
REMARK    3  A    between atoms: C5_7  and  C6_8
REMARK    4  A    between atoms: C6_8  and  O1_9
REMARK    5  A    between atoms: C9_13  and  O2_14
REMARK    6  A    between atoms: C11_17  and  O3_18
REMARK    7  A    between atoms: C18_27  and  O5_28
REMARK    8  A    between atoms: C19_30  and  O6_31
REMARK    9  A    between atoms: C19_30  and  C20_33
REMARK   10  A    between atoms: C20_33  and  O7_34
ROOT
HETATM    1  C6  UNL     1      19.425  -9.083  26.969  1.00  0.00     0.067 C
HETATM    2  C7  UNL     1      18.755  -8.927  28.291  1.00  0.00     0.047 C
HETATM    3  C8  UNL     1      17.238  -8.938  28.006  1.00  0.00     0.037 C
HETATM    4  C9  UNL     1      16.589  -7.676  28.444  1.00  0.00     0.070 C
HETATM    5  C10 UNL     1      17.042  -6.644  27.495  1.00  0.00     0.071 C
HETATM    6  C11 UNL     1      18.188  -7.022  26.614  1.00  0.00     0.129 C
HETATM    7  C12 UNL     1      18.301  -8.485  26.152  1.00  0.00     0.063 C
HETATM    8  C13 UNL     1      17.039  -9.119  26.546  1.00  0.00     0.032 C
HETATM    9  C14 UNL     1      16.031  -8.402  25.743  1.00  0.00     0.182 C
HETATM   10  O4  UNL     1      14.821  -8.113  26.283  1.00  0.00    -0.382 OA
HETATM   11  C15 UNL     1      14.697  -8.942  27.388  1.00  0.00     0.159 C
HETATM   12  C16 UNL     1      15.153  -8.039  28.503  1.00  0.00     0.048 C
HETATM   13  C17 UNL     1      14.827  -8.636  29.862  1.00  0.00     0.016 C
HETATM   14  C18 UNL     1      15.217 -10.292  27.285  1.00  0.00     0.184 C
HETATM   15  C19 UNL     1      16.567 -10.486  26.528  1.00  0.00     0.117 C
ENDROOT
BRANCH   1  16
HETATM   16  C5  UNL     1      20.759  -8.419  26.824  1.00  0.00     0.058 C
BRANCH  16  17
HETATM   17  C4  UNL     1      21.721  -8.895  27.927  1.00  0.00     0.122 C
BRANCH  17  18
HETATM   18  N1  UNL     1      22.442  -7.755  28.422  1.00  0.00    -0.397 N
HETATM   19  C2  UNL     1      22.339  -7.329  29.625  1.00  0.00    -0.026 C
HETATM   20  C1  UNL     1      21.468  -7.958  30.645  1.00  0.00     0.062 C
HETATM   21  C3  UNL     1      23.171  -6.120  29.961  1.00  0.00     0.062 C
ATOM     22  H1  UNL     1      23.065  -7.260  27.784  1.00  0.00     0.159 HD
ENDBRANCH  17  18
ENDBRANCH  16  17
ENDBRANCH   1  16
BRANCH   1  23
HETATM   23  O1  UNL     1      19.706 -10.408  26.638  1.00  0.00    -0.389 OA
ATOM     24  H1  UNL     1      19.059 -10.597  25.969  1.00  0.00     0.210 HD
ENDBRANCH   1  23
BRANCH   6  25
HETATM   25  O3  UNL     1      18.269  -6.128  25.526  1.00  0.00    -0.395 OA
ATOM     26  H3  UNL     1      18.821  -6.497  24.847  1.00  0.00     0.210 HD
ENDBRANCH   6  25
BRANCH   4  27
HETATM   27  O2  UNL     1      17.013  -7.452  29.776  1.00  0.00    -0.389 OA
ATOM     28  H2  UNL     1      17.928  -7.702  29.810  1.00  0.00     0.210 HD
ENDBRANCH   4  27
BRANCH  15  29
HETATM   29  O6  UNL     1      17.250 -11.360  27.428  1.00  0.00    -0.384 OA
ATOM     30  H6  UNL     1      16.692 -11.998  27.857  1.00  0.00     0.210 HD
ENDBRANCH  15  29
BRANCH  15  31
HETATM   31  C20 UNL     1      16.370 -11.262  25.294  1.00  0.00     0.205 C
BRANCH  31  32
HETATM   32  O7  UNL     1      16.177 -12.617  25.401  1.00  0.00    -0.398 OA
ATOM     33  H7  UNL     1      16.706 -13.100  26.025  1.00  0.00     0.209 HD
ENDBRANCH  31  32
ENDBRANCH  15  31
BRANCH  14  34
HETATM   34  O5  UNL     1      14.287 -11.045  26.520  1.00  0.00    -0.390 OA
ATOM     35  H5  UNL     1      14.780 -11.702  26.043  1.00  0.00     0.210 HD
ENDBRANCH  14  34
TORSDOF 10
ENDMDL