MODEL 2
REMARK VINA RESULT: -6.889114216      3.023      4.308
REMARK  3 active torsions:
REMARK  status: ('A' for Active; 'I' for Inactive)
REMARK       I    between atoms: C1_2  and  N2_4
REMARK    1  A    between atoms: N2_4  and  N3_6
REMARK    2  A    between atoms: N3_6  and  C2_8
REMARK    3  A    between atoms: N4_9  and  N5_11
REMARK       I    between atoms: N7_18  and  C6_19
ROOT
HETATM    1  N5  UNL     1      35.643  30.485  -0.880  1.00  0.00    -0.270 N
ATOM      2  H5  UNL     1      36.358  29.871  -0.491  1.00  0.00     0.190 HD
HETATM    3  C3  UNL     1      35.320  31.550  -0.206  1.00  0.00     0.200 C
HETATM    4  N6  UNL     1      34.365  32.541  -0.542  1.00  0.00    -0.359 N
ATOM      5  H6  UNL     1      33.774  32.558  -1.372  1.00  0.00     0.162 HD
HETATM    6  C4  UNL     1      34.389  33.525   0.516  1.00  0.00     0.143 C
HETATM    7  C5  UNL     1      35.136  32.866   1.657  1.00  0.00     0.156 C
HETATM    8  N7  UNL     1      35.946  31.844   1.034  1.00  0.00    -0.271 N
HETATM    9  C6  UNL     1      37.125  31.271   1.579  1.00  0.00     0.337 C
HETATM   10  N8  UNL     1      37.863  30.267   0.893  1.00  0.00    -0.039 NA
HETATM   11  O2  UNL     1      37.555  31.643   2.699  1.00  0.00    -0.250 OA
ENDROOT
BRANCH   1  12
HETATM   12  N4  UNL     1      35.078  30.136  -2.085  1.00  0.00    -0.292 N
HETATM   13  C2  UNL     1      35.455  30.501  -3.240  1.00  0.00     0.214 C
ATOM     14  H4  UNL     1      34.269  29.517  -2.045  1.00  0.00     0.187 HD
BRANCH  13  15
HETATM   15  N3  UNL     1      34.722  30.020  -4.364  1.00  0.00    -0.291 N
ATOM     16  H3  UNL     1      34.809  29.037  -4.622  1.00  0.00     0.188 HD
BRANCH  15  17
HETATM   17  N2  UNL     1      33.888  30.844  -5.128  1.00  0.00    -0.253 N
HETATM   18  C1  UNL     1      33.058  31.828  -4.535  1.00  0.00     0.347 C
HETATM   19  N1  UNL     1      32.245  32.621  -5.375  1.00  0.00    -0.038 NA
HETATM   20  O1  UNL     1      33.050  31.990  -3.290  1.00  0.00    -0.249 OA
ATOM     21  H2  UNL     1      33.877  30.733  -6.142  1.00  0.00     0.191 HD
ENDBRANCH  15  17
ENDBRANCH  13  15
ENDBRANCH   1  12
TORSDOF 3
ENDMDL