MODEL 4
REMARK VINA RESULT: -6.542543260      0.992      3.166
REMARK  5 active torsions:
REMARK  status: ('A' for Active; 'I' for Inactive)
REMARK    1  A    between atoms: C1_4  and  C2_6
REMARK    2  A    between atoms: C2_6  and  N3_7
REMARK    3  A    between atoms: C2_6  and  C3_11
REMARK    4  A    between atoms: C3_11  and  N4_12
REMARK    5  A    between atoms: C3_11  and  C5_17
ROOT
HETATM    1  C3  UNL     1      34.785  31.716  -1.857  1.00  0.00     0.147 C
ENDROOT
BRANCH   1   2
HETATM    2  C2  UNL     1      35.925  31.131  -2.641  1.00  0.00     0.271 C
BRANCH   2   3
HETATM    3  C1  UNL     1      35.463  30.498  -3.914  1.00  0.00     0.119 C
HETATM    4  N1  UNL     1      35.566  31.090  -5.028  1.00  0.00    -0.389 N
ATOM      5  H12 UNL     1      35.251  30.658  -5.896  1.00  0.00     0.157 HD
ATOM      6  H11 UNL     1      35.973  32.024  -5.079  1.00  0.00     0.157 HD
HETATM    7  N2  UNL     1      34.900  29.209  -3.843  1.00  0.00    -0.086 NA
ENDBRANCH   2   3
BRANCH   2   8
HETATM    8  N3  UNL     1      36.916  32.155  -2.966  1.00  0.00    -0.067 N
ATOM      9  H33 UNL     1      36.559  33.101  -2.834  1.00  0.00     0.275 HD
ATOM     10  H32 UNL     1      37.674  32.196  -2.286  1.00  0.00     0.275 HD
ATOM     11  H31 UNL     1      37.250  31.992  -3.916  1.00  0.00     0.275 HD
ENDBRANCH   2   8
ENDBRANCH   1   2
BRANCH   1  12
HETATM   12  N4  UNL     1      34.680  33.113  -2.096  1.00  0.00    -0.358 N
HETATM   13  C4  UNL     1      34.036  33.729  -3.001  1.00  0.00     0.197 C
HETATM   14  N5  UNL     1      33.242  33.162  -4.024  1.00  0.00    -0.067 NA
HETATM   15  N6  UNL     1      34.118  35.165  -2.994  1.00  0.00    -0.067 NA
ATOM     16  H4  UNL     1      35.196  33.707  -1.448  1.00  0.00     0.162 HD
ENDBRANCH   1  12
BRANCH   1  17
HETATM   17  C5  UNL     1      34.894  31.294  -0.417  1.00  0.00     0.133 A
HETATM   18  C6  UNL     1      35.231  32.437   0.452  1.00  0.00     0.006 A
HETATM   19  C7  UNL     1      36.260  32.119   1.192  1.00  0.00     0.072 A
HETATM   20  C8  UNL     1      36.702  30.768   0.913  1.00  0.00     0.241 A
HETATM   21  O1  UNL     1      37.675  30.128   1.438  1.00  0.00    -0.269 OA
HETATM   22  N7  UNL     1      35.809  30.284  -0.092  1.00  0.00    -0.348 N
ATOM     23  H7  UNL     1      35.833  29.353  -0.506  1.00  0.00     0.163 HD
ENDBRANCH   1  17
TORSDOF 5
ENDMDL