MODEL 1
REMARK VINA RESULT: -7.105549610      0.000      0.000
REMARK  5 active torsions:
REMARK  status: ('A' for Active; 'I' for Inactive)
REMARK       I    between atoms: C1_4  and  N3_6
REMARK    1  A    between atoms: N3_6  and  C2_8
REMARK    2  A    between atoms: C4_12  and  N5_13
REMARK    3  A    between atoms: N5_13  and  O1_14
REMARK    4  A    between atoms: N5_13  and  N6_16
REMARK    5  A    between atoms: N6_16  and  C5_18
ROOT
HETATM    1  C2  UNL     1      35.228  30.642  -0.675  1.00  0.00     0.687 A
HETATM    2  N4  UNL     1      34.456  31.721  -0.470  1.00  0.00    -0.199 N
ATOM      3  H4  UNL     1      34.377  32.078   0.482  1.00  0.00     0.183 HD
HETATM    4  C3  UNL     1      33.776  32.363  -1.445  1.00  0.00     0.145 A
HETATM    5  C4  UNL     1      33.862  31.907  -2.737  1.00  0.00     0.165 A
HETATM    6  C6  UNL     1      34.667  30.782  -2.953  1.00  0.00     0.292 A
HETATM    7  O3  UNL     1      34.751  30.356  -4.146  1.00  0.00    -0.265 OA
HETATM    8  N7  UNL     1      35.318  30.187  -1.943  1.00  0.00    -0.154 N
ATOM      9  H7  UNL     1      35.895  29.370  -2.138  1.00  0.00     0.187 HD
ENDROOT
BRANCH   1  10
HETATM   10  N3  UNL     1      35.856  30.061   0.295  1.00  0.00    -0.164 N
HETATM   11  C1  UNL     1      37.018  30.562   0.895  1.00  0.00     0.200 C
HETATM   12  N1  UNL     1      38.127  30.475   0.261  1.00  0.00    -0.373 N
HETATM   13  N2  UNL     1      36.991  31.157   2.173  1.00  0.00    -0.063 NA
ATOM     14  H12 UNL     1      38.973  30.840   0.698  1.00  0.00     0.158 HD
ATOM     15  H11 UNL     1      38.147  30.044  -0.664  1.00  0.00     0.158 HD
ATOM     16  H3  UNL     1      35.481  29.180   0.645  1.00  0.00     0.187 HD
ENDBRANCH   1  10
BRANCH   5  17
HETATM   17  N5  UNL     1      33.188  32.529  -3.820  1.00  0.00    -0.154 N
BRANCH  17  18
HETATM   18  O1  UNL     1      32.374  31.851  -4.476  1.00  0.00    -0.267 OA
ATOM     19  H1  UNL     1      31.765  32.306  -5.047  1.00  0.00     0.247 HD
ENDBRANCH  17  18
BRANCH  17  20
HETATM   20  N6  UNL     1      33.401  33.863  -4.177  1.00  0.00    -0.250 N
ATOM     21  H6  UNL     1      32.581  34.457  -4.299  1.00  0.00     0.192 HD
BRANCH  20  22
HETATM   22  C5  UNL     1      34.670  34.445  -4.380  1.00  0.00     0.370 C
HETATM   23  O2  UNL     1      35.237  35.094  -3.481  1.00  0.00    -0.282 OA
ENDBRANCH  20  22
ENDBRANCH  17  20
ENDBRANCH   5  17
TORSDOF 5
ENDMDL