MODEL 3
REMARK VINA RESULT: -6.455021759      1.770      4.237
REMARK  5 active torsions:
REMARK  status: ('A' for Active; 'I' for Inactive)
REMARK    1  A    between atoms: C1_4  and  N2_5
REMARK    2  A    between atoms: N2_5  and  C2_7
REMARK    3  A    between atoms: C2_7  and  C3_8
REMARK    4  A    between atoms: C2_7  and  C7_21
REMARK    5  A    between atoms: C3_8  and  C4_12
ROOT
HETATM    1  C3  UNL     1      36.113  31.100  -1.141  1.00  0.00     0.044 C
HETATM    2  N3  UNL     1      37.355  31.177  -1.360  1.00  0.00    -0.401 N
ATOM      3  H31 UNL     1      38.016  31.083  -0.589  1.00  0.00     0.155 HD
ATOM      4  H32 UNL     1      37.672  31.314  -2.319  1.00  0.00     0.155 HD
ENDROOT
BRANCH   1   5
HETATM    5  C2  UNL     1      35.158  31.235  -2.256  1.00  0.00     0.220 C
BRANCH   5   6
HETATM    6  N2  UNL     1      35.167  32.612  -2.773  1.00  0.00    -0.369 N
ATOM      7  H2  UNL     1      35.991  32.923  -3.287  1.00  0.00     0.161 HD
BRANCH   6   8
HETATM    8  C1  UNL     1      34.123  33.520  -2.605  1.00  0.00     0.169 C
HETATM    9  N1  UNL     1      34.114  34.412  -1.676  1.00  0.00    -0.396 N
ATOM     10  H12 UNL     1      34.914  34.441  -1.044  1.00  0.00     0.156 HD
ATOM     11  H11 UNL     1      33.350  35.076  -1.553  1.00  0.00     0.156 HD
ENDBRANCH   6   8
ENDBRANCH   5   6
BRANCH   5  12
HETATM   12  C7  UNL     1      35.482  30.362  -3.416  1.00  0.00     0.259 C
HETATM   13  N6  UNL     1      36.512  30.619  -4.332  1.00  0.00    -0.060 NA
HETATM   14  O3  UNL     1      34.800  29.333  -3.590  1.00  0.00    -0.274 OA
ENDBRANCH   5  12
ENDBRANCH   1   5
BRANCH   1  15
HETATM   15  C4  UNL     1      35.654  30.901   0.250  1.00  0.00     0.226 C
HETATM   16  N4  UNL     1      34.515  31.765   0.551  1.00  0.00    -0.324 N
HETATM   17  C5  UNL     1      34.955  32.877   1.278  1.00  0.00     0.323 C
ATOM     18  H4  UNL     1      33.551  31.585   0.274  1.00  0.00     0.165 HD
HETATM   19  O1  UNL     1      34.358  33.942   1.593  1.00  0.00    -0.247 OA
HETATM   20  N5  UNL     1      36.311  32.625   1.662  1.00  0.00    -0.277 N
HETATM   21  C6  UNL     1      36.717  31.363   1.177  1.00  0.00     0.254 C
ATOM     22  H5  UNL     1      36.895  33.261   2.204  1.00  0.00     0.173 HD
HETATM   23  O2  UNL     1      37.752  30.713   1.439  1.00  0.00    -0.270 OA
ENDBRANCH   1  15
TORSDOF 5
ENDMDL