MODEL 1
REMARK VINA RESULT: -6.824669484      0.000      0.000
REMARK  4 active torsions:
REMARK  status: ('A' for Active; 'I' for Inactive)
REMARK    1  A    between atoms: C3_3  and  N1_4
REMARK       I    between atoms: N1_4  and  C4_6
REMARK       I    between atoms: C4_6  and  N2_8
REMARK    2  A    between atoms: N2_8  and  N3_10
REMARK       I    between atoms: N3_10  and  C5_12
REMARK    3  A    between atoms: N5_14  and  N6_16
REMARK    4  A    between atoms: C6_18  and  C7_19
ROOT
HETATM    1  C1  UNL     1      37.855  37.190  -4.221  1.00  0.00     0.014 C
HETATM    2  C2  UNL     1      37.514  36.041  -4.027  1.00  0.00    -0.098 C
HETATM    3  C3  UNL     1      37.112  34.656  -3.775  1.00  0.00     0.218 C
ENDROOT
BRANCH   3   4
HETATM    4  N1  UNL     1      35.756  34.643  -3.259  1.00  0.00    -0.331 N
HETATM    5  C4  UNL     1      35.363  33.701  -2.265  1.00  0.00     0.335 C
HETATM    6  O1  UNL     1      36.188  32.861  -1.813  1.00  0.00    -0.246 OA
HETATM    7  N2  UNL     1      34.046  33.673  -1.751  1.00  0.00    -0.249 N
ATOM      8  H2  UNL     1      33.354  34.339  -2.095  1.00  0.00     0.192 HD
ATOM      9  H1  UNL     1      35.075  35.316  -3.613  1.00  0.00     0.165 HD
BRANCH   7  10
HETATM   10  N3  UNL     1      33.685  32.742  -0.778  1.00  0.00    -0.268 N
HETATM   11  C5  UNL     1      34.107  32.860   0.571  1.00  0.00     0.222 C
HETATM   12  N4  UNL     1      33.725  33.979   1.358  1.00  0.00    -0.061 NA
HETATM   13  N5  UNL     1      34.844  31.949   1.098  1.00  0.00    -0.273 N
ATOM     14  H5  UNL     1      35.152  32.026   2.067  1.00  0.00     0.189 HD
ATOM     15  H3  UNL     1      33.099  31.951  -1.046  1.00  0.00     0.190 HD
BRANCH  13  16
HETATM   16  N6  UNL     1      35.212  30.858   0.324  1.00  0.00    -0.305 N
HETATM   17  C6  UNL     1      36.319  30.229   0.378  1.00  0.00     0.177 C
ATOM     18  H6  UNL     1      34.529  30.526  -0.357  1.00  0.00     0.186 HD
BRANCH  17  19
HETATM   19  C7  UNL     1      37.341  30.640   1.321  1.00  0.00     0.271 C
HETATM   20  N7  UNL     1      37.031  31.214   2.565  1.00  0.00    -0.057 NA
HETATM   21  O2  UNL     1      38.558  30.464   0.980  1.00  0.00    -0.270 OA
ENDBRANCH  17  19
ENDBRANCH  13  16
ENDBRANCH   7  10
ENDBRANCH   3   4
TORSDOF 4
ENDMDL