MODEL 1
REMARK VINA RESULT: -6.260849836      0.000      0.000
REMARK  5 active torsions:
REMARK  status: ('A' for Active; 'I' for Inactive)
REMARK    1  A    between atoms: N1_1  and  N2_4
REMARK       I    between atoms: N2_4  and  C1_6
REMARK       I    between atoms: C1_6  and  N3_8
REMARK    2  A    between atoms: N3_8  and  C2_10
REMARK    3  A    between atoms: C2_10  and  C3_11
REMARK    4  A    between atoms: C2_10  and  C7_19
REMARK    5  A    between atoms: C3_11  and  C4_12
ROOT
HETATM    1  C2  UNL     1      34.771  32.347  -2.235  1.00  0.00     0.181 C
ENDROOT
BRANCH   1   2
HETATM    2  N3  UNL     1      34.780  31.093  -2.969  1.00  0.00    -0.329 N
HETATM    3  C1  UNL     1      35.974  30.640  -3.566  1.00  0.00     0.335 C
HETATM    4  N2  UNL     1      36.019  29.421  -4.288  1.00  0.00    -0.258 N
HETATM    5  O1  UNL     1      37.057  31.313  -3.476  1.00  0.00    -0.246 OA
ATOM      6  H2  UNL     1      35.164  28.872  -4.370  1.00  0.00     0.191 HD
ATOM      7  H3  UNL     1      33.925  30.542  -3.051  1.00  0.00     0.165 HD
BRANCH   4   8
HETATM    8  N1  UNL     1      37.182  28.938  -4.893  1.00  0.00    -0.341 N
ATOM      9  H12 UNL     1      38.025  29.506  -4.811  1.00  0.00     0.177 HD
ATOM     10  H11 UNL     1      37.218  28.055  -5.402  1.00  0.00     0.177 HD
ENDBRANCH   4   8
ENDBRANCH   1   2
BRANCH   1  11
HETATM   11  C3  UNL     1      34.217  32.020  -0.873  1.00  0.00     0.093 C
BRANCH  11  12
HETATM   12  C4  UNL     1      35.175  31.936   0.217  1.00  0.00     0.028 A
HETATM   13  C5  UNL     1      35.462  32.998   1.080  1.00  0.00     0.114 A
HETATM   14  N4  UNL     1      36.395  32.630   1.971  1.00  0.00    -0.360 N
HETATM   15  C6  UNL     1      36.709  31.353   1.692  1.00  0.00     0.180 A
ATOM     16  H4  UNL     1      36.789  33.207   2.713  1.00  0.00     0.166 HD
HETATM   17  N5  UNL     1      35.979  30.939   0.643  1.00  0.00    -0.354 N
ATOM     18  H5  UNL     1      36.026  30.008   0.229  1.00  0.00     0.166 HD
ENDBRANCH  11  12
ENDBRANCH   1  11
BRANCH   1  19
HETATM   19  C7  UNL     1      34.009  33.334  -3.003  1.00  0.00     0.254 C
HETATM   20  N6  UNL     1      34.192  34.712  -2.779  1.00  0.00    -0.060 NA
HETATM   21  O2  UNL     1      33.187  32.972  -3.868  1.00  0.00    -0.275 OA
ENDBRANCH   1  19
TORSDOF 5
ENDMDL