MODEL 2
REMARK VINA RESULT: -7.236657266      2.472      4.739
REMARK  4 active torsions:
REMARK  status: ('A' for Active; 'I' for Inactive)
REMARK    1  A    between atoms: C1_2  and  C2_4
REMARK    2  A    between atoms: C3_5  and  N2_6
REMARK    3  A    between atoms: C4_7  and  C5_8
REMARK    4  A    between atoms: N3_9  and  N4_11
ROOT
HETATM    1  N2  UNL     1      35.590  31.249   0.111  1.00  0.00    -0.272 N
HETATM    2  C4  UNL     1      34.935  32.367   0.647  1.00  0.00     0.075 A
HETATM    3  C7  UNL     1      35.691  32.887   1.657  1.00  0.00     0.124 A
HETATM    4  N7  UNL     1      36.774  32.126   1.749  1.00  0.00    -0.316 N
ATOM      5  H7  UNL     1      37.535  32.262   2.416  1.00  0.00     0.170 HD
HETATM    6  C8  UNL     1      36.715  31.142   0.820  1.00  0.00     0.331 A
HETATM    7  O2  UNL     1      37.670  30.293   0.730  1.00  0.00    -0.246 OA
ENDROOT
BRANCH   2   8
HETATM    8  C5  UNL     1      33.640  32.846   0.187  1.00  0.00     0.138 C
HETATM    9  N3  UNL     1      33.435  33.664  -0.740  1.00  0.00    -0.308 N
ATOM     10  H3  UNL     1      32.459  33.889  -0.930  1.00  0.00     0.186 HD
BRANCH   9  11
HETATM   11  N4  UNL     1      34.348  34.283  -1.519  1.00  0.00    -0.276 N
HETATM   12  C6  UNL     1      34.376  34.254  -2.819  1.00  0.00     0.215 C
HETATM   13  N5  UNL     1      33.385  33.522  -3.488  1.00  0.00    -0.065 NA
HETATM   14  N6  UNL     1      35.389  34.946  -3.516  1.00  0.00    -0.065 NA
ATOM     15  H4  UNL     1      35.077  34.818  -1.047  1.00  0.00     0.189 HD
ENDBRANCH   9  11
ENDBRANCH   2   8
BRANCH   1  16
HETATM   16  C3  UNL     1      35.111  30.551  -1.008  1.00  0.00     0.107 C
HETATM   17  C2  UNL     1      35.242  30.501  -2.252  1.00  0.00     0.088 C
BRANCH  17  18
HETATM   18  C1  UNL     1      36.007  31.167  -3.240  1.00  0.00     0.255 C
HETATM   19  N1  UNL     1      35.643  31.016  -4.662  1.00  0.00    -0.058 NA
HETATM   20  O1  UNL     1      36.993  31.905  -3.124  1.00  0.00    -0.272 OA
ENDBRANCH  17  18
ENDBRANCH   1  16
TORSDOF 4
ENDMDL