MODEL 4
REMARK VINA RESULT: -6.156009163      1.470      1.677
REMARK  5 active torsions:
REMARK  status: ('A' for Active; 'I' for Inactive)
REMARK    1  A    between atoms: C1_2  and  C2_4
REMARK    2  A    between atoms: C2_4  and  N2_5
REMARK    3  A    between atoms: C2_4  and  C3_9
REMARK    4  A    between atoms: C3_9  and  N3_10
REMARK       I    between atoms: N3_10  and  C4_12
REMARK       I    between atoms: C4_12  and  N4_14
REMARK    5  A    between atoms: N4_14  and  C5_16
ROOT
HETATM    1  N3  UNL     1      34.698  31.603  -3.392  1.00  0.00    -0.340 N
ATOM      2  H3  UNL     1      33.725  31.399  -3.163  1.00  0.00     0.164 HD
HETATM    3  C4  UNL     1      35.709  31.201  -2.502  1.00  0.00     0.334 C
HETATM    4  O2  UNL     1      36.896  31.453  -2.787  1.00  0.00    -0.247 OA
HETATM    5  N4  UNL     1      35.361  30.531  -1.324  1.00  0.00    -0.140 N
ATOM      6  H4  UNL     1      34.627  29.826  -1.388  1.00  0.00     0.189 HD
ENDROOT
BRANCH   1   7
HETATM    7  C3  UNL     1      35.003  32.311  -4.646  1.00  0.00     0.166 C
BRANCH   7   8
HETATM    8  C2  UNL     1      34.260  33.641  -4.620  1.00  0.00     0.289 C
BRANCH   8   9
HETATM    9  C1  UNL     1      34.751  34.506  -3.521  1.00  0.00     0.263 C
HETATM   10  N1  UNL     1      35.987  35.155  -3.698  1.00  0.00    -0.060 NA
HETATM   11  O1  UNL     1      34.105  34.675  -2.450  1.00  0.00    -0.275 OA
ENDBRANCH   8   9
BRANCH   8  12
HETATM   12  N2  UNL     1      32.890  33.398  -4.521  1.00  0.00    -0.065 N
ATOM     13  H23 UNL     1      32.703  32.523  -4.033  1.00  0.00     0.275 HD
ATOM     14  H22 UNL     1      32.445  34.044  -3.868  1.00  0.00     0.275 HD
ATOM     15  H21 UNL     1      32.432  33.420  -5.432  1.00  0.00     0.275 HD
ENDBRANCH   8  12
ENDBRANCH   7   8
ENDBRANCH   1   7
BRANCH   5  16
HETATM   16  C5  UNL     1      35.884  30.728  -0.171  1.00  0.00     0.701 A
HETATM   17  N5  UNL     1      36.108  31.931   0.387  1.00  0.00    -0.185 N
HETATM   18  C6  UNL     1      36.664  31.760   1.591  1.00  0.00     0.215 A
ATOM     19  H5  UNL     1      35.887  32.831  -0.039  1.00  0.00     0.185 HD
HETATM   20  N6  UNL     1      36.796  30.432   1.798  1.00  0.00    -0.281 N
HETATM   21  N7  UNL     1      36.314  29.824   0.710  1.00  0.00    -0.131 N
ATOM     22  H6  UNL     1      37.187  29.981   2.625  1.00  0.00     0.188 HD
ATOM     23  H7  UNL     1      36.279  28.814   0.574  1.00  0.00     0.205 HD
ENDBRANCH   5  16
TORSDOF 5
ENDMDL