MODEL 2
REMARK VINA RESULT: -6.821998731      0.756      1.082
REMARK  8 active torsions:
REMARK  status: ('A' for Active; 'I' for Inactive)
REMARK       I    between atoms: C1_4  and  N2_5
REMARK       I    between atoms: C1_4  and  N5_18
REMARK    1  A    between atoms: N2_5  and  N3_7
REMARK       I    between atoms: N3_7  and  C2_8
REMARK    2  A    between atoms: C2_8  and  C3_10
REMARK    3  A    between atoms: C3_10  and  C4_11
REMARK    4  A    between atoms: C4_11  and  C5_12
REMARK    5  A    between atoms: C5_12  and  C6_13
REMARK    6  A    between atoms: C6_13  and  C7_14
REMARK    7  A    between atoms: C7_14  and  O2_16
REMARK    8  A    between atoms: N5_18  and  N6_20
ROOT
HETATM    1  N1  UNL     1      34.034  31.943   1.196  1.00  0.00    -0.231 N
ATOM      2  H11 UNL     1      33.929  31.064   1.704  1.00  0.00     0.174 HD
ATOM      3  H12 UNL     1      33.341  32.692   1.213  1.00  0.00     0.174 HD
HETATM    4  C1  UNL     1      35.148  32.045   0.531  1.00  0.00     0.720 C
HETATM    5  N2  UNL     1      35.299  33.304  -0.197  1.00  0.00    -0.060 N
ATOM      6  H2  UNL     1      35.827  34.042   0.267  1.00  0.00     0.221 HD
HETATM    7  N5  UNL     1      36.078  31.037   0.508  1.00  0.00    -0.070 N
ATOM      8  H5  UNL     1      35.967  30.301  -0.190  1.00  0.00     0.212 HD
ENDROOT
BRANCH   5   9
HETATM    9  N3  UNL     1      34.848  33.563  -1.320  1.00  0.00    -0.267 NA
HETATM   10  C2  UNL     1      34.300  33.876  -2.681  1.00  0.00     0.343 C
HETATM   11  O1  UNL     1      34.245  35.000  -2.980  1.00  0.00    -0.249 OA
BRANCH  10  12
HETATM   12  C3  UNL     1      33.928  32.630  -3.308  1.00  0.00     0.147 C
BRANCH  12  13
HETATM   13  C4  UNL     1      34.352  31.431  -3.259  1.00  0.00    -0.121 C
BRANCH  13  14
HETATM   14  C5  UNL     1      34.800  30.137  -3.282  1.00  0.00     0.059 C
BRANCH  14  15
HETATM   15  C6  UNL     1      35.270  29.574  -4.447  1.00  0.00     0.060 C
BRANCH  15  16
HETATM   16  C7  UNL     1      36.653  29.365  -4.736  1.00  0.00     0.150 C
HETATM   17  N4  UNL     1      37.720  30.233  -4.884  1.00  0.00    -0.075 NA
BRANCH  16  18
HETATM   18  O2  UNL     1      37.013  28.098  -4.890  1.00  0.00    -0.348 OA
ATOM     19  H2  UNL     1      37.779  27.832  -4.395  1.00  0.00     0.219 HD
ENDBRANCH  16  18
ENDBRANCH  15  16
ENDBRANCH  14  15
ENDBRANCH  13  14
ENDBRANCH  12  13
ENDBRANCH  10  12
ENDBRANCH   5   9
BRANCH   7  20
HETATM   20  N6  UNL     1      37.151  30.954   1.364  1.00  0.00    -0.024 N
HETATM   21  O3  UNL     1      37.132  31.331   2.529  1.00  0.00    -0.516 OA
HETATM   22  O4  UNL     1      38.320  30.370   0.866  1.00  0.00    -0.516 OA
ENDBRANCH   7  20
TORSDOF 8
ENDMDL