MODEL 1
REMARK VINA RESULT: -6.515584653      0.000      0.000
REMARK  6 active torsions:
REMARK  status: ('A' for Active; 'I' for Inactive)
REMARK    1  A    between atoms: N1_1  and  N2_4
REMARK    2  A    between atoms: N2_4  and  N3_6
REMARK    3  A    between atoms: N3_6  and  N4_7
REMARK       I    between atoms: N4_7  and  C1_9
REMARK    4  A    between atoms: C1_9  and  C2_11
REMARK    5  A    between atoms: N5_15  and  C6_16
REMARK    6  A    between atoms: C6_16  and  C7_17
ROOT
HETATM    1  C2  UNL     1      35.567  30.882  -3.130  1.00  0.00     0.049 A
HETATM    2  C3  UNL     1      34.237  31.064  -3.494  1.00  0.00     0.020 A
HETATM    3  C4  UNL     1      33.497  31.918  -2.729  1.00  0.00     0.019 A
HETATM    4  C5  UNL     1      34.061  32.570  -1.636  1.00  0.00     0.096 A
HETATM    5  N5  UNL     1      35.364  32.362  -1.314  1.00  0.00    -0.337 N
HETATM    6  C8  UNL     1      36.097  31.531  -2.051  1.00  0.00     0.113 A
ENDROOT
BRANCH   1   7
HETATM    7  C1  UNL     1      36.352  30.024  -4.002  1.00  0.00     0.270 C
HETATM    8  N4  UNL     1      37.670  30.211  -4.412  1.00  0.00    -0.248 N
ATOM      9  H4  UNL     1      38.198  31.025  -4.098  1.00  0.00     0.187 HD
HETATM   10  O1  UNL     1      35.745  28.968  -4.441  1.00  0.00    -0.266 OA
BRANCH   8  11
HETATM   11  N3  UNL     1      38.268  29.257  -5.271  1.00  0.00    -0.004 NA
BRANCH  11  12
HETATM   12  N2  UNL     1      38.859  28.218  -4.606  1.00  0.00    -0.233 N
ATOM     13  H2  UNL     1      39.675  28.349  -4.007  1.00  0.00     0.205 HD
BRANCH  12  14
HETATM   14  N1  UNL     1      38.285  26.995  -4.796  1.00  0.00    -0.332 N
ATOM     15  H12 UNL     1      37.275  26.894  -4.900  1.00  0.00     0.178 HD
ATOM     16  H11 UNL     1      38.931  26.206  -4.826  1.00  0.00     0.178 HD
ENDBRANCH  12  14
ENDBRANCH  11  12
ENDBRANCH   8  11
ENDBRANCH   1   7
BRANCH   5  17
HETATM   17  C6  UNL     1      35.935  33.096  -0.230  1.00  0.00     0.166 C
BRANCH  17  18
HETATM   18  C7  UNL     1      35.369  32.903   1.088  1.00  0.00     0.270 C
HETATM   19  N6  UNL     1      35.965  31.928   1.952  1.00  0.00    -0.057 NA
HETATM   20  O2  UNL     1      34.383  33.541   1.510  1.00  0.00    -0.270 OA
ENDBRANCH  17  18
ENDBRANCH   5  17
TORSDOF 6
ENDMDL