MODEL 1
REMARK VINA RESULT: -4.349492277      0.000      0.000
REMARK  2 active torsions:
REMARK  status: ('A' for Active; 'I' for Inactive)
REMARK    1  A    between atoms: N2_4  and  N3_6
REMARK    2  A    between atoms: N3_6  and  C1_8
ROOT
HETATM    1  N3  UNL     1      31.204  32.410  27.579  1.00  0.00    -0.290 N
ATOM      2  H3  UNL     1      30.700  31.703  27.043  1.00  0.00     0.184 HD
ENDROOT
BRANCH   1   3
HETATM    3  N2  UNL     1      31.104  33.753  27.237  1.00  0.00    -0.252 N
HETATM    4  N1  UNL     1      30.024  34.215  26.760  1.00  0.00    -0.331 N
ATOM      5  H12 UNL     1      29.233  33.584  26.633  1.00  0.00     0.178 HD
ATOM      6  H11 UNL     1      29.951  35.201  26.509  1.00  0.00     0.178 HD
ATOM      7  H2  UNL     1      31.906  34.371  27.370  1.00  0.00     0.207 HD
ENDBRANCH   1   3
BRANCH   1   8
HETATM    8  C1  UNL     1      32.038  32.019  28.716  1.00  0.00     0.325 A
HETATM    9  C2  UNL     1      31.347  32.007  30.022  1.00  0.00     0.290 A
HETATM   10  N4  UNL     1      32.370  32.983  29.715  1.00  0.00    -0.048 N
ATOM     11  H42 UNL     1      33.241  33.262  30.167  1.00  0.00     0.279 HD
ATOM     12  H41 UNL     1      32.404  34.003  29.733  1.00  0.00     0.279 HD
ENDBRANCH   1   8
TORSDOF 2
ENDMDL