MODEL 3
REMARK VINA RESULT: -4.032162375      1.278      1.353
REMARK  1 active torsions:
REMARK  status: ('A' for Active; 'I' for Inactive)
REMARK    1  A    between atoms: N2_3  and  N3_5
ROOT
HETATM    1  N3  UNL     1      37.199  27.681  32.842  1.00  0.00    -0.287 N
ATOM      2  H3  UNL     1      37.093  28.651  32.545  1.00  0.00     0.188 HD
HETATM    3  C2  UNL     1      37.544  27.405  34.043  1.00  0.00     0.110 A
HETATM    4  C3  UNL     1      37.863  26.427  35.097  1.00  0.00     0.198 A
HETATM    5  N4  UNL     1      37.916  27.867  35.406  1.00  0.00    -0.370 N
ATOM      6  H4  UNL     1      38.084  28.625  36.068  1.00  0.00     0.161 HD
ENDROOT
BRANCH   1   7
HETATM    7  N2  UNL     1      36.972  26.637  31.945  1.00  0.00    -0.297 N
HETATM    8  C1  UNL     1      35.958  26.743  31.152  1.00  0.00     0.206 C
HETATM    9  N1  UNL     1      35.747  25.671  30.250  1.00  0.00    -0.095 NA
ATOM     10  H2  UNL     1      37.583  25.821  31.916  1.00  0.00     0.187 HD
ENDBRANCH   1   7
TORSDOF 1
ENDMDL