MODEL 1
REMARK VINA RESULT: -4.562985555      0.000      0.000
REMARK  2 active torsions:
REMARK  status: ('A' for Active; 'I' for Inactive)
REMARK    1  A    between atoms: N2_3  and  C2_5
REMARK    2  A    between atoms: N3_6  and  C3_8
ROOT
HETATM    1  C2  UNL     1      36.584  27.427  32.141  1.00  0.00     0.178 C
HETATM    2  N3  UNL     1      36.813  27.803  33.356  1.00  0.00    -0.357 N
ATOM      3  H3  UNL     1      36.510  28.726  33.670  1.00  0.00     0.162 HD
ENDROOT
BRANCH   2   4
HETATM    4  C3  UNL     1      37.491  26.924  34.263  1.00  0.00     0.310 A
HETATM    5  C4  UNL     1      38.156  27.435  35.429  1.00  0.00     0.289 A
HETATM    6  N4  UNL     1      38.924  26.899  34.330  1.00  0.00    -0.049 N
ATOM      7  H42 UNL     1      39.639  26.178  34.232  1.00  0.00     0.279 HD
ATOM      8  H41 UNL     1      39.681  27.247  33.740  1.00  0.00     0.279 HD
ENDBRANCH   2   4
BRANCH   1   9
HETATM    9  N2  UNL     1      36.989  26.143  31.646  1.00  0.00    -0.351 N
HETATM   10  C1  UNL     1      36.203  25.524  30.833  1.00  0.00     0.190 C
HETATM   11  N1  UNL     1      34.958  26.063  30.409  1.00  0.00    -0.097 NA
ATOM     12  H2  UNL     1      37.877  25.729  31.931  1.00  0.00     0.166 HD
ENDBRANCH   1   9
TORSDOF 2
ENDMDL