MODEL 5
REMARK VINA RESULT: -3.635110551      9.183      9.959
REMARK  2 active torsions:
REMARK  status: ('A' for Active; 'I' for Inactive)
REMARK    1  A    between atoms: N2_4  and  N3_6
REMARK    2  A    between atoms: N3_6  and  C1_8
ROOT
HETATM    1  N3  UNL     1      36.569  27.201  32.511  1.00  0.00    -0.290 N
ATOM      2  H3  UNL     1      35.673  27.414  32.950  1.00  0.00     0.184 HD
ENDROOT
BRANCH   1   3
HETATM    3  N2  UNL     1      36.651  26.859  31.167  1.00  0.00    -0.252 N
HETATM    4  N1  UNL     1      37.088  25.722  30.849  1.00  0.00    -0.331 N
ATOM      5  H12 UNL     1      37.374  25.072  31.580  1.00  0.00     0.178 HD
ATOM      6  H11 UNL     1      37.147  25.472  29.862  1.00  0.00     0.178 HD
ATOM      7  H2  UNL     1      36.360  27.522  30.447  1.00  0.00     0.207 HD
ENDBRANCH   1   3
BRANCH   1   8
HETATM    8  C1  UNL     1      37.806  27.244  33.266  1.00  0.00     0.325 A
HETATM    9  C2  UNL     1      37.808  27.466  34.709  1.00  0.00     0.290 A
HETATM   10  N4  UNL     1      37.835  26.094  34.244  1.00  0.00    -0.048 N
ATOM     11  H42 UNL     1      37.271  25.260  34.404  1.00  0.00     0.279 HD
ATOM     12  H41 UNL     1      38.437  25.285  34.399  1.00  0.00     0.279 HD
ENDBRANCH   1   8
TORSDOF 2
ENDMDL