MODEL 2
REMARK VINA RESULT: -4.023469708      2.073      2.404
REMARK  4 active torsions:
REMARK  status: ('A' for Active; 'I' for Inactive)
REMARK    1  A    between atoms: O1_2  and  N1_3
REMARK    2  A    between atoms: N1_3  and  O2_4
REMARK    3  A    between atoms: N1_3  and  N2_6
REMARK    4  A    between atoms: N2_6  and  C2_8
ROOT
HETATM    1  N2  UNL     1      36.668  26.663  30.987  1.00  0.00    -0.268 N
ATOM      2  H2  UNL     1      36.631  27.560  30.502  1.00  0.00     0.186 HD
ENDROOT
BRANCH   1   3
HETATM    3  N1  UNL     1      37.521  26.366  32.055  1.00  0.00     0.035 NA
BRANCH   3   4
HETATM    4  O1  UNL     1      37.360  27.221  33.089  1.00  0.00    -0.266 OA
HETATM    5  C1  UNL     1      38.054  26.877  34.215  1.00  0.00     0.234 C
ENDBRANCH   3   4
BRANCH   3   6
HETATM    6  O2  UNL     1      37.121  25.141  32.524  1.00  0.00    -0.271 OA
ATOM      7  H2  UNL     1      37.597  25.012  33.337  1.00  0.00     0.241 HD
ENDBRANCH   3   6
ENDBRANCH   1   3
BRANCH   1   8
HETATM    8  C2  UNL     1      35.860  25.539  30.677  1.00  0.00     0.190 C
HETATM    9  N3  UNL     1      34.604  25.648  30.436  1.00  0.00    -0.394 N
ATOM     10  H32 UNL     1      34.189  26.579  30.473  1.00  0.00     0.156 HD
ATOM     11  H31 UNL     1      34.023  24.839  30.213  1.00  0.00     0.156 HD
ENDBRANCH   1   8
TORSDOF 4
ENDMDL