MODEL 1
REMARK VINA RESULT: -4.418140389      0.000      0.000
REMARK  2 active torsions:
REMARK  status: ('A' for Active; 'I' for Inactive)
REMARK    1  A    between atoms: N2_4  and  N3_6
REMARK    2  A    between atoms: N3_6  and  C1_8
ROOT
HETATM    1  N3  UNL     1      31.777  33.635  27.799  1.00  0.00    -0.296 N
ATOM      2  H3  UNL     1      32.240  34.542  27.867  1.00  0.00     0.184 HD
ENDROOT
BRANCH   1   3
HETATM    3  N2  UNL     1      30.621  33.523  27.026  1.00  0.00    -0.252 N
HETATM    4  N1  UNL     1      29.978  34.546  26.666  1.00  0.00    -0.331 N
ATOM      5  H12 UNL     1      30.321  35.463  26.952  1.00  0.00     0.178 HD
ATOM      6  H11 UNL     1      29.132  34.464  26.101  1.00  0.00     0.178 HD
ATOM      7  H2  UNL     1      30.291  32.598  26.748  1.00  0.00     0.207 HD
ENDBRANCH   1   3
BRANCH   1   8
HETATM    8  C1  UNL     1      32.332  32.523  28.496  1.00  0.00     0.232 A
HETATM    9  C2  UNL     1      31.407  31.763  29.405  1.00  0.00     0.188 A
HETATM   10  N4  UNL     1      31.743  30.748  28.457  1.00  0.00    -0.335 N
HETATM   11  N5  UNL     1      32.504  31.342  27.694  1.00  0.00    -0.314 N
ATOM     12  H4  UNL     1      31.431  29.778  28.422  1.00  0.00     0.179 HD
ATOM     13  H5  UNL     1      33.031  31.100  26.854  1.00  0.00     0.182 HD
ENDBRANCH   1   8
TORSDOF 2
ENDMDL