MODEL 5
REMARK VINA RESULT: -3.594586501      2.517      3.985
REMARK  2 active torsions:
REMARK  status: ('A' for Active; 'I' for Inactive)
REMARK    1  A    between atoms: C1_4  and  N2_5
REMARK    2  A    between atoms: N3_7  and  N4_9
ROOT
HETATM    1  N2  UNL     1      37.588  25.944  34.460  1.00  0.00    -0.280 N
ATOM      2  H2  UNL     1      37.737  26.950  34.382  1.00  0.00     0.189 HD
HETATM    3  N3  UNL     1      37.231  25.300  33.424  1.00  0.00    -0.203 N
ATOM      4  H3  UNL     1      37.083  24.294  33.506  1.00  0.00     0.212 HD
ENDROOT
BRANCH   3   5
HETATM    5  N4  UNL     1      37.032  25.897  32.186  1.00  0.00    -0.084 N
HETATM    6  N5  UNL     1      36.581  27.084  31.835  1.00  0.00    -0.188 N
HETATM    7  N6  UNL     1      36.747  26.744  30.568  1.00  0.00    -0.208 N
ATOM      8  H5  UNL     1      36.247  27.912  32.329  1.00  0.00     0.213 HD
HETATM    9  N7  UNL     1      37.196  25.563  30.934  1.00  0.00    -0.188 N
ATOM     10  H6  UNL     1      36.591  27.208  29.673  1.00  0.00     0.211 HD
ATOM     11  H7  UNL     1      37.531  24.734  30.445  1.00  0.00     0.213 HD
ENDBRANCH   3   5
BRANCH   1  12
HETATM   12  C1  UNL     1      37.789  25.324  35.715  1.00  0.00     0.192 C
HETATM   13  N1  UNL     1      37.159  24.242  35.971  1.00  0.00    -0.394 N
ATOM     14  H12 UNL     1      36.529  23.847  35.273  1.00  0.00     0.156 HD
ATOM     15  H11 UNL     1      37.303  23.795  36.876  1.00  0.00     0.156 HD
ENDBRANCH   1  12
TORSDOF 2
ENDMDL