MODEL 1
REMARK VINA RESULT: -4.677654858      0.000      0.000
REMARK  2 active torsions:
REMARK  status: ('A' for Active; 'I' for Inactive)
REMARK    1  A    between atoms: N2_4  and  N3_6
REMARK    2  A    between atoms: N4_8  and  C1_10
ROOT
HETATM    1  N3  UNL     1      30.537  33.475  27.392  1.00  0.00    -0.231 N
ATOM      2  H3  UNL     1      29.795  32.873  27.746  1.00  0.00     0.209 HD
HETATM    3  N4  UNL     1      31.712  33.339  27.779  1.00  0.00    -0.289 N
ATOM      4  H4  UNL     1      32.396  33.981  27.378  1.00  0.00     0.184 HD
ENDROOT
BRANCH   1   5
HETATM    5  N2  UNL     1      30.264  34.478  26.456  1.00  0.00    -0.235 N
HETATM    6  N1  UNL     1      29.153  35.102  26.606  1.00  0.00    -0.330 N
ATOM      7  H12 UNL     1      28.518  34.869  27.369  1.00  0.00     0.178 HD
ATOM      8  H11 UNL     1      28.954  35.833  25.923  1.00  0.00     0.178 HD
ATOM      9  H2  UNL     1      30.910  34.700  25.699  1.00  0.00     0.209 HD
ENDBRANCH   1   5
BRANCH   3  10
HETATM   10  C1  UNL     1      32.213  32.393  28.719  1.00  0.00     0.325 A
HETATM   11  C2  UNL     1      31.350  31.876  29.769  1.00  0.00     0.290 A
HETATM   12  N5  UNL     1      32.366  32.948  30.087  1.00  0.00    -0.048 N
ATOM     13  H52 UNL     1      33.130  33.062  30.753  1.00  0.00     0.279 HD
ATOM     14  H51 UNL     1      32.347  33.875  30.511  1.00  0.00     0.279 HD
ENDBRANCH   3  10
TORSDOF 2
ENDMDL