MODEL 4
REMARK VINA RESULT: -3.542914863      1.444      4.499
REMARK  3 active torsions:
REMARK  status: ('A' for Active; 'I' for Inactive)
REMARK    1  A    between atoms: N1_1  and  N2_4
REMARK    2  A    between atoms: N2_4  and  C1_6
REMARK    3  A    between atoms: N3_7  and  N4_9
ROOT
HETATM    1  C1  UNL     1      37.408  26.952  34.138  1.00  0.00     0.213 C
HETATM    2  N3  UNL     1      37.973  26.013  33.493  1.00  0.00    -0.294 N
ATOM      3  H3  UNL     1      38.966  25.830  33.634  1.00  0.00     0.187 HD
ENDROOT
BRANCH   2   4
HETATM    4  N4  UNL     1      37.255  25.238  32.604  1.00  0.00    -0.287 N
HETATM    5  C2  UNL     1      36.620  25.688  31.585  1.00  0.00     0.110 A
HETATM    6  C3  UNL     1      35.807  25.612  30.415  1.00  0.00     0.198 A
HETATM    7  N5  UNL     1      36.275  26.936  30.832  1.00  0.00    -0.370 N
ATOM      8  H5  UNL     1      36.328  27.947  30.704  1.00  0.00     0.161 HD
ATOM      9  H4  UNL     1      37.229  24.231  32.769  1.00  0.00     0.188 HD
ENDBRANCH   2   4
BRANCH   1  10
HETATM   10  N2  UNL     1      38.199  27.720  35.043  1.00  0.00    -0.301 N
ATOM     11  H2  UNL     1      38.939  28.312  34.666  1.00  0.00     0.187 HD
BRANCH  10  12
HETATM   12  N1  UNL     1      38.000  27.694  36.430  1.00  0.00    -0.344 N
ATOM     13  H12 UNL     1      37.592  28.521  36.865  1.00  0.00     0.176 HD
ATOM     14  H11 UNL     1      38.247  26.889  37.006  1.00  0.00     0.176 HD
ENDBRANCH  10  12
ENDBRANCH   1  10
TORSDOF 3
ENDMDL