MODEL 5
REMARK VINA RESULT: -3.084765042      9.196     10.124
REMARK  2 active torsions:
REMARK  status: ('A' for Active; 'I' for Inactive)
REMARK    1  A    between atoms: N1_2  and  N2_4
REMARK    2  A    between atoms: N1_2  and  C3_7
ROOT
HETATM    1  C1  UNL     1      36.928  27.768  32.811  1.00  0.00     0.305 C
HETATM    2  N1  UNL     1      37.765  26.756  33.434  1.00  0.00     0.033 N
HETATM    3  C2  UNL     1      37.222  25.409  33.200  1.00  0.00     0.305 C
ENDROOT
BRANCH   2   4
HETATM    4  N2  UNL     1      39.028  26.785  32.861  1.00  0.00    -0.259 N
ATOM      5  H22 UNL     1      39.846  26.307  33.240  1.00  0.00     0.183 HD
ATOM      6  H21 UNL     1      39.002  27.353  32.014  1.00  0.00     0.183 HD
ENDBRANCH   2   4
BRANCH   2   7
HETATM    7  C3  UNL     1      37.793  26.981  34.872  1.00  0.00     0.431 A
HETATM    8  N3  UNL     1      37.800  28.254  35.436  1.00  0.00    -0.091 NA
HETATM    9  N4  UNL     1      39.019  27.616  35.352  1.00  0.00    -0.091 NA
ENDBRANCH   2   7
TORSDOF 2
ENDMDL