MODEL 4
REMARK VINA RESULT: -4.673342298      1.501      3.171
REMARK  0 active torsions:
REMARK  status: ('A' for Active; 'I' for Inactive)
REMARK       I    between atoms: N1_1  and  C1_4
ROOT
HETATM    1  N1  UNL     1      28.377  27.955  -0.668  1.00  0.00    -0.234 N
ATOM      2  H11 UNL     1      28.522  27.300  -1.436  1.00  0.00     0.174 HD
ATOM      3  H12 UNL     1      27.537  28.518  -0.540  1.00  0.00     0.174 HD
HETATM    4  C1  UNL     1      29.331  28.069   0.190  1.00  0.00     0.682 C
HETATM    5  N2  UNL     1      29.139  28.938   1.207  1.00  0.00    -0.155 N
ATOM      6  H2  UNL     1      28.220  29.380   1.216  1.00  0.00     0.187 HD
HETATM    7  C2  UNL     1      29.954  29.321   2.214  1.00  0.00     0.275 C
HETATM    8  O1  UNL     1      29.480  30.082   3.104  1.00  0.00    -0.266 OA
HETATM    9  C3  UNL     1      31.278  28.991   2.418  1.00  0.00     0.167 C
HETATM   10  N3  UNL     1      31.956  28.020   1.763  1.00  0.00    -0.313 N
ATOM     11  H3  UNL     1      32.898  27.842   2.111  1.00  0.00     0.170 HD
HETATM   12  C4  UNL     1      31.577  27.246   0.713  1.00  0.00     0.338 C
HETATM   13  O2  UNL     1      32.426  26.372   0.395  1.00  0.00    -0.246 OA
HETATM   14  N4  UNL     1      30.446  27.323   0.021  1.00  0.00    -0.141 N
ATOM     15  H4  UNL     1      30.412  26.703  -0.788  1.00  0.00     0.189 HD
ENDROOT
TORSDOF 0
ENDMDL