MODEL 1
REMARK VINA RESULT: -4.979966881      0.000      0.000
REMARK  1 active torsions:
REMARK  status: ('A' for Active; 'I' for Inactive)
REMARK    1  A    between atoms: N1_1  and  C1_4
ROOT
HETATM    1  C1  UNL     1      28.455  27.333   1.531  1.00  0.00     0.694 A
HETATM    2  N2  UNL     1      28.865  28.076   2.576  1.00  0.00    -0.139 N
ATOM      3  H2  UNL     1      28.184  28.408   3.259  1.00  0.00     0.189 HD
HETATM    4  C2  UNL     1      30.166  28.383   2.726  1.00  0.00     0.376 A
HETATM    5  O1  UNL     1      30.540  29.086   3.717  1.00  0.00    -0.243 OA
HETATM    6  N3  UNL     1      31.106  27.967   1.849  1.00  0.00    -0.014 N
HETATM    7  N4  UNL     1      32.371  27.934   1.482  1.00  0.00    -0.203 N
ATOM      8  H4  UNL     1      33.248  28.310   1.842  1.00  0.00     0.210 HD
HETATM    9  N5  UNL     1      32.008  27.201   0.442  1.00  0.00    -0.114 N
ATOM     10  H5  UNL     1      32.517  26.780  -0.334  1.00  0.00     0.207 HD
HETATM   11  C3  UNL     1      30.712  27.223   0.799  1.00  0.00     0.739 A
HETATM   12  N6  UNL     1      29.403  26.926   0.668  1.00  0.00    -0.019 N
ATOM     13  H6  UNL     1      29.116  26.362  -0.132  1.00  0.00     0.203 HD
ENDROOT
BRANCH   1  14
HETATM   14  N1  UNL     1      27.195  27.020   1.362  1.00  0.00    -0.234 N
ATOM     15  H12 UNL     1      26.540  26.997   2.144  1.00  0.00     0.174 HD
ATOM     16  H11 UNL     1      26.819  26.788   0.443  1.00  0.00     0.174 HD
ENDBRANCH   1  14
TORSDOF 1
ENDMDL