MODEL 3
REMARK VINA RESULT: -4.528354459      0.596      1.487
REMARK  1 active torsions:
REMARK  status: ('A' for Active; 'I' for Inactive)
REMARK    1  A    between atoms: N1_1  and  C1_4
ROOT
HETATM    1  C1  UNL     1      30.853  28.275   2.219  1.00  0.00     0.707 A
HETATM    2  N2  UNL     1      29.679  28.406   2.860  1.00  0.00    -0.018 N
ATOM      3  H2  UNL     1      29.519  28.947   3.710  1.00  0.00     0.203 HD
HETATM    4  C2  UNL     1      28.751  27.702   2.188  1.00  0.00     0.738 A
HETATM    5  N3  UNL     1      27.441  27.327   2.144  1.00  0.00    -0.136 N
ATOM      6  H3  UNL     1      26.730  27.603   2.821  1.00  0.00     0.189 HD
HETATM    7  C3  UNL     1      27.228  26.548   1.087  1.00  0.00     0.355 A
HETATM    8  O1  UNL     1      26.110  26.039   0.772  1.00  0.00    -0.245 OA
HETATM    9  N4  UNL     1      28.414  26.430   0.458  1.00  0.00    -0.214 N
ATOM     10  H4  UNL     1      28.579  25.892  -0.393  1.00  0.00     0.194 HD
HETATM   11  N5  UNL     1      29.338  27.123   1.117  1.00  0.00    -0.001 N
HETATM   12  N6  UNL     1      30.611  27.486   1.157  1.00  0.00    -0.095 N
ATOM     13  H6  UNL     1      31.314  27.203   0.474  1.00  0.00     0.208 HD
ENDROOT
BRANCH   1  14
HETATM   14  N1  UNL     1      32.003  28.801   2.544  1.00  0.00    -0.233 N
ATOM     15  H12 UNL     1      32.835  28.844   1.958  1.00  0.00     0.174 HD
ATOM     16  H11 UNL     1      32.255  29.251   3.424  1.00  0.00     0.174 HD
ENDBRANCH   1  14
TORSDOF 1
ENDMDL