MODEL 4
REMARK VINA RESULT: -4.633036704      0.973      3.249
REMARK  1 active torsions:
REMARK  status: ('A' for Active; 'I' for Inactive)
REMARK    1  A    between atoms: N1_1  and  C1_4
ROOT
HETATM    1  C1  UNL     1      28.710  26.482   0.395  1.00  0.00     0.169 C
HETATM    2  N2  UNL     1      30.032  26.537   0.207  1.00  0.00    -0.334 N
ATOM      3  H2  UNL     1      30.405  25.870  -0.469  1.00  0.00     0.168 HD
HETATM    4  C2  UNL     1      30.942  27.346   0.779  1.00  0.00     0.186 C
HETATM    5  N3  UNL     1      30.720  28.374   1.624  1.00  0.00    -0.305 N
ATOM      6  H3  UNL     1      31.515  28.999   1.750  1.00  0.00     0.171 HD
HETATM    7  C3  UNL     1      29.612  28.714   2.336  1.00  0.00     0.328 C
HETATM    8  O1  UNL     1      29.672  29.755   3.041  1.00  0.00    -0.247 OA
HETATM    9  N4  UNL     1      28.464  28.002   2.327  1.00  0.00    -0.272 N
ATOM     10  H4  UNL     1      27.824  28.204   3.095  1.00  0.00     0.174 HD
HETATM   11  C4  UNL     1      28.038  27.066   1.459  1.00  0.00     0.293 C
HETATM   12  O2  UNL     1      26.858  26.619   1.588  1.00  0.00    -0.264 OA
ENDROOT
BRANCH   1  13
HETATM   13  N1  UNL     1      28.011  25.839  -0.474  1.00  0.00    -0.381 N
ATOM     14  H12 UNL     1      28.097  24.822  -0.495  1.00  0.00     0.157 HD
ATOM     15  H11 UNL     1      27.411  26.384  -1.093  1.00  0.00     0.157 HD
ENDBRANCH   1  13
TORSDOF 1
ENDMDL