MODEL 3
REMARK VINA RESULT: -4.446879012      2.187      3.453
REMARK  2 active torsions:
REMARK  status: ('A' for Active; 'I' for Inactive)
REMARK    1  A    between atoms: N1_1  and  C1_4
REMARK    2  A    between atoms: N3_7  and  N4_8
ROOT
HETATM    1  C1  UNL     1      29.212  27.964   1.804  1.00  0.00     0.166 A
HETATM    2  N2  UNL     1      29.685  27.094   0.897  1.00  0.00    -0.260 N
ATOM      3  H2  UNL     1      29.143  26.248   0.718  1.00  0.00     0.191 HD
HETATM    4  N3  UNL     1      30.802  27.264   0.225  1.00  0.00    -0.187 N
HETATM    5  C2  UNL     1      31.563  28.357   0.411  1.00  0.00     0.159 A
HETATM    6  N5  UNL     1      32.781  28.556  -0.315  1.00  0.00    -0.079 NA
HETATM    7  C3  UNL     1      31.134  29.292   1.330  1.00  0.00     0.107 A
HETATM    8  C4  UNL     1      29.954  29.106   2.037  1.00  0.00     0.219 A
HETATM    9  O1  UNL     1      29.556  29.939   2.866  1.00  0.00    -0.284 OA
ENDROOT
BRANCH   1  10
HETATM   10  N1  UNL     1      28.099  27.708   2.417  1.00  0.00    -0.381 N
ATOM     11  H12 UNL     1      27.971  26.895   3.020  1.00  0.00     0.157 HD
ATOM     12  H11 UNL     1      27.305  28.339   2.304  1.00  0.00     0.157 HD
ENDBRANCH   1  10
BRANCH   4  13
HETATM   13  N4  UNL     1      31.237  26.308  -0.712  1.00  0.00    -0.323 N
ATOM     14  H42 UNL     1      30.862  25.363  -0.640  1.00  0.00     0.179 HD
ATOM     15  H41 UNL     1      31.906  26.554  -1.441  1.00  0.00     0.179 HD
ENDBRANCH   4  13
TORSDOF 2
ENDMDL