MODEL 3
REMARK VINA RESULT: -4.251178936      1.800      3.487
REMARK  3 active torsions:
REMARK  status: ('A' for Active; 'I' for Inactive)
REMARK    1  A    between atoms: N1_2  and  C2_4
REMARK    2  A    between atoms: C3_7  and  N3_8
REMARK    3  A    between atoms: N4_13  and  N5_14
ROOT
HETATM    1  C2  UNL     1      29.738  28.107   2.296  1.00  0.00     0.695 A
HETATM    2  N2  UNL     1      28.433  27.802   2.153  1.00  0.00    -0.170 N
ATOM      3  H2  UNL     1      27.751  28.186   2.809  1.00  0.00     0.186 HD
HETATM    4  C3  UNL     1      28.017  26.995   1.152  1.00  0.00     0.186 A
HETATM    5  C4  UNL     1      28.945  26.488   0.278  1.00  0.00     0.325 A
HETATM    6  O1  UNL     1      28.572  25.741  -0.651  1.00  0.00    -0.261 OA
HETATM    7  N4  UNL     1      30.249  26.797   0.427  1.00  0.00    -0.146 N
HETATM    8  N6  UNL     1      30.612  27.592   1.423  1.00  0.00    -0.108 N
ATOM      9  H6  UNL     1      31.600  27.821   1.529  1.00  0.00     0.208 HD
ENDROOT
BRANCH   1  10
HETATM   10  N1  UNL     1      30.153  28.874   3.244  1.00  0.00    -0.229 N
HETATM   11  C1  UNL     1      31.556  29.177   3.418  1.00  0.00     0.165 C
ATOM     12  H1  UNL     1      29.474  29.279   3.890  1.00  0.00     0.177 HD
ENDBRANCH   1  10
BRANCH   4  13
HETATM   13  N3  UNL     1      26.748  26.704   1.020  1.00  0.00    -0.380 N
ATOM     14  H32 UNL     1      26.045  27.442   1.009  1.00  0.00     0.157 HD
ATOM     15  H31 UNL     1      26.449  25.734   0.927  1.00  0.00     0.157 HD
ENDBRANCH   4  13
BRANCH   7  16
HETATM   16  N5  UNL     1      31.202  26.293  -0.447  1.00  0.00    -0.320 N
ATOM     17  H52 UNL     1      31.174  25.313  -0.729  1.00  0.00     0.179 HD
ATOM     18  H51 UNL     1      31.940  26.894  -0.817  1.00  0.00     0.179 HD
ENDBRANCH   7  16
TORSDOF 3
ENDMDL