MODEL 3
REMARK VINA RESULT: -4.820331269      0.850      1.003
REMARK  1 active torsions:
REMARK  status: ('A' for Active; 'I' for Inactive)
REMARK    1  A    between atoms: N1_1  and  C1_4
ROOT
HETATM    1  C1  UNL     1      28.020  27.001   1.088  1.00  0.00     0.167 A
HETATM    2  N2  UNL     1      28.056  27.711   2.230  1.00  0.00    -0.281 N
ATOM      3  H2  UNL     1      27.183  27.876   2.732  1.00  0.00     0.188 HD
HETATM    4  N3  UNL     1      29.181  28.207   2.729  1.00  0.00    -0.281 N
ATOM      5  H3  UNL     1      29.140  28.737   3.599  1.00  0.00     0.188 HD
HETATM    6  C2  UNL     1      30.381  28.037   2.130  1.00  0.00     0.168 A
HETATM    7  N4  UNL     1      31.641  28.417   2.406  1.00  0.00    -0.268 N
ATOM      8  H4  UNL     1      31.945  28.965   3.212  1.00  0.00     0.190 HD
HETATM    9  N5  UNL     1      32.406  27.952   1.446  1.00  0.00    -0.240 N
ATOM     10  H5  UNL     1      33.415  28.086   1.391  1.00  0.00     0.208 HD
HETATM   11  N6  UNL     1      31.683  27.282   0.556  1.00  0.00    -0.279 N
ATOM     12  H6  UNL     1      32.039  26.824  -0.283  1.00  0.00     0.189 HD
HETATM   13  C3  UNL     1      30.395  27.313   0.954  1.00  0.00     0.150 A
HETATM   14  C4  UNL     1      29.213  26.796   0.434  1.00  0.00     0.248 A
HETATM   15  O1  UNL     1      29.215  26.141  -0.628  1.00  0.00    -0.282 OA
ENDROOT
BRANCH   1  16
HETATM   16  N1  UNL     1      26.896  26.521   0.614  1.00  0.00    -0.381 N
ATOM     17  H12 UNL     1      26.858  25.601   0.175  1.00  0.00     0.157 HD
ATOM     18  H11 UNL     1      26.024  27.049   0.670  1.00  0.00     0.157 HD
ENDBRANCH   1  16
TORSDOF 1
ENDMDL