MODEL 3
REMARK VINA RESULT: -4.893495510      1.554      3.559
REMARK  2 active torsions:
REMARK  status: ('A' for Active; 'I' for Inactive)
REMARK    1  A    between atoms: N2_4  and  O1_5
REMARK    2  A    between atoms: N2_4  and  N3_7
ROOT
HETATM    1  N3  UNL     1      28.775  27.761   1.513  1.00  0.00    -0.095 N
HETATM    2  N4  UNL     1      29.091  28.195   2.733  1.00  0.00    -0.222 N
ATOM      3  H4  UNL     1      28.667  27.864   3.600  1.00  0.00     0.194 HD
HETATM    4  C1  UNL     1      30.044  29.128   2.654  1.00  0.00     0.344 A
HETATM    5  O2  UNL     1      30.576  29.749   3.598  1.00  0.00    -0.245 OA
HETATM    6  N5  UNL     1      30.340  29.295   1.379  1.00  0.00    -0.256 N
ATOM      7  H5  UNL     1      31.032  29.941   1.000  1.00  0.00     0.175 HD
HETATM    8  C2  UNL     1      29.570  28.463   0.676  1.00  0.00     0.368 A
HETATM    9  O3  UNL     1      29.539  28.311  -0.587  1.00  0.00    -0.243 OA
ENDROOT
BRANCH   1  10
HETATM   10  N2  UNL     1      27.843  26.792   1.164  1.00  0.00    -0.075 N
HETATM   11  N1  UNL     1      28.212  25.773   0.520  1.00  0.00    -0.302 N
ATOM     12  H12 UNL     1      27.528  25.062   0.264  1.00  0.00     0.181 HD
ATOM     13  H11 UNL     1      29.197  25.692   0.265  1.00  0.00     0.181 HD
BRANCH  10  14
HETATM   14  O1  UNL     1      26.529  26.900   1.506  1.00  0.00    -0.252 OA
ATOM     15  H1  UNL     1      26.202  26.361   2.218  1.00  0.00     0.248 HD
ENDBRANCH  10  14
ENDBRANCH   1  10
TORSDOF 2
ENDMDL