MODEL 1
REMARK VINA RESULT: -5.321537625      0.000      0.000
REMARK  1 active torsions:
REMARK  status: ('A' for Active; 'I' for Inactive)
REMARK    1  A    between atoms: N1_1  and  C1_4
ROOT
HETATM    1  C1  UNL     1      31.354  28.597   2.625  1.00  0.00     0.146 A
HETATM    2  N2  UNL     1      32.267  28.181   1.739  1.00  0.00    -0.282 N
ATOM      3  H2  UNL     1      33.260  28.408   1.786  1.00  0.00     0.188 HD
HETATM    4  N3  UNL     1      31.710  27.435   0.792  1.00  0.00    -0.282 N
ATOM      5  H3  UNL     1      32.210  27.009   0.011  1.00  0.00     0.188 HD
HETATM    6  C2  UNL     1      30.390  27.325   1.015  1.00  0.00     0.156 A
HETATM    7  N4  UNL     1      29.329  26.729   0.439  1.00  0.00    -0.290 N
ATOM      8  H4  UNL     1      29.471  26.185  -0.412  1.00  0.00     0.172 HD
HETATM    9  C3  UNL     1      28.086  26.829   0.951  1.00  0.00     0.340 A
HETATM   10  O1  UNL     1      27.096  26.252   0.382  1.00  0.00    -0.245 OA
HETATM   11  N5  UNL     1      27.873  27.540   2.070  1.00  0.00    -0.251 N
ATOM     12  H5  UNL     1      26.929  27.610   2.450  1.00  0.00     0.191 HD
HETATM   13  N6  UNL     1      28.865  28.150   2.687  1.00  0.00    -0.290 N
ATOM     14  H6  UNL     1      28.671  28.682   3.535  1.00  0.00     0.187 HD
HETATM   15  C4  UNL     1      30.122  28.089   2.229  1.00  0.00     0.139 A
ENDROOT
BRANCH   1  16
HETATM   16  N1  UNL     1      31.560  29.339   3.667  1.00  0.00    -0.382 N
ATOM     17  H12 UNL     1      32.440  29.800   3.900  1.00  0.00     0.157 HD
ATOM     18  H11 UNL     1      30.887  29.571   4.398  1.00  0.00     0.157 HD
ENDBRANCH   1  16
TORSDOF 1
ENDMDL