MODEL 1
REMARK VINA RESULT: -4.970414698      0.000      0.000
REMARK  0 active torsions:
REMARK  status: ('A' for Active; 'I' for Inactive)
ROOT
HETATM    1  N1  UNL     1      30.829  27.345  -0.620  1.00  0.00    -0.079 NA
HETATM    2  C1  UNL     1      30.920  28.012   0.628  1.00  0.00     0.160 A
HETATM    3  N2  UNL     1      29.929  28.837   1.048  1.00  0.00    -0.304 N
ATOM      4  H2  UNL     1      29.095  29.001   0.483  1.00  0.00     0.170 HD
HETATM    5  C2  UNL     1      30.097  29.430   2.245  1.00  0.00     0.315 A
HETATM    6  O1  UNL     1      29.201  30.202   2.668  1.00  0.00    -0.262 OA
HETATM    7  C3  UNL     1      31.211  29.232   3.038  1.00  0.00     0.315 A
HETATM    8  O2  UNL     1      31.332  29.806   4.155  1.00  0.00    -0.262 OA
HETATM    9  N3  UNL     1      32.158  28.404   2.568  1.00  0.00    -0.304 N
ATOM     10  H3  UNL     1      32.991  28.240   3.134  1.00  0.00     0.170 HD
HETATM   11  C4  UNL     1      32.052  27.785   1.388  1.00  0.00     0.160 A
HETATM   12  N4  UNL     1      33.067  26.907   0.903  1.00  0.00    -0.079 NA
ENDROOT
TORSDOF 0
ENDMDL