MODEL 3
REMARK VINA RESULT: -8.133551305      1.867      2.292
REMARK  9 active torsions:
REMARK  status: ('A' for Active; 'I' for Inactive)
REMARK    1  A    between atoms: C1_4  and  C2_5
REMARK    2  A    between atoms: C2_5  and  O1_6
REMARK    3  A    between atoms: C2_5  and  N2_8
REMARK    4  A    between atoms: N2_8  and  C3_10
REMARK    5  A    between atoms: C6_13  and  N3_14
REMARK    6  A    between atoms: N3_14  and  C7_16
REMARK    7  A    between atoms: C9_21  and  N5_22
REMARK       I    between atoms: N6_25  and  C10_26
REMARK       I    between atoms: C10_26  and  N7_28
REMARK    8  A    between atoms: N7_28  and  N8_30
REMARK    9  A    between atoms: C11_34  and  C12_35
ROOT
HETATM    1  C7  UNL     1      12.248  22.626   3.362  1.00  0.00     0.144 A
HETATM    2  N4  UNL     1      13.480  23.017   3.142  1.00  0.00    -0.319 N
ATOM      3  H4  UNL     1      13.775  23.961   2.892  1.00  0.00     0.169 HD
HETATM    4  C8  UNL     1      14.283  21.953   3.303  1.00  0.00     0.176 A
HETATM    5  S1  UNL     1      15.916  21.487   3.197  1.00  0.00    -0.014 SA
HETATM    6  C9  UNL     1      15.694  19.868   3.592  1.00  0.00     0.172 A
HETATM    7  N6  UNL     1      14.369  19.752   3.789  1.00  0.00    -0.172 N
HETATM    8  C10 UNL     1      13.950  18.400   4.127  1.00  0.00     0.362 C
HETATM    9  O2  UNL     1      12.906  18.251   4.761  1.00  0.00    -0.243 OA
HETATM   10  N7  UNL     1      14.669  17.231   3.759  1.00  0.00    -0.256 N
ATOM     11  H7  UNL     1      15.535  17.267   3.220  1.00  0.00     0.191 HD
HETATM   12  N9  UNL     1      13.637  20.829   3.635  1.00  0.00    -0.210 N
HETATM   13  C11 UNL     1      12.315  21.239   3.673  1.00  0.00     0.179 A
ENDROOT
BRANCH   1  14
HETATM   14  N3  UNL     1      11.163  23.520   3.243  1.00  0.00    -0.340 N
ATOM     15  H3  UNL     1      11.029  24.235   3.957  1.00  0.00     0.167 HD
BRANCH  14  16
HETATM   16  C6  UNL     1      10.242  23.448   2.144  1.00  0.00     0.033 A
HETATM   17  C5  UNL     1       8.942  23.805   2.436  1.00  0.00     0.031 A
HETATM   18  C4  UNL     1       7.994  23.799   1.439  1.00  0.00     0.031 A
HETATM   19  C3  UNL     1       8.372  23.433   0.159  1.00  0.00     0.030 A
HETATM   20  C14 UNL     1       9.663  23.082  -0.119  1.00  0.00     0.031 A
HETATM   21  C13 UNL     1      10.631  23.086   0.890  1.00  0.00     0.031 A
BRANCH  19  22
HETATM   22  N2  UNL     1       7.419  23.429  -0.880  1.00  0.00    -0.360 N
ATOM     23  H2  UNL     1       7.347  24.237  -1.497  1.00  0.00     0.162 HD
BRANCH  22  24
HETATM   24  C2  UNL     1       6.553  22.312  -1.081  1.00  0.00     0.257 C
BRANCH  24  25
HETATM   25  C1  UNL     1       5.703  22.558  -2.265  1.00  0.00     0.106 C
HETATM   26  N1  UNL     1       5.281  23.752  -2.476  1.00  0.00    -0.408 N
ATOM     27  H12 UNL     1       5.535  24.502  -1.833  1.00  0.00     0.155 HD
ATOM     28  H11 UNL     1       4.694  23.921  -3.294  1.00  0.00     0.155 HD
ENDBRANCH  24  25
BRANCH  24  29
HETATM   29  O1  UNL     1       7.293  21.149  -1.326  1.00  0.00    -0.372 OA
ATOM     30  H1  UNL     1       6.700  20.502  -1.689  1.00  0.00     0.212 HD
ENDBRANCH  24  29
ENDBRANCH  22  24
ENDBRANCH  19  22
ENDBRANCH  14  16
ENDBRANCH   1  14
BRANCH  13  31
HETATM   31  C12 UNL     1      11.073  20.551   3.874  1.00  0.00     0.233 C
HETATM   32  O3  UNL     1      10.228  20.973   4.769  1.00  0.00    -0.643 OA
HETATM   33  O4  UNL     1      10.581  19.468   3.249  1.00  0.00    -0.643 OA
ENDBRANCH  13  31
BRANCH   6  34
HETATM   34  N5  UNL     1      16.655  18.980   3.710  1.00  0.00    -0.378 N
ATOM     35  H52 UNL     1      16.826  18.280   4.433  1.00  0.00     0.158 HD
ATOM     36  H51 UNL     1      17.443  18.879   3.070  1.00  0.00     0.158 HD
ENDBRANCH   6  34
BRANCH  10  37
HETATM   37  N8  UNL     1      14.087  16.002   4.199  1.00  0.00    -0.341 N
ATOM     38  H82 UNL     1      13.171  15.974   4.648  1.00  0.00     0.177 HD
ATOM     39  H81 UNL     1      14.655  15.172   4.029  1.00  0.00     0.177 HD
ENDBRANCH  10  37
TORSDOF 9
ENDMDL