MODEL 1
REMARK VINA RESULT: -8.712101136      0.000      0.000
REMARK  8 active torsions:
REMARK  status: ('A' for Active; 'I' for Inactive)
REMARK       I    between atoms: C2_2  and  N1_4
REMARK    1  A    between atoms: N1_4  and  C3_6
REMARK    2  A    between atoms: C3_6  and  O2_7
REMARK    3  A    between atoms: C3_6  and  C4_9
REMARK    4  A    between atoms: C4_9  and  C5_10
REMARK    5  A    between atoms: C4_9  and  N9_27
REMARK    6  A    between atoms: C5_10  and  N2_11
REMARK    7  A    between atoms: C7_13  and  C8_14
REMARK    8  A    between atoms: C12_40  and  N14_41
ROOT
HETATM    1  C4  UNL     1      11.870  20.826   2.694  1.00  0.00     0.151 C
ENDROOT
BRANCH   1   2
HETATM    2  C3  UNL     1      12.518  19.665   1.962  1.00  0.00     0.244 C
BRANCH   2   3
HETATM    3  N1  UNL     1      13.238  18.766   2.821  1.00  0.00    -0.333 N
HETATM    4  C2  UNL     1      14.498  18.224   2.533  1.00  0.00     0.215 C
HETATM    5  C1  UNL     1      15.149  17.312   3.486  1.00  0.00     0.117 C
HETATM    6  O1  UNL     1      15.069  18.517   1.465  1.00  0.00    -0.274 OA
ATOM      7  H1  UNL     1      12.800  18.504   3.704  1.00  0.00     0.165 HD
ENDBRANCH   2   3
BRANCH   2   8
HETATM    8  O2  UNL     1      11.475  18.876   1.407  1.00  0.00    -0.375 OA
ATOM      9  H2  UNL     1      11.883  18.408   0.688  1.00  0.00     0.212 HD
ENDBRANCH   2   8
ENDBRANCH   1   2
BRANCH   1  10
HETATM   10  C5  UNL     1      11.935  22.124   1.968  1.00  0.00     0.179 C
BRANCH  10  11
HETATM   11  N2  UNL     1      10.614  22.649   1.672  1.00  0.00    -0.285 N
HETATM   12  C6  UNL     1       9.874  22.443   0.577  1.00  0.00     0.146 A
HETATM   13  C7  UNL     1       8.687  23.124   0.721  1.00  0.00     0.113 A
HETATM   14  N7  UNL     1       8.778  23.715   1.920  1.00  0.00    -0.281 N
HETATM   15  N8  UNL     1       9.930  23.424   2.472  1.00  0.00    -0.240 N
ATOM     16  H7  UNL     1       8.059  24.304   2.339  1.00  0.00     0.188 HD
ATOM     17  H8  UNL     1      10.244  23.751   3.386  1.00  0.00     0.208 HD
BRANCH  13  18
HETATM   18  C8  UNL     1       7.594  23.166  -0.245  1.00  0.00     0.167 A
HETATM   19  N3  UNL     1       6.869  24.246  -0.588  1.00  0.00    -0.267 N
HETATM   20  N4  UNL     1       5.959  23.881  -1.505  1.00  0.00    -0.227 N
ATOM     21  H3  UNL     1       6.991  25.187  -0.213  1.00  0.00     0.190 HD
HETATM   22  N5  UNL     1       6.105  22.595  -1.738  1.00  0.00    -0.227 N
ATOM     23  H4  UNL     1       5.274  24.495  -1.945  1.00  0.00     0.210 HD
HETATM   24  N6  UNL     1       7.097  22.154  -0.976  1.00  0.00    -0.267 N
ATOM     25  H5  UNL     1       5.554  22.036  -2.389  1.00  0.00     0.210 HD
ATOM     26  H6  UNL     1       7.432  21.191  -0.949  1.00  0.00     0.190 HD
ENDBRANCH  13  18
ENDBRANCH  10  11
ENDBRANCH   1  10
BRANCH   1  27
HETATM   27  N9  UNL     1      12.221  20.817   4.035  1.00  0.00    -0.364 N
HETATM   28  C9  UNL     1      11.749  21.113   5.138  1.00  0.00     0.134 A
HETATM   29  N10 UNL     1      10.582  21.616   5.536  1.00  0.00    -0.283 N
HETATM   30  C13 UNL     1      12.473  20.939   6.336  1.00  0.00     0.098 A
HETATM   31  N11 UNL     1      10.543  21.759   6.863  1.00  0.00    -0.283 N
ATOM     32  H10 UNL     1       9.817  21.861   4.907  1.00  0.00     0.188 HD
HETATM   33  C10 UNL     1      11.704  21.346   7.388  1.00  0.00     0.138 A
ATOM     34  H11 UNL     1       9.753  22.125   7.394  1.00  0.00     0.188 HD
HETATM   35  N12 UNL     1      12.210  21.265   8.645  1.00  0.00    -0.337 N
HETATM   36  C11 UNL     1      13.460  20.787   8.872  1.00  0.00     0.183 A
ATOM     37  H12 UNL     1      11.640  21.568   9.434  1.00  0.00     0.168 HD
HETATM   38  N13 UNL     1      14.230  20.384   7.860  1.00  0.00    -0.338 N
HETATM   39  C12 UNL     1      13.742  20.458   6.605  1.00  0.00     0.117 A
ATOM     40  H13 UNL     1      15.170  20.027   8.032  1.00  0.00     0.168 HD
ATOM     41  H9  UNL     1      13.167  20.450   4.147  1.00  0.00     0.161 HD
BRANCH  39  42
HETATM   42  N14 UNL     1      14.458  20.078   5.626  1.00  0.00    -0.385 N
ATOM     43 2H14 UNL     1      14.230  19.190   5.180  1.00  0.00     0.157 HD
ATOM     44 1H14 UNL     1      15.235  20.660   5.311  1.00  0.00     0.157 HD
ENDBRANCH  39  42
ENDBRANCH   1  27
TORSDOF 8
ENDMDL