MODEL 1
REMARK VINA RESULT: -8.416668099      0.000      0.000
REMARK  9 active torsions:
REMARK  status: ('A' for Active; 'I' for Inactive)
REMARK       I    between atoms: N1_2  and  C2_4
REMARK    1  A    between atoms: C2_4  and  C3_6
REMARK    2  A    between atoms: C3_6  and  C4_7
REMARK    3  A    between atoms: C3_6  and  C12_34
REMARK    4  A    between atoms: N4_11  and  C5_12
REMARK    5  A    between atoms: C5_12  and  C6_13
REMARK    6  A    between atoms: C6_13  and  N5_14
REMARK    7  A    between atoms: C9_19  and  N7_20
REMARK    8  A    between atoms: C10_25  and  N9_26
REMARK    9  A    between atoms: C15_41  and  N14_42
ROOT
HETATM    1  C4  UNL     1      12.740  21.608   4.131  1.00  0.00     0.129 A
HETATM    2  N2  UNL     1      11.574  21.062   4.560  1.00  0.00    -0.269 N
ATOM      3  H2  UNL     1      11.489  20.320   5.254  1.00  0.00     0.185 HD
HETATM    4  N3  UNL     1      10.566  21.644   3.936  1.00  0.00    -0.003 NA
HETATM    5  N4  UNL     1      11.039  22.562   3.102  1.00  0.00    -0.215 N
HETATM    6  N11 UNL     1      12.357  22.529   3.233  1.00  0.00    -0.272 N
ATOM      7  H11 UNL     1      13.000  23.127   2.715  1.00  0.00     0.189 HD
ENDROOT
BRANCH   5   8
HETATM    8  C5  UNL     1      10.289  23.438   2.219  1.00  0.00     0.187 C
BRANCH   8   9
HETATM    9  C6  UNL     1      10.022  22.760   0.889  1.00  0.00     0.154 C
BRANCH   9  10
HETATM   10  N5  UNL     1       8.808  23.269   0.277  1.00  0.00    -0.325 N
HETATM   11  C7  UNL     1       8.268  24.483   0.363  1.00  0.00     0.185 A
HETATM   12  N6  UNL     1       7.129  24.536  -0.370  1.00  0.00    -0.346 N
HETATM   13  C8  UNL     1       6.926  23.344  -0.943  1.00  0.00     0.123 A
ATOM     14  H6  UNL     1       6.526  25.352  -0.470  1.00  0.00     0.167 HD
HETATM   15  C9  UNL     1       5.932  22.874  -1.773  1.00  0.00     0.145 A
HETATM   16  C11 UNL     1       7.982  22.553  -0.532  1.00  0.00     0.155 A
HETATM   17  N8  UNL     1       6.030  21.596  -2.174  1.00  0.00    -0.175 N
HETATM   18  C10 UNL     1       7.046  20.794  -1.795  1.00  0.00     0.679 A
ATOM     19  H8  UNL     1       5.309  21.217  -2.789  1.00  0.00     0.186 HD
HETATM   20  N10 UNL     1       8.011  21.288  -0.976  1.00  0.00    -0.174 N
ATOM     21  H10 UNL     1       8.778  20.680  -0.690  1.00  0.00     0.186 HD
BRANCH  15  22
HETATM   22  N7  UNL     1       4.935  23.585  -2.174  1.00  0.00    -0.383 N
ATOM     23  H72 UNL     1       5.097  24.547  -2.474  1.00  0.00     0.157 HD
ATOM     24  H71 UNL     1       3.973  23.246  -2.215  1.00  0.00     0.157 HD
ENDBRANCH  15  22
BRANCH  18  25
HETATM   25  N9  UNL     1       7.088  19.575  -2.211  1.00  0.00    -0.234 N
ATOM     26  H92 UNL     1       6.801  19.332  -3.160  1.00  0.00     0.174 HD
ATOM     27  H91 UNL     1       7.414  18.837  -1.586  1.00  0.00     0.174 HD
ENDBRANCH  18  25
ENDBRANCH   9  10
ENDBRANCH   8   9
ENDBRANCH   5   8
BRANCH   1  28
HETATM   28  C3  UNL     1      14.117  21.232   4.590  1.00  0.00     0.201 C
BRANCH  28  29
HETATM   29  C2  UNL     1      15.095  22.177   4.057  1.00  0.00     0.234 C
HETATM   30  N1  UNL     1      15.969  22.873   4.920  1.00  0.00    -0.364 N
HETATM   31  C1  UNL     1      16.955  23.824   4.422  1.00  0.00     0.149 C
ATOM     32  H1  UNL     1      15.909  22.706   5.925  1.00  0.00     0.161 HD
HETATM   33  O1  UNL     1      15.171  22.383   2.830  1.00  0.00    -0.272 OA
ENDBRANCH  28  29
BRANCH  28  34
HETATM   34  C12 UNL     1      14.353  19.841   4.205  1.00  0.00     0.074 A
HETATM   35  N12 UNL     1      14.446  19.534   2.890  1.00  0.00    -0.364 N
HETATM   36  C13 UNL     1      14.669  18.252   2.532  1.00  0.00     0.105 A
ATOM     37  H12 UNL     1      14.350  20.259   2.180  1.00  0.00     0.165 HD
HETATM   38  C14 UNL     1      14.808  17.229   3.441  1.00  0.00     0.106 A
HETATM   39  N13 UNL     1      14.714  17.535   4.756  1.00  0.00    -0.350 N
HETATM   40  C15 UNL     1      14.489  18.832   5.124  1.00  0.00     0.123 A
ATOM     41  H13 UNL     1      14.811  16.807   5.464  1.00  0.00     0.166 HD
BRANCH  40  42
HETATM   42  N14 UNL     1      14.394  19.118   6.363  1.00  0.00    -0.384 N
ATOM     43 2H14 UNL     1      15.180  19.571   6.829  1.00  0.00     0.157 HD
ATOM     44 1H14 UNL     1      13.533  18.881   6.854  1.00  0.00     0.157 HD
ENDBRANCH  40  42
ENDBRANCH  28  34
ENDBRANCH   1  28
TORSDOF 9
ENDMDL