MODEL 5
REMARK VINA RESULT: -7.995699392      3.585      7.599
REMARK  8 active torsions:
REMARK  status: ('A' for Active; 'I' for Inactive)
REMARK    1  A    between atoms: N1_2  and  N2_3
REMARK    2  A    between atoms: N1_2  and  C8_22
REMARK    3  A    between atoms: N3_5  and  C2_7
REMARK    4  A    between atoms: C4_9  and  N4_10
REMARK    5  A    between atoms: C7_15  and  S1_16
REMARK    6  A    between atoms: S1_16  and  N5_17
REMARK    7  A    between atoms: C9_25  and  N7_26
REMARK       I    between atoms: N7_26  and  C10_28
REMARK       I    between atoms: C10_28  and  N8_29
REMARK       I    between atoms: C10_28  and  N9_33
REMARK    8  A    between atoms: C11_39  and  N11_40
ROOT
HETATM    1  C8  UNL     1      11.113  22.902   1.854  1.00  0.00     0.729 A
HETATM    2  N6  UNL     1      10.203  22.673   0.901  1.00  0.00    -0.020 N
ATOM      3  H6  UNL     1      10.251  21.786   0.399  1.00  0.00     0.203 HD
HETATM    4  C9  UNL     1       9.221  23.543   0.559  1.00  0.00     0.710 A
HETATM    5  N10 UNL     1       9.186  24.696   1.236  1.00  0.00    -0.022 N
ATOM      6  H10 UNL     1       8.463  25.379   1.010  1.00  0.00     0.203 HD
HETATM    7  C11 UNL     1      10.084  24.986   2.216  1.00  0.00     0.705 A
HETATM    8  N12 UNL     1      11.037  24.074   2.508  1.00  0.00    -0.020 N
ATOM      9  H12 UNL     1      11.715  24.279   3.242  1.00  0.00     0.203 HD
ENDROOT
BRANCH   1  10
HETATM   10  N1  UNL     1      12.155  21.965   2.198  1.00  0.00    -0.113 N
HETATM   11  C1  UNL     1      11.913  20.574   1.935  1.00  0.00     0.199 C
BRANCH  10  12
HETATM   12  N2  UNL     1      13.286  22.447   2.758  1.00  0.00    -0.226 N
HETATM   13  N3  UNL     1      13.800  22.509   3.841  1.00  0.00    -0.284 N
ATOM     14  H3  UNL     1      14.704  22.982   3.811  1.00  0.00     0.188 HD
ATOM     15  H2  UNL     1      13.878  22.887   2.053  1.00  0.00     0.209 HD
BRANCH  13  16
HETATM   16  C2  UNL     1      13.468  22.094   5.128  1.00  0.00     0.075 A
HETATM   17  C3  UNL     1      12.175  21.803   5.506  1.00  0.00     0.068 A
HETATM   18  C4  UNL     1      11.848  21.393   6.787  1.00  0.00     0.105 A
HETATM   19  C5  UNL     1      12.861  21.276   7.704  1.00  0.00     0.038 A
HETATM   20  C6  UNL     1      14.181  21.554   7.383  1.00  0.00     0.030 A
HETATM   21  C7  UNL     1      14.457  21.963   6.079  1.00  0.00     0.107 A
BRANCH  18  22
HETATM   22  N4  UNL     1      10.493  21.096   7.149  1.00  0.00    -0.116 N
HETATM   23  O1  UNL     1       9.572  21.318   6.365  1.00  0.00    -0.532 OA
HETATM   24  O2  UNL     1      10.229  20.559   8.379  1.00  0.00    -0.532 OA
ENDBRANCH  18  22
BRANCH  21  25
HETATM   25  S1  UNL     1      16.099  22.337   5.605  1.00  0.00     0.259 S
HETATM   26  O3  UNL     1      16.185  23.771   5.179  1.00  0.00    -0.201 OA
HETATM   27  O4  UNL     1      16.592  21.392   4.529  1.00  0.00    -0.201 OA
BRANCH  25  28
HETATM   28  N5  UNL     1      17.140  22.118   6.966  1.00  0.00    -0.324 N
ATOM     29  H52 UNL     1      16.831  22.108   7.939  1.00  0.00     0.169 HD
ATOM     30  H51 UNL     1      18.098  22.003   6.636  1.00  0.00     0.169 HD
ENDBRANCH  25  28
ENDBRANCH  21  25
ENDBRANCH  13  16
ENDBRANCH  10  12
ENDBRANCH   1  10
BRANCH   4  31
HETATM   31  N7  UNL     1       8.375  23.265  -0.365  1.00  0.00    -0.172 N
HETATM   32  C10 UNL     1       6.996  23.667  -0.240  1.00  0.00     0.494 C
HETATM   33  N8  UNL     1       6.305  23.412  -1.523  1.00  0.00    -0.032 N
HETATM   34  N9  UNL     1       6.312  22.831   0.763  1.00  0.00    -0.032 N
ATOM     35  H83 UNL     1       6.771  23.860  -2.312  1.00  0.00     0.278 HD
ATOM     36  H82 UNL     1       6.402  22.444  -1.832  1.00  0.00     0.278 HD
ATOM     37  H81 UNL     1       5.329  23.697  -1.435  1.00  0.00     0.278 HD
ATOM     38  H93 UNL     1       6.402  21.836   0.557  1.00  0.00     0.278 HD
ATOM     39  H92 UNL     1       6.795  22.842   1.662  1.00  0.00     0.278 HD
ATOM     40  H91 UNL     1       5.337  23.116   0.852  1.00  0.00     0.278 HD
ATOM     41  H7  UNL     1       8.681  22.755  -1.193  1.00  0.00     0.181 HD
ENDBRANCH   4  31
BRANCH   7  42
HETATM   42  N11 UNL     1       9.975  26.112   2.810  1.00  0.00    -0.234 N
ATOM     43 2H11 UNL     1      10.304  26.993   2.415  1.00  0.00     0.174 HD
ATOM     44 1H11 UNL     1       9.535  26.124   3.729  1.00  0.00     0.174 HD
ENDBRANCH   7  42
TORSDOF 8
ENDMDL