MODEL 4
REMARK VINA RESULT: -8.774549268      2.450      3.729
REMARK  8 active torsions:
REMARK  status: ('A' for Active; 'I' for Inactive)
REMARK    1  A    between atoms: N2_5  and  C4_6
REMARK    2  A    between atoms: C6_18  and  C7_19
REMARK       I    between atoms: C7_19  and  N7_21
REMARK    3  A    between atoms: N7_21  and  C8_23
REMARK    4  A    between atoms: C8_23  and  C9_24
REMARK    5  A    between atoms: C9_24  and  C10_25
REMARK    6  A    between atoms: C10_25  and  N8_26
REMARK    7  A    between atoms: C12_31  and  N11_32
REMARK    8  A    between atoms: C13_37  and  N13_38
ROOT
HETATM    1  N1  UNL     1      11.322  18.834   2.076  1.00  0.00    -0.191 NA
HETATM    2  C1  UNL     1      11.701  19.487   2.958  1.00  0.00     0.103 C
HETATM    3  C2  UNL     1      12.176  20.312   4.033  1.00  0.00     0.095 A
HETATM    4  C3  UNL     1      12.564  19.949   5.308  1.00  0.00     0.143 A
HETATM    5  N2  UNL     1      12.943  21.023   6.007  1.00  0.00    -0.244 N
HETATM    6  N6  UNL     1      12.803  22.059   5.199  1.00  0.00    -0.286 N
ATOM      7  H6  UNL     1      13.017  23.022   5.457  1.00  0.00     0.188 HD
HETATM    8  C6  UNL     1      12.339  21.679   3.986  1.00  0.00     0.138 A
ENDROOT
BRANCH   8   9
HETATM    9  C7  UNL     1      12.080  22.598   2.872  1.00  0.00     0.271 C
HETATM   10  O2  UNL     1      12.669  22.343   1.795  1.00  0.00    -0.266 OA
HETATM   11  N7  UNL     1      11.225  23.706   2.982  1.00  0.00    -0.356 N
ATOM     12  H7  UNL     1      10.779  23.848   3.888  1.00  0.00     0.162 HD
BRANCH  11  13
HETATM   13  C8  UNL     1      10.910  24.657   1.962  1.00  0.00     0.124 C
BRANCH  13  14
HETATM   14  C9  UNL     1       9.452  24.692   1.666  1.00  0.00     0.041 C
BRANCH  14  15
HETATM   15  C10 UNL     1       8.934  23.339   1.170  1.00  0.00     0.150 C
BRANCH  15  16
HETATM   16  N8  UNL     1       7.918  23.620   0.173  1.00  0.00    -0.258 N
HETATM   17  N9  UNL     1       7.343  24.784  -0.097  1.00  0.00    -0.018 NA
HETATM   18  N10 UNL     1       6.457  24.644  -1.079  1.00  0.00    -0.277 N
HETATM   19  C11 UNL     1       6.451  23.361  -1.463  1.00  0.00     0.136 A
ATOM     20  H10 UNL     1       5.881  25.388  -1.473  1.00  0.00     0.184 HD
HETATM   21  C12 UNL     1       5.737  22.666  -2.427  1.00  0.00     0.146 A
HETATM   22  C14 UNL     1       7.384  22.705  -0.665  1.00  0.00     0.168 A
HETATM   23  N12 UNL     1       5.958  21.349  -2.579  1.00  0.00    -0.175 N
HETATM   24  C13 UNL     1       6.856  20.705  -1.813  1.00  0.00     0.679 A
ATOM     25  H12 UNL     1       5.436  20.830  -3.285  1.00  0.00     0.186 HD
HETATM   26  N14 UNL     1       7.554  21.385  -0.871  1.00  0.00    -0.173 N
ATOM     27  H14 UNL     1       8.230  20.881  -0.299  1.00  0.00     0.186 HD
BRANCH  21  28
HETATM   28  N11 UNL     1       4.864  23.263  -3.180  1.00  0.00    -0.383 N
ATOM     29 2H11 UNL     1       4.701  24.263  -3.068  1.00  0.00     0.157 HD
ATOM     30 1H11 UNL     1       4.334  22.750  -3.885  1.00  0.00     0.157 HD
ENDBRANCH  21  28
BRANCH  24  31
HETATM   31  N13 UNL     1       7.046  19.434  -1.985  1.00  0.00    -0.234 N
ATOM     32 2H13 UNL     1       7.227  19.057  -2.915  1.00  0.00     0.174 HD
ATOM     33 1H13 UNL     1       7.012  18.809  -1.180  1.00  0.00     0.174 HD
ENDBRANCH  24  31
ENDBRANCH  15  16
ENDBRANCH  14  15
ENDBRANCH  13  14
ENDBRANCH  11  13
ENDBRANCH   8   9
BRANCH   5  34
HETATM   34  C4  UNL     1      13.409  21.055   7.362  1.00  0.00     0.194 A
HETATM   35  N3  UNL     1      14.627  21.411   7.815  1.00  0.00    -0.220 N
HETATM   36  O1  UNL     1      14.653  21.305   9.110  1.00  0.00    -0.153 OA
ATOM     37  H3  UNL     1      15.407  21.716   7.233  1.00  0.00     0.198 HD
HETATM   38  N4  UNL     1      13.509  20.892   9.568  1.00  0.00    -0.222 N
HETATM   39  C5  UNL     1      12.690  20.722   8.491  1.00  0.00     0.169 A
ATOM     40  H4  UNL     1      13.269  20.727  10.545  1.00  0.00     0.198 HD
HETATM   41  N5  UNL     1      11.458  20.320   8.503  1.00  0.00    -0.381 N
ATOM     42  H52 UNL     1      10.846  20.193   7.698  1.00  0.00     0.157 HD
ATOM     43  H51 UNL     1      10.927  20.074   9.338  1.00  0.00     0.157 HD
ENDBRANCH   5  34
TORSDOF 8
ENDMDL