MODEL 4
REMARK VINA RESULT: -7.491465843      1.494      2.930
REMARK  11 active torsions:
REMARK  status: ('A' for Active; 'I' for Inactive)
REMARK    1  A    between atoms: C4_7  and  S1_8
REMARK    2  A    between atoms: S1_8  and  C5_9
REMARK    3  A    between atoms: C5_9  and  C6_10
REMARK       I    between atoms: C6_10  and  N3_12
REMARK    4  A    between atoms: N3_12  and  C7_14
REMARK    5  A    between atoms: C7_14  and  C8_15
REMARK    6  A    between atoms: C9_16  and  N4_17
REMARK    7  A    between atoms: C11_23  and  C12_24
REMARK    8  A    between atoms: C12_24  and  C13_25
REMARK    9  A    between atoms: C13_25  and  N7_26
REMARK   10  A    between atoms: N7_26  and  N8_28
REMARK   11  A    between atoms: C14_33  and  N10_34
ROOT
HETATM    1  C8  UNL     1      11.624  20.894   3.537  1.00  0.00     0.066 A
HETATM    2  C9  UNL     1      12.250  20.669   4.781  1.00  0.00     0.145 A
HETATM    3  N9  UNL     1      12.848  19.498   4.972  1.00  0.00    -0.175 N
ATOM      4  H9  UNL     1      13.306  19.320   5.866  1.00  0.00     0.186 HD
HETATM    5  C14 UNL     1      12.873  18.524   4.014  1.00  0.00     0.678 A
HETATM    6  N11 UNL     1      12.276  18.745   2.837  1.00  0.00    -0.178 N
ATOM      7  H11 UNL     1      12.294  18.019   2.121  1.00  0.00     0.185 HD
HETATM    8  C15 UNL     1      11.642  19.929   2.579  1.00  0.00     0.147 A
HETATM    9  N12 UNL     1      11.000  20.012   1.329  1.00  0.00    -0.081 NA
ENDROOT
BRANCH   1  10
HETATM   10  C7  UNL     1      10.940  22.154   3.405  1.00  0.00     0.109 C
BRANCH  10  11
HETATM   11  N3  UNL     1      10.699  22.768   2.175  1.00  0.00    -0.335 N
HETATM   12  C6  UNL     1       9.477  23.475   1.913  1.00  0.00     0.231 C
HETATM   13  O1  UNL     1       8.590  23.582   2.792  1.00  0.00    -0.272 OA
ATOM     14  H3  UNL     1      11.408  22.714   1.444  1.00  0.00     0.168 HD
BRANCH  12  15
HETATM   15  C5  UNL     1       9.245  24.081   0.584  1.00  0.00     0.184 C
BRANCH  15  16
HETATM   16  S1  UNL     1       7.557  24.027   0.069  1.00  0.00    -0.101 SA
BRANCH  16  17
HETATM   17  C4  UNL     1       7.138  22.644  -0.927  1.00  0.00     0.088 A
HETATM   18  N1  UNL     1       6.148  22.647  -1.848  1.00  0.00    -0.341 N
HETATM   19  C1  UNL     1       5.309  23.768  -2.166  1.00  0.00     0.158 C
HETATM   20  C2  UNL     1       6.060  21.436  -2.423  1.00  0.00     0.183 A
HETATM   21  N2  UNL     1       7.003  20.664  -1.863  1.00  0.00    -0.359 N
HETATM   22  C3  UNL     1       7.689  21.391  -0.929  1.00  0.00     0.126 A
ATOM     23  H2  UNL     1       7.180  19.687  -2.096  1.00  0.00     0.166 HD
ENDBRANCH  16  17
ENDBRANCH  15  16
ENDBRANCH  12  15
ENDBRANCH  10  11
ENDBRANCH   1  10
BRANCH   2  24
HETATM   24  N4  UNL     1      12.232  21.672   5.755  1.00  0.00    -0.268 N
HETATM   25  C10 UNL     1      11.335  21.916   6.719  1.00  0.00     0.209 A
HETATM   26  N5  UNL     1      11.684  22.981   7.463  1.00  0.00    -0.293 N
HETATM   27  N6  UNL     1      12.832  23.410   6.945  1.00  0.00    -0.277 N
ATOM     28  H5  UNL     1      11.176  23.376   8.256  1.00  0.00     0.187 HD
HETATM   29  C11 UNL     1      13.185  22.633   5.909  1.00  0.00     0.187 A
ATOM     30  H6  UNL     1      13.365  24.211   7.284  1.00  0.00     0.189 HD
BRANCH  29  31
HETATM   31  C12 UNL     1      14.354  22.751   5.091  1.00  0.00    -0.004 C
BRANCH  31  32
HETATM   32  C13 UNL     1      15.355  22.835   4.413  1.00  0.00     0.034 C
BRANCH  32  33
HETATM   33  N7  UNL     1      16.516  22.955   3.639  1.00  0.00    -0.265 N
ATOM     34  H7  UNL     1      17.377  23.245   4.103  1.00  0.00     0.197 HD
BRANCH  33  35
HETATM   35  N8  UNL     1      16.561  22.699   2.274  1.00  0.00    -0.338 N
ATOM     36  H82 UNL     1      16.273  21.771   1.965  1.00  0.00     0.177 HD
ATOM     37  H81 UNL     1      16.862  23.384   1.582  1.00  0.00     0.177 HD
ENDBRANCH  33  35
ENDBRANCH  32  33
ENDBRANCH  31  32
ENDBRANCH  29  31
ENDBRANCH   2  24
BRANCH   5  38
HETATM   38  N10 UNL     1      13.452  17.405   4.212  1.00  0.00    -0.234 N
ATOM     39 2H10 UNL     1      13.031  16.739   4.860  1.00  0.00     0.174 HD
ATOM     40 1H10 UNL     1      14.322  17.162   3.739  1.00  0.00     0.174 HD
ENDBRANCH   5  38
TORSDOF 11
ENDMDL