MODEL 3
REMARK VINA RESULT: -7.643812133      2.622      8.432
REMARK  9 active torsions:
REMARK  status: ('A' for Active; 'I' for Inactive)
REMARK    1  A    between atoms: C2_2  and  C10_24
REMARK    2  A    between atoms: N1_3  and  N2_5
REMARK       I    between atoms: N2_5  and  C3_7
REMARK    3  A    between atoms: C3_7  and  C4_9
REMARK    4  A    between atoms: C5_10  and  C6_11
REMARK    5  A    between atoms: C6_11  and  O2_13
REMARK    6  A    between atoms: C6_11  and  O3_15
REMARK    7  A    between atoms: C8_20  and  C9_21
REMARK    8  A    between atoms: C11_25  and  N5_26
REMARK    9  A    between atoms: C12_31  and  N7_32
ROOT
HETATM    1  C1  UNL     1      11.409  22.240   0.714  1.00  0.00     0.071 C
HETATM    2  C2  UNL     1      10.118  22.507   1.463  1.00  0.00     0.040 C
HETATM    3  N1  UNL     1      10.207  22.159   2.694  1.00  0.00    -0.301 N
ATOM      4  H1  UNL     1       9.388  22.298   3.284  1.00  0.00     0.186 HD
ENDROOT
BRANCH   3   5
HETATM    5  N2  UNL     1      11.345  21.602   3.287  1.00  0.00    -0.266 N
HETATM    6  C3  UNL     1      11.357  21.078   4.587  1.00  0.00     0.275 C
HETATM    7  O1  UNL     1      10.284  21.080   5.300  1.00  0.00    -0.266 OA
ATOM      8  H2  UNL     1      12.210  21.575   2.746  1.00  0.00     0.190 HD
BRANCH   6   9
HETATM    9  C4  UNL     1      12.524  20.505   5.224  1.00  0.00     0.104 A
HETATM   10  C5  UNL     1      13.133  19.320   4.846  1.00  0.00     0.112 A
HETATM   11  N3  UNL     1      14.162  19.152   5.733  1.00  0.00    -0.258 N
HETATM   12  O4  UNL     1      14.177  20.121   6.556  1.00  0.00    -0.231 OA
ATOM     13  H3  UNL     1      14.815  18.368   5.734  1.00  0.00     0.194 HD
HETATM   14  C8  UNL     1      13.216  20.979   6.310  1.00  0.00     0.181 A
BRANCH  10  15
HETATM   15  C6  UNL     1      12.887  18.370   3.771  1.00  0.00     0.203 C
HETATM   16  C7  UNL     1      13.781  18.708   2.550  1.00  0.00     0.086 C
BRANCH  15  17
HETATM   17  O2  UNL     1      11.623  18.264   3.277  1.00  0.00    -0.361 OA
ATOM     18  H2  UNL     1      11.093  17.522   3.546  1.00  0.00     0.213 HD
ENDBRANCH  15  17
BRANCH  15  19
HETATM   19  O3  UNL     1      13.265  17.077   4.205  1.00  0.00    -0.361 OA
ATOM     20  H3  UNL     1      13.646  17.141   5.074  1.00  0.00     0.213 HD
ENDBRANCH  15  19
ENDBRANCH  10  15
BRANCH  14  21
HETATM   21  C9  UNL     1      12.984  22.173   7.078  1.00  0.00     0.291 C
HETATM   22  N4  UNL     1      12.109  22.241   8.178  1.00  0.00    -0.055 NA
HETATM   23  O5  UNL     1      13.583  23.263   6.788  1.00  0.00    -0.269 OA
ENDBRANCH  14  21
ENDBRANCH   6   9
ENDBRANCH   3   5
BRANCH   2  24
HETATM   24  C10 UNL     1       9.007  23.066   0.759  1.00  0.00     0.082 A
HETATM   25  C11 UNL     1       8.624  24.384   0.850  1.00  0.00     0.204 A
HETATM   26  N6  UNL     1       7.648  24.867   0.013  1.00  0.00    -0.170 N
HETATM   27  C12 UNL     1       7.050  24.113  -0.885  1.00  0.00     0.679 A
ATOM     28  H6  UNL     1       7.376  25.847   0.089  1.00  0.00     0.186 HD
HETATM   29  N8  UNL     1       7.377  22.833  -1.012  1.00  0.00    -0.176 N
HETATM   30  C13 UNL     1       8.346  22.298  -0.203  1.00  0.00     0.131 A
ATOM     31  H8  UNL     1       6.910  22.250  -1.707  1.00  0.00     0.186 HD
HETATM   32  N9  UNL     1       8.627  21.075  -0.357  1.00  0.00    -0.384 N
ATOM     33  H92 UNL     1       9.348  20.678   0.246  1.00  0.00     0.157 HD
ATOM     34  H91 UNL     1       8.144  20.515  -1.059  1.00  0.00     0.157 HD
BRANCH  25  35
HETATM   35  N5  UNL     1       9.027  25.277   1.835  1.00  0.00    -0.096 N
HETATM   36  O6  UNL     1       8.143  25.569   2.739  1.00  0.00    -0.530 OA
HETATM   37  O7  UNL     1      10.211  25.907   1.958  1.00  0.00    -0.530 OA
ENDBRANCH  25  35
BRANCH  27  38
HETATM   38  N7  UNL     1       6.124  24.645  -1.654  1.00  0.00    -0.234 N
ATOM     39  H72 UNL     1       6.323  25.484  -2.198  1.00  0.00     0.174 HD
ATOM     40  H71 UNL     1       5.204  24.206  -1.700  1.00  0.00     0.174 HD
ENDBRANCH  27  38
ENDBRANCH   2  24
TORSDOF 9
ENDMDL