MODEL 4
REMARK VINA RESULT: -7.437889213      1.784      2.557
REMARK  11 active torsions:
REMARK  status: ('A' for Active; 'I' for Inactive)
REMARK    1  A    between atoms: C2_5  and  N3_6
REMARK    2  A    between atoms: C2_5  and  C6_17
REMARK    3  A    between atoms: N3_6  and  N4_8
REMARK    4  A    between atoms: N4_8  and  C3_10
REMARK    5  A    between atoms: C7_19  and  C8_20
REMARK    6  A    between atoms: C10_24  and  C11_25
REMARK    7  A    between atoms: N9_27  and  O2_29
REMARK    8  A    between atoms: C14_35  and  C15_36
REMARK    9  A    between atoms: C15_36  and  O3_37
REMARK   10  A    between atoms: C15_36  and  C16_39
REMARK   11  A    between atoms: C16_39  and  O4_40
ROOT
HETATM    1  N1  UNL     1      12.955  18.284   3.200  1.00  0.00    -0.172 NA
HETATM    2  C1  UNL     1      12.782  18.850   4.220  1.00  0.00     0.183 C
HETATM    3  N2  UNL     1      12.593  19.497   5.436  1.00  0.00    -0.276 N
ATOM      4  H2  UNL     1      12.737  18.992   6.311  1.00  0.00     0.179 HD
HETATM    5  C2  UNL     1      12.238  20.722   5.456  1.00  0.00     0.164 C
ENDROOT
BRANCH   5   6
HETATM    6  N3  UNL     1      12.058  21.338   6.727  1.00  0.00    -0.280 N
ATOM      7  H3  UNL     1      11.170  21.797   6.927  1.00  0.00     0.188 HD
BRANCH   6   8
HETATM    8  N4  UNL     1      13.036  21.340   7.697  1.00  0.00    -0.270 N
ATOM      9  H4  UNL     1      13.876  21.902   7.563  1.00  0.00     0.190 HD
BRANCH   8  10
HETATM   10  C3  UNL     1      12.888  20.563   8.886  1.00  0.00     0.190 C
HETATM   11  N5  UNL     1      13.001  21.032  10.078  1.00  0.00    -0.360 N
HETATM   12  C4  UNL     1      12.797  20.001  11.079  1.00  0.00     0.142 C
ATOM     13  H5  UNL     1      13.207  22.007  10.293  1.00  0.00     0.162 HD
HETATM   14  C5  UNL     1      12.140  18.856  10.296  1.00  0.00     0.142 C
HETATM   15  N6  UNL     1      12.602  19.178   8.961  1.00  0.00    -0.360 N
ATOM     16  H6  UNL     1      12.706  18.512   8.196  1.00  0.00     0.162 HD
ENDBRANCH   8  10
ENDBRANCH   6   8
ENDBRANCH   5   6
BRANCH   5  17
HETATM   17  C6  UNL     1      12.020  21.446   4.233  1.00  0.00     0.131 A
HETATM   18  O1  UNL     1      10.824  21.623   3.684  1.00  0.00    -0.302 OA
HETATM   19  C7  UNL     1      10.919  22.313   2.583  1.00  0.00     0.120 A
HETATM   20  C13 UNL     1      12.239  22.613   2.380  1.00  0.00     0.054 A
HETATM   21  C14 UNL     1      12.948  22.057   3.439  1.00  0.00     0.013 A
BRANCH  19  22
HETATM   22  C8  UNL     1       9.820  22.705   1.705  1.00  0.00     0.139 A
HETATM   23  N7  UNL     1       8.835  23.507   2.096  1.00  0.00    -0.349 N
HETATM   24  C9  UNL     1       7.841  23.837   1.239  1.00  0.00     0.106 A
ATOM     25  H7  UNL     1       8.828  23.876   3.047  1.00  0.00     0.167 HD
HETATM   26  C10 UNL     1       7.763  23.393  -0.061  1.00  0.00     0.037 A
HETATM   27  C12 UNL     1       8.831  22.545  -0.428  1.00  0.00     0.106 A
HETATM   28  N10 UNL     1       9.790  22.244   0.446  1.00  0.00    -0.349 N
ATOM     29  H10 UNL     1      10.543  21.629   0.141  1.00  0.00     0.167 HD
BRANCH  26  30
HETATM   30  C11 UNL     1       6.732  23.710  -1.017  1.00  0.00     0.148 C
HETATM   31  N8  UNL     1       6.450  25.126  -1.217  1.00  0.00    -0.080 NA
HETATM   32  N9  UNL     1       6.049  22.933  -1.696  1.00  0.00    -0.255 N
ATOM     33  H9  UNL     1       5.371  23.380  -2.313  1.00  0.00     0.195 HD
BRANCH  32  34
HETATM   34  O2  UNL     1       6.065  21.605  -1.743  1.00  0.00    -0.288 OA
ATOM     35  H2  UNL     1       5.761  21.017  -2.425  1.00  0.00     0.244 HD
ENDBRANCH  32  34
ENDBRANCH  26  30
ENDBRANCH  19  22
BRANCH  21  36
HETATM   36  C15 UNL     1      14.395  22.126   3.643  1.00  0.00     0.177 C
BRANCH  36  37
HETATM   37  O3  UNL     1      15.097  22.654   2.563  1.00  0.00    -0.389 OA
ATOM     38  H3  UNL     1      16.040  22.652   2.676  1.00  0.00     0.210 HD
ENDBRANCH  36  37
BRANCH  36  39
HETATM   39  C16 UNL     1      14.745  22.968   4.865  1.00  0.00     0.200 C
BRANCH  39  40
HETATM   40  O4  UNL     1      15.189  22.140   5.886  1.00  0.00    -0.398 OA
ATOM     41  H4  UNL     1      14.516  21.501   6.089  1.00  0.00     0.209 HD
ENDBRANCH  39  40
ENDBRANCH  36  39
ENDBRANCH  21  36
ENDBRANCH   5  17
TORSDOF 11
ENDMDL