MODEL 4
REMARK VINA RESULT: -8.221806597      1.816      9.680
REMARK  11 active torsions:
REMARK  status: ('A' for Active; 'I' for Inactive)
REMARK    1  A    between atoms: N1_1  and  C1_4
REMARK    2  A    between atoms: C3_8  and  C4_9
REMARK    3  A    between atoms: C4_9  and  N3_10
REMARK    4  A    between atoms: N3_10  and  N4_12
REMARK    5  A    between atoms: C6_19  and  N7_20
REMARK    6  A    between atoms: N7_20  and  C7_22
REMARK    7  A    between atoms: C7_22  and  C8_23
REMARK    8  A    between atoms: C8_23  and  N8_24
REMARK    9  A    between atoms: C8_23  and  C9_28
REMARK   10  A    between atoms: C9_28  and  S1_29
REMARK   11  A    between atoms: S1_29  and  C10_30
ROOT
HETATM    1  N7  UNL     1      11.195  22.763   3.613  1.00  0.00    -0.222 N
ATOM      2  H7  UNL     1      11.382  23.619   4.136  1.00  0.00     0.177 HD
ENDROOT
BRANCH   1   3
HETATM    3  C6  UNL     1      11.721  21.707   4.072  1.00  0.00     0.715 A
HETATM    4  N6  UNL     1      11.982  21.687   5.410  1.00  0.00    -0.068 N
HETATM    5  C2  UNL     1      12.534  20.634   6.031  1.00  0.00     0.173 A
HETATM    6  N5  UNL     1      11.784  22.603   6.360  1.00  0.00    -0.288 N
HETATM    7  N2  UNL     1      12.856  19.523   5.303  1.00  0.00    -0.173 N
HETATM    8  C3  UNL     1      12.686  20.882   7.379  1.00  0.00     0.045 A
HETATM    9  C1  UNL     1      12.599  19.541   3.984  1.00  0.00     0.692 A
ATOM     10  H2  UNL     1      13.277  18.707   5.746  1.00  0.00     0.186 HD
HETATM   11  N13 UNL     1      12.041  20.613   3.376  1.00  0.00    -0.021 N
ATOM     12  H13 UNL     1      11.862  20.585   2.373  1.00  0.00     0.203 HD
HETATM   13  C5  UNL     1      12.195  22.156   7.559  1.00  0.00     0.125 A
ATOM     14  H5  UNL     1      11.374  23.523   6.198  1.00  0.00     0.187 HD
BRANCH   9  15
HETATM   15  N1  UNL     1      12.886  18.515   3.262  1.00  0.00    -0.234 N
ATOM     16  H12 UNL     1      13.853  18.190   3.249  1.00  0.00     0.174 HD
ATOM     17  H11 UNL     1      12.154  18.052   2.723  1.00  0.00     0.174 HD
ENDBRANCH   9  15
BRANCH   8  18
HETATM   18  C4  UNL     1      13.193  20.076   8.293  1.00  0.00     0.123 C
BRANCH  18  19
HETATM   19  N3  UNL     1      12.372  19.338   9.186  1.00  0.00    -0.317 N
ATOM     20  H3  UNL     1      12.759  19.055  10.086  1.00  0.00     0.185 HD
BRANCH  19  21
HETATM   21  N4  UNL     1      11.053  18.982   8.882  1.00  0.00    -0.345 N
ATOM     22  H42 UNL     1      10.718  18.077   9.215  1.00  0.00     0.176 HD
ATOM     23  H41 UNL     1      10.427  19.586   8.349  1.00  0.00     0.176 HD
ENDBRANCH  19  21
ENDBRANCH  18  19
ENDBRANCH   8  18
ENDBRANCH   1   3
BRANCH   1  24
HETATM   24  C7  UNL     1      10.378  22.906   2.460  1.00  0.00     0.171 C
BRANCH  24  25
HETATM   25  C8  UNL     1      10.636  24.186   1.702  1.00  0.00     0.211 C
BRANCH  25  26
HETATM   26  N8  UNL     1      10.649  25.260   2.704  1.00  0.00    -0.073 N
ATOM     27  H83 UNL     1      10.032  25.082   3.497  1.00  0.00     0.274 HD
ATOM     28  H82 UNL     1      11.520  25.311   3.233  1.00  0.00     0.274 HD
ATOM     29  H81 UNL     1      10.427  26.119   2.202  1.00  0.00     0.274 HD
ENDBRANCH  25  26
BRANCH  25  30
HETATM   30  C9  UNL     1       9.524  24.516   0.742  1.00  0.00     0.115 C
BRANCH  30  31
HETATM   31  S1  UNL     1       8.098  23.436   0.945  1.00  0.00    -0.108 SA
BRANCH  31  32
HETATM   32  C10 UNL     1       7.069  23.340  -0.478  1.00  0.00     0.101 A
HETATM   33  N9  UNL     1       6.459  24.430  -0.946  1.00  0.00    -0.345 N
HETATM   34  C11 UNL     1       5.667  24.422  -2.021  1.00  0.00     0.183 A
ATOM     35  H9  UNL     1       6.605  25.314  -0.459  1.00  0.00     0.167 HD
HETATM   36  N10 UNL     1       5.477  23.258  -2.657  1.00  0.00    -0.337 N
HETATM   37  C12 UNL     1       6.047  22.100  -2.265  1.00  0.00     0.137 A
ATOM     38  H10 UNL     1       4.872  23.247  -3.478  1.00  0.00     0.168 HD
HETATM   39  N11 UNL     1       6.040  20.828  -2.690  1.00  0.00    -0.337 N
HETATM   40  C14 UNL     1       6.868  22.145  -1.140  1.00  0.00     0.111 A
HETATM   41  C13 UNL     1       6.806  20.066  -1.903  1.00  0.00     0.182 A
ATOM     42  H11 UNL     1       5.522  20.489  -3.501  1.00  0.00     0.168 HD
HETATM   43  N12 UNL     1       7.301  20.887  -0.965  1.00  0.00    -0.347 N
ATOM     44  H12 UNL     1       7.926  20.593  -0.215  1.00  0.00     0.167 HD
ENDBRANCH  31  32
ENDBRANCH  30  31
ENDBRANCH  25  30
ENDBRANCH  24  25
ENDBRANCH   1  24
TORSDOF 11
ENDMDL