MODEL 5
REMARK VINA RESULT: -7.771877342      1.998      7.657
REMARK  8 active torsions:
REMARK  status: ('A' for Active; 'I' for Inactive)
REMARK    1  A    between atoms: O1_2  and  C2_3
REMARK    2  A    between atoms: C2_3  and  C3_4
REMARK    3  A    between atoms: C3_4  and  N1_5
REMARK    4  A    between atoms: C4_6  and  C5_7
REMARK    5  A    between atoms: C5_7  and  N3_11
REMARK       I    between atoms: N3_11  and  C6_13
REMARK       I    between atoms: C6_13  and  N10_27
REMARK    6  A    between atoms: N4_14  and  N5_16
REMARK    7  A    between atoms: N8_23  and  N9_24
REMARK    8  A    between atoms: C12_34  and  N13_35
ROOT
HETATM    1  N5  UNL     1      11.607  22.612   2.891  1.00  0.00    -0.174 N
HETATM    2  C7  UNL     1      11.394  23.262   1.628  1.00  0.00     0.177 C
HETATM    3  C8  UNL     1      10.080  23.539   1.584  1.00  0.00     0.146 C
HETATM    4  C9  UNL     1       9.379  24.195   0.507  1.00  0.00     0.120 C
HETATM    5  N6  UNL     1       8.802  24.733  -0.353  1.00  0.00    -0.190 NA
HETATM    6  N7  UNL     1       9.494  23.070   2.792  1.00  0.00    -0.271 N
ATOM      7  H7  UNL     1       8.619  23.379   3.215  1.00  0.00     0.185 HD
HETATM    8  N8  UNL     1      10.372  22.097   3.276  1.00  0.00    -0.024 NA
ENDROOT
BRANCH   1   9
HETATM    9  N4  UNL     1      12.848  22.567   3.515  1.00  0.00    -0.112 N
HETATM   10  C6  UNL     1      13.476  21.467   3.766  1.00  0.00     0.709 C
HETATM   11  N3  UNL     1      14.737  21.543   4.406  1.00  0.00    -0.171 N
HETATM   12  N10 UNL     1      12.861  20.250   3.382  1.00  0.00    -0.124 N
ATOM     13  H3  UNL     1      15.594  21.307   3.906  1.00  0.00     0.186 HD
HETATM   14  C10 UNL     1      13.613  19.187   2.833  1.00  0.00     0.196 C
ATOM     15  H10 UNL     1      11.854  20.138   3.505  1.00  0.00     0.197 HD
HETATM   16  N11 UNL     1      14.221  18.312   2.376  1.00  0.00    -0.171 NA
ATOM     17  H4  UNL     1      13.285  23.447   3.788  1.00  0.00     0.207 HD
BRANCH  11  18
HETATM   18  C5  UNL     1      14.776  21.965   5.790  1.00  0.00     0.159 C
HETATM   19  N2  UNL     1      15.518  22.952   6.125  1.00  0.00    -0.382 N
ATOM     20  H22 UNL     1      15.546  23.249   7.100  1.00  0.00     0.157 HD
ATOM     21  H21 UNL     1      16.097  23.471   5.466  1.00  0.00     0.157 HD
BRANCH  18  22
HETATM   22  C4  UNL     1      13.948  21.222   6.733  1.00  0.00     0.155 A
HETATM   23  N1  UNL     1      14.312  20.390   7.688  1.00  0.00    -0.312 N
HETATM   24  C14 UNL     1      13.175  19.965   8.318  1.00  0.00     0.141 A
HETATM   25  C11 UNL     1      12.102  20.557   7.723  1.00  0.00     0.122 A
HETATM   26  N15 UNL     1      12.941  19.128   9.345  1.00  0.00    -0.336 N
HETATM   27  N12 UNL     1      12.571  21.325   6.755  1.00  0.00    -0.333 N
HETATM   28  C12 UNL     1      10.818  20.273   8.201  1.00  0.00     0.131 A
ATOM     29  H12 UNL     1      12.009  21.899   6.127  1.00  0.00     0.168 HD
HETATM   30  N14 UNL     1      10.620  19.433   9.227  1.00  0.00    -0.337 N
HETATM   31  C13 UNL     1      11.699  18.867   9.790  1.00  0.00     0.183 A
ATOM     32  H14 UNL     1       9.681  19.231   9.568  1.00  0.00     0.168 HD
ATOM     33  H15 UNL     1      13.733  18.675   9.801  1.00  0.00     0.168 HD
BRANCH  23  34
HETATM   34  C3  UNL     1      15.596  19.896   8.072  1.00  0.00     0.158 C
BRANCH  34  35
HETATM   35  C2  UNL     1      16.028  18.626   7.415  1.00  0.00     0.187 C
BRANCH  35  36
HETATM   36  O1  UNL     1      15.510  18.367   6.175  1.00  0.00    -0.394 OA
HETATM   37  C1  UNL     1      16.531  18.494   5.242  1.00  0.00     0.201 C
ENDBRANCH  35  36
ENDBRANCH  34  35
ENDBRANCH  23  34
BRANCH  28  38
HETATM   38  N13 UNL     1       9.781  20.815   7.663  1.00  0.00    -0.383 N
ATOM     39 2H13 UNL     1       9.668  20.725   6.654  1.00  0.00     0.157 HD
ATOM     40 1H13 UNL     1       9.101  21.317   8.234  1.00  0.00     0.157 HD
ENDBRANCH  28  38
ENDBRANCH  18  22
ENDBRANCH  11  18
ENDBRANCH   1   9
BRANCH   8  41
HETATM   41  N9  UNL     1      10.256  21.975   4.663  1.00  0.00    -0.326 NA
ATOM     42  H92 UNL     1      10.002  22.869   5.084  1.00  0.00     0.174 HD
ATOM     43  H91 UNL     1      11.152  21.781   5.112  1.00  0.00     0.174 HD
ENDBRANCH   8  41
TORSDOF 8
ENDMDL