MODEL 5
REMARK VINA RESULT: -6.976220385      1.786      3.883
REMARK  2 active torsions:
REMARK  status: ('A' for Active; 'I' for Inactive)
REMARK    1  A    between atoms: C6_6  and  O1_7
REMARK    2  A    between atoms: N1_11  and  O2_13
ROOT
HETATM    1  C1  UNL     1       6.662 -10.090  10.007  1.00  0.00     0.015 C
HETATM    2  C2  UNL     1       7.317 -10.435  11.333  1.00  0.00    -0.043 C
HETATM    3  C3  UNL     1       6.172 -10.693  12.320  1.00  0.00     0.015 C
HETATM    4  C4  UNL     1       8.064 -11.713  11.155  1.00  0.00     0.011 C
HETATM    5  C5  UNL     1       8.983 -12.036  12.299  1.00  0.00     0.033 C
HETATM    6  C6  UNL     1       9.951 -10.906  12.491  1.00  0.00     0.128 C
HETATM    7  C7  UNL     1       9.148  -9.680  12.860  1.00  0.00     0.067 C
HETATM    8  C8  UNL     1       9.983  -8.547  13.243  1.00  0.00     0.017 C
HETATM    9  N1  UNL     1      10.404  -8.382  14.449  1.00  0.00    -0.277 N
ATOM     10  H1  UNL     1      10.987  -7.584  14.700  1.00  0.00     0.193 HD
HETATM   11  C9  UNL     1      10.416  -7.487  12.270  1.00  0.00     0.055 C
HETATM   12  C10 UNL     1       9.379  -7.251  11.212  1.00  0.00     0.006 C
HETATM   13  C11 UNL     1       8.792  -8.522  10.669  1.00  0.00     0.006 C
HETATM   14  C12 UNL     1       8.160  -9.287  11.799  1.00  0.00     0.005 C
ENDROOT
BRANCH   9  15
HETATM   15  O2  UNL     1      10.042  -9.317  15.385  1.00  0.00    -0.290 OA
ATOM     16  H2  UNL     1      10.461  -9.276  16.237  1.00  0.00     0.244 HD
ENDBRANCH   9  15
BRANCH   6  17
HETATM   17  O1  UNL     1      10.775 -10.717  11.407  1.00  0.00    -0.395 OA
ATOM     18  H1  UNL     1      10.552  -9.943  10.904  1.00  0.00     0.210 HD
ENDBRANCH   6  17
TORSDOF 2
ENDMDL