MODEL 5
REMARK VINA RESULT: -6.587965195      2.094      3.647
REMARK  2 active torsions:
REMARK  status: ('A' for Active; 'I' for Inactive)
REMARK    1  A    between atoms: N1_1  and  N2_4
REMARK    2  A    between atoms: N2_4  and  C1_5
ROOT
HETATM    1  C1  UNL     1       6.461  -8.819   9.812  1.00  0.00     0.233 C
HETATM    2  C2  UNL     1       6.450  -7.583   8.955  1.00  0.00     0.051 C
HETATM    3  C3  UNL     1       7.342  -6.497   9.503  1.00  0.00     0.004 C
HETATM    4  C4  UNL     1       8.786  -6.690   9.067  1.00  0.00     0.000 C
HETATM    5  C5  UNL     1       9.666  -7.117  10.218  1.00  0.00     0.000 C
HETATM    6  C6  UNL     1      10.404  -8.409   9.924  1.00  0.00     0.000 C
HETATM    7  C7  UNL     1      10.817  -9.142  11.159  1.00  0.00     0.000 C
HETATM    8  C8  UNL     1       9.911 -10.259  11.551  1.00  0.00     0.000 C
HETATM    9  C9  UNL     1       9.059  -9.926  12.739  1.00  0.00     0.000 C
HETATM   10  C10 UNL     1       7.917 -10.877  12.921  1.00  0.00     0.002 C
HETATM   11  C11 UNL     1       6.892 -10.809  11.834  1.00  0.00     0.026 C
HETATM   12  C12 UNL     1       6.021  -9.589  11.942  1.00  0.00     0.170 C
HETATM   13  O1  UNL     1       6.413  -8.542  11.153  1.00  0.00    -0.368 OA
ENDROOT
BRANCH   1  14
HETATM   14  N2  UNL     1       5.401  -9.708   9.379  1.00  0.00    -0.116 NA
BRANCH  14  15
HETATM   15  N1  UNL     1       4.504  -9.122   8.510  1.00  0.00    -0.346 N
ATOM     16  H12 UNL     1       3.959  -8.298   8.765  1.00  0.00     0.172 HD
ATOM     17  H11 UNL     1       4.444  -9.588   7.605  1.00  0.00     0.172 HD
ENDBRANCH  14  15
ENDBRANCH   1  14
TORSDOF 2
ENDMDL