MODEL 3
REMARK VINA RESULT: -7.167202449      2.178      3.822
REMARK  1 active torsions:
REMARK  status: ('A' for Active; 'I' for Inactive)
REMARK    1  A    between atoms: N1_4  and  O1_5
ROOT
HETATM    1  C1  UNL     1      10.059  -8.293  14.014  1.00  0.00     0.016 C
HETATM    2  C2  UNL     1       9.034  -8.598  12.948  1.00  0.00     0.027 C
HETATM    3  C3  UNL     1       9.151  -9.986  12.427  1.00  0.00     0.095 C
HETATM    4  N1  UNL     1       8.358 -10.267  11.319  1.00  0.00    -0.271 N
HETATM    5  C4  UNL     1       8.000  -9.271  10.406  1.00  0.00     0.114 C
HETATM    6  C5  UNL     1       6.585  -9.638   9.921  1.00  0.00     0.035 C
HETATM    7  C6  UNL     1       8.080  -7.865  10.842  1.00  0.00     0.019 C
HETATM    8  C7  UNL     1       8.159  -6.836   9.779  1.00  0.00    -0.007 C
HETATM    9  C8  UNL     1       7.057  -6.857   8.774  1.00  0.00     0.011 C
HETATM   10  C9  UNL     1       9.472  -6.802   9.039  1.00  0.00     0.056 C
HETATM   11  C10 UNL     1      10.634  -7.090   9.885  1.00  0.00    -0.020 C
HETATM   12  N2  UNL     1      11.787  -6.587   9.659  1.00  0.00    -0.406 N
ATOM     13  H21 UNL     1      12.596  -6.786  10.248  1.00  0.00     0.155 HD
ATOM     14  H22 UNL     1      11.851  -5.969   8.850  1.00  0.00     0.155 HD
HETATM   15  C11 UNL     1      10.541  -7.999  11.078  1.00  0.00     0.057 C
HETATM   16  C12 UNL     1       9.256  -7.651  11.785  1.00  0.00     0.006 C
ENDROOT
BRANCH   4  17
HETATM   17  O1  UNL     1       8.524 -11.456  10.777  1.00  0.00    -0.288 OA
ATOM     18  H1  UNL     1       7.866 -11.721  10.145  1.00  0.00     0.244 HD
ENDBRANCH   4  17
TORSDOF 1
ENDMDL