MODEL 4
REMARK VINA RESULT: -6.987480592      1.881      3.128
REMARK  1 active torsions:
REMARK  status: ('A' for Active; 'I' for Inactive)
REMARK    1  A    between atoms: C13_13  and  O1_14
ROOT
HETATM    1  C1  UNL     1       6.973 -11.219  11.623  1.00  0.00     0.046 C
HETATM    2  C2  UNL     1       7.545  -9.940  11.008  1.00  0.00     0.064 C
HETATM    3  C3  UNL     1       6.672  -9.526   9.845  1.00  0.00     0.038 C
HETATM    4  C4  UNL     1       6.762  -8.089   9.496  1.00  0.00     0.008 C
HETATM    5  C5  UNL     1       7.276  -7.174  10.537  1.00  0.00    -0.009 C
HETATM    6  C6  UNL     1       6.113  -6.950  11.530  1.00  0.00     0.005 C
HETATM    7  C7  UNL     1       6.108  -8.292  12.229  1.00  0.00     0.008 C
HETATM    8  C8  UNL     1       7.492  -8.890  12.083  1.00  0.00     0.025 C
HETATM    9  C9  UNL     1       8.257  -7.693  11.509  1.00  0.00     0.009 C
HETATM   10  C10 UNL     1       9.616  -8.002  11.073  1.00  0.00     0.007 C
HETATM   11  C11 UNL     1      10.588  -7.601  12.202  1.00  0.00     0.020 C
HETATM   12  C12 UNL     1      10.097  -7.227   9.857  1.00  0.00     0.020 C
HETATM   13  C13 UNL     1       9.829  -9.487  10.894  1.00  0.00     0.266 C
HETATM   14  O2  UNL     1       8.774 -10.217  10.528  1.00  0.00    -0.350 OA
ENDROOT
BRANCH  13  15
HETATM   15  O1  UNL     1      10.415 -10.073  12.037  1.00  0.00    -0.370 OA
ATOM     16  H1  UNL     1      10.758 -10.939  11.852  1.00  0.00     0.212 HD
ENDBRANCH  13  15
TORSDOF 1
ENDMDL