MODEL 5
REMARK VINA RESULT: -6.922250960      1.963      3.192
REMARK  2 active torsions:
REMARK  status: ('A' for Active; 'I' for Inactive)
REMARK    1  A    between atoms: N1_6  and  O1_8
REMARK    2  A    between atoms: C11_15  and  O2_17
ROOT
HETATM    1  C1  UNL     1       6.094 -10.976  12.314  1.00  0.00     0.016 C
HETATM    2  C2  UNL     1       7.269 -10.590  11.435  1.00  0.00    -0.032 C
HETATM    3  C3  UNL     1       8.223 -11.794  11.501  1.00  0.00     0.016 C
HETATM    4  C4  UNL     1       7.902  -9.379  12.025  1.00  0.00     0.046 C
HETATM    5  C5  UNL     1       9.285  -9.109  11.556  1.00  0.00     0.015 C
HETATM    6  N1  UNL     1      10.162  -9.867  11.056  1.00  0.00    -0.277 N
ATOM      7  H1  UNL     1       9.954 -10.856  10.920  1.00  0.00     0.193 HD
HETATM    8  C6  UNL     1       9.467  -7.653  11.806  1.00  0.00     0.055 C
HETATM    9  C7  UNL     1       8.164  -7.084  11.296  1.00  0.00     0.011 C
HETATM   10  C8  UNL     1       7.155  -8.235  11.323  1.00  0.00     0.004 C
HETATM   11  C9  UNL     1       6.986  -8.757   9.942  1.00  0.00     0.032 A
HETATM   12  C10 UNL     1       6.899 -10.279  10.034  1.00  0.00     0.036 A
HETATM   13  C11 UNL     1       5.755  -9.555   9.552  1.00  0.00     0.063 A
HETATM   14  C12 UNL     1       4.524  -9.194  10.281  1.00  0.00     0.046 C
ENDROOT
BRANCH   6  15
HETATM   15  O1  UNL     1      11.383  -9.382  10.697  1.00  0.00    -0.290 OA
ATOM     16  H1  UNL     1      12.168  -9.642  11.164  1.00  0.00     0.244 HD
ENDBRANCH   6  15
BRANCH  13  17
HETATM   17  O2  UNL     1       5.520  -9.614   8.154  1.00  0.00    -0.389 OA
ATOM     18  H2  UNL     1       5.237 -10.465   7.843  1.00  0.00     0.210 HD
ENDBRANCH  13  17
TORSDOF 2
ENDMDL