MODEL 3
REMARK VINA RESULT: -7.415349519      2.964      5.342
REMARK  1 active torsions:
REMARK  status: ('A' for Active; 'I' for Inactive)
REMARK    1  A    between atoms: O1_1  and  N1_3
ROOT
HETATM    1  N1  UNL     1      11.801  -5.458   7.435  1.00  0.00    -0.277 N
ATOM      2  H1  UNL     1      12.747  -5.120   7.257  1.00  0.00     0.193 HD
HETATM    3  C1  UNL     1      11.647  -6.405   8.282  1.00  0.00     0.012 C
HETATM    4  C2  UNL     1      12.790  -7.007   8.994  1.00  0.00     0.055 C
HETATM    5  C3  UNL     1      12.354  -7.920  10.100  1.00  0.00     0.013 C
HETATM    6  C4  UNL     1      11.195  -7.382  10.858  1.00  0.00     0.023 C
HETATM    7  C5  UNL     1      10.072  -6.855  10.040  1.00  0.00     0.196 C
HETATM    8  C6  UNL     1      10.291  -6.919   8.561  1.00  0.00     0.087 C
HETATM    9  N2  UNL     1       8.853  -7.507  10.465  1.00  0.00    -0.066 N
ATOM     10  H21 UNL     1       8.559  -8.286   9.876  1.00  0.00     0.278 HD
ATOM     11  H22 UNL     1       8.006  -6.953  10.334  1.00  0.00     0.278 HD
HETATM   12  C7  UNL     1       9.133  -7.857  11.823  1.00  0.00     0.191 C
HETATM   13  C8  UNL     1       8.173  -8.834  12.424  1.00  0.00     0.033 C
HETATM   14  C9  UNL     1       8.128 -10.123  11.671  1.00  0.00     0.002 C
HETATM   15  C10 UNL     1       9.531 -10.720  11.652  1.00  0.00     0.001 C
HETATM   16  C11 UNL     1      10.535  -9.774  11.059  1.00  0.00     0.007 C
HETATM   17  C12 UNL     1      10.537  -8.423  11.727  1.00  0.00     0.022 C
ENDROOT
BRANCH   1  18
HETATM   18  O1  UNL     1      10.762  -4.873   6.753  1.00  0.00    -0.290 OA
ATOM     19  H1  UNL     1      10.208  -5.338   6.138  1.00  0.00     0.244 HD
ENDBRANCH   1  18
TORSDOF 1
ENDMDL