MODEL 4
REMARK VINA RESULT: -6.639873354      1.445      3.730
REMARK  2 active torsions:
REMARK  status: ('A' for Active; 'I' for Inactive)
REMARK    1  A    between atoms: O1_1  and  C1_3
REMARK    2  A    between atoms: C10_13  and  O3_14
ROOT
HETATM    1  C1  UNL     1       9.144 -10.211  13.784  1.00  0.00     0.122 C
HETATM    2  C2  UNL     1      10.115 -10.070  14.879  1.00  0.00     0.032 C
HETATM    3  C3  UNL     1      10.239  -8.800  15.589  1.00  0.00     0.002 C
HETATM    4  C4  UNL     1      10.068  -7.531  14.878  1.00  0.00     0.000 C
HETATM    5  C5  UNL     1      11.351  -6.989  14.218  1.00  0.00     0.000 C
HETATM    6  C6  UNL     1      11.401  -7.622  12.866  1.00  0.00     0.000 C
HETATM    7  C7  UNL     1      12.226  -6.991  11.824  1.00  0.00     0.002 C
HETATM    8  C8  UNL     1      12.296  -7.943  10.646  1.00  0.00     0.026 C
HETATM    9  C9  UNL     1      11.057  -8.750  10.420  1.00  0.00     0.171 C
HETATM   10  O2  UNL     1      11.029  -9.957  11.070  1.00  0.00    -0.361 OA
HETATM   11  C10 UNL     1       9.802 -10.483  11.354  1.00  0.00     0.259 C
HETATM   12  C11 UNL     1       9.736 -11.146  12.719  1.00  0.00     0.092 C
ENDROOT
BRANCH   1  13
HETATM   13  O1  UNL     1       7.970 -10.863  14.243  1.00  0.00    -0.395 OA
ATOM     14  H1  UNL     1       7.602 -11.406  13.556  1.00  0.00     0.210 HD
ENDBRANCH   1  13
BRANCH  11  15
HETATM   15  O3  UNL     1       8.734  -9.608  11.152  1.00  0.00    -0.371 OA
ATOM     16  H3  UNL     1       8.986  -8.732  10.886  1.00  0.00     0.212 HD
ENDBRANCH  11  15
TORSDOF 2
ENDMDL