MODEL 3
REMARK VINA RESULT: -6.050436184      1.619      2.474
REMARK  1 active torsions:
REMARK  status: ('A' for Active; 'I' for Inactive)
REMARK    1  A    between atoms: C3_5  and  C4_6
ROOT
HETATM    1  C1  UNL     1       9.888 -10.133  14.656  1.00  0.00     0.041 C
HETATM    2  C2  UNL     1       9.339  -9.370  13.736  1.00  0.00     0.041 C
HETATM    3  N1  UNL     1       8.088  -9.662  13.179  1.00  0.00    -0.362 N
ATOM      4  H1  UNL     1       7.437 -10.239  13.712  1.00  0.00     0.165 HD
HETATM    5  C3  UNL     1       7.718  -9.223  11.997  1.00  0.00     0.030 C
HETATM    6  C8  UNL     1       8.708  -8.410  11.309  1.00  0.00     0.159 C
HETATM    7  C9  UNL     1       9.824  -9.352  10.833  1.00  0.00     0.052 C
HETATM    8  C10 UNL     1       8.261  -7.597  10.170  1.00  0.00     0.052 C
HETATM    9  N2  UNL     1       9.295  -7.495  12.296  1.00  0.00    -0.043 N
ATOM     10  H21 UNL     1       8.574  -6.919  12.730  1.00  0.00     0.280 HD
ATOM     11  H22 UNL     1       9.838  -6.763  11.835  1.00  0.00     0.280 HD
HETATM   12  C11 UNL     1      10.074  -8.162  13.281  1.00  0.00     0.307 C
HETATM   13  S1  UNL     1      10.219  -7.039  14.721  1.00  0.00    -0.056 SA
ENDROOT
BRANCH   5  14
HETATM   14  C4  UNL     1       6.378  -9.590  11.502  1.00  0.00    -0.010 C
HETATM   15  C5  UNL     1       5.910 -10.881  12.145  1.00  0.00     0.021 C
HETATM   16  C6  UNL     1       5.343  -8.533  11.863  1.00  0.00     0.021 C
HETATM   17  C7  UNL     1       6.382  -9.854  10.001  1.00  0.00     0.021 C
ENDBRANCH   5  14
TORSDOF 1
ENDMDL