MODEL 1
REMARK VINA RESULT: -6.298947087      0.000      0.000
REMARK  0 active torsions:
REMARK  status: ('A' for Active; 'I' for Inactive)
ROOT
HETATM    1  N1  UNL     1       8.914 -11.202  13.469  1.00  0.00    -0.380 N
ATOM      2  H11 UNL     1       9.196 -12.128  13.145  1.00  0.00     0.158 HD
ATOM      3  H12 UNL     1       8.541 -11.342  14.408  1.00  0.00     0.158 HD
HETATM    4  C1  UNL     1       8.989 -10.092  12.874  1.00  0.00     0.139 C
HETATM    5  N2  UNL     1       8.602  -8.816  13.321  1.00  0.00    -0.330 N
ATOM      6  H2  UNL     1       8.391  -8.609  14.297  1.00  0.00     0.168 HD
HETATM    7  C2  UNL     1       8.531  -7.848  12.295  1.00  0.00     0.098 C
HETATM    8  S1  UNL     1       7.396  -6.658  12.160  1.00  0.00    -0.064 SA
HETATM    9  C3  UNL     1       9.629  -8.006  11.307  1.00  0.00     0.069 C
HETATM   10  C4  UNL     1      10.900  -7.565  11.951  1.00  0.00     0.028 C
HETATM   11  C5  UNL     1      12.081  -7.607  11.002  1.00  0.00     0.002 C
HETATM   12  C6  UNL     1      11.720  -6.622   9.882  1.00  0.00     0.000 C
HETATM   13  C7  UNL     1      10.549  -7.196   9.157  1.00  0.00     0.002 C
HETATM   14  C8  UNL     1       9.333  -7.400   9.993  1.00  0.00     0.028 C
HETATM   15  S2  UNL     1       9.641  -9.848  11.235  1.00  0.00    -0.077 SA
ENDROOT
TORSDOF 0
ENDMDL