MODEL 2
REMARK VINA RESULT: -7.173721438      2.935      5.605
REMARK  4 active torsions:
REMARK  status: ('A' for Active; 'I' for Inactive)
REMARK    1  A    between atoms: C8_9  and  O2_10
REMARK    2  A    between atoms: C8_9  and  C9_12
REMARK    3  A    between atoms: C9_12  and  C10_14
REMARK    4  A    between atoms: C10_14  and  O4_15
ROOT
HETATM    1  C1  UNL     1       1.348 -16.197  19.936  1.00  0.00     0.043 C
HETATM    2  C2  UNL     1       1.209 -17.021  21.200  1.00  0.00    -0.087 C
HETATM    3  C3  UNL     1       1.059 -18.307  20.974  1.00  0.00    -0.024 C
HETATM    4  C4  UNL     1       0.901 -19.340  22.050  1.00  0.00     0.030 C
HETATM    5  C5  UNL     1       2.164 -20.033  22.227  1.00  0.00     0.042 C
HETATM    6  C6  UNL     1       2.827 -20.091  23.561  1.00  0.00     0.072 C
HETATM    7  C7  UNL     1       1.840 -20.557  24.601  1.00  0.00     0.047 C
HETATM    8  O1  UNL     1       3.874 -20.935  23.345  1.00  0.00    -0.337 OA
HETATM    9  C8  UNL     1       4.200 -21.958  24.125  1.00  0.00     0.232 C
HETATM   10  C11 UNL     1       5.069 -21.406  25.244  1.00  0.00     0.122 C
HETATM   11  C12 UNL     1       5.587 -20.075  24.981  1.00  0.00     0.027 C
HETATM   12  C13 UNL     1       6.854 -19.906  25.312  1.00  0.00     0.113 C
HETATM   13 CL1  UNL     1       7.571 -18.324  25.030  1.00  0.00    -0.070 Cl
HETATM   14 CL2  UNL     1       7.847 -21.140  26.002  1.00  0.00    -0.070 Cl
HETATM   15  C14 UNL     1       4.867 -18.949  24.409  1.00  0.00     0.165 C
HETATM   16  O5  UNL     1       5.600 -17.962  24.181  1.00  0.00    -0.292 OA
HETATM   17  C15 UNL     1       3.430 -18.816  24.073  1.00  0.00     0.095 C
HETATM   18  C16 UNL     1       3.269 -17.609  23.191  1.00  0.00     0.016 C
HETATM   19  C17 UNL     1       2.038 -16.807  23.587  1.00  0.00     0.005 C
HETATM   20  C18 UNL     1       1.256 -16.289  22.454  1.00  0.00     0.033 C
ENDROOT
BRANCH   9  21
HETATM   21  O2  UNL     1       3.244 -22.729  24.689  1.00  0.00    -0.359 OA
ATOM     22  H2  UNL     1       3.407 -23.185  25.506  1.00  0.00     0.213 HD
ENDBRANCH   9  21
BRANCH   9  23
HETATM   23  C9  UNL     1       5.070 -22.855  23.323  1.00  0.00     0.211 C
HETATM   24  O3  UNL     1       4.571 -23.922  22.979  1.00  0.00    -0.290 OA
BRANCH  23  25
HETATM   25  C10 UNL     1       6.455 -22.567  22.921  1.00  0.00     0.248 C
BRANCH  25  26
HETATM   26  O4  UNL     1       6.569 -21.455  22.101  1.00  0.00    -0.393 OA
ATOM     27  H4  UNL     1       7.390 -21.421  21.625  1.00  0.00     0.209 HD
ENDBRANCH  25  26
ENDBRANCH  23  25
ENDBRANCH   9  23
TORSDOF 4
ENDMDL