MODEL 1
REMARK VINA RESULT: -7.002467373      0.000      0.000
REMARK  2 active torsions:
REMARK  status: ('A' for Active; 'I' for Inactive)
REMARK    1  A    between atoms: C14_18  and  C15_19
REMARK    2  A    between atoms: C17_23  and  O2_24
ROOT
HETATM    1  C1  UNL     1       6.755 -22.372  22.053  1.00  0.00     0.145 C
HETATM    2  N1  UNL     1       5.615 -22.075  22.768  1.00  0.00    -0.189 NA
HETATM    3  O1  UNL     1       5.606 -21.539  23.914  1.00  0.00    -0.289 OA
HETATM    4  C2  UNL     1       4.589 -21.679  24.755  1.00  0.00     0.117 C
HETATM    5  C3  UNL     1       4.048 -22.358  25.898  1.00  0.00     0.052 C
HETATM    6  C4  UNL     1       4.952 -20.459  25.418  1.00  0.00     0.045 C
HETATM    7  C5  UNL     1       6.311 -20.783  26.032  1.00  0.00     0.067 C
HETATM    8  C6  UNL     1       7.359 -19.749  25.606  1.00  0.00     0.013 C
HETATM    9  C7  UNL     1       6.844 -18.411  26.063  1.00  0.00     0.001 C
HETATM   10  C8  UNL     1       5.532 -18.086  25.416  1.00  0.00     0.009 C
HETATM   11  C9  UNL     1       5.056 -19.201  24.512  1.00  0.00     0.025 C
HETATM   12  C10 UNL     1       3.796 -18.964  23.821  1.00  0.00    -0.045 C
HETATM   13  C11 UNL     1       3.092 -19.824  23.078  1.00  0.00    -0.067 C
HETATM   14  C12 UNL     1       1.823 -19.397  22.459  1.00  0.00     0.078 C
HETATM   15  C13 UNL     1       1.195 -18.194  22.998  1.00  0.00     0.060 C
HETATM   16  N2  UNL     1       1.872 -17.549  24.046  1.00  0.00    -0.389 N
ATOM     17  H2  UNL     1       1.368 -17.100  24.810  1.00  0.00     0.159 HD
HETATM   18  C14 UNL     1       3.306 -17.551  23.993  1.00  0.00     0.176 C
HETATM   19  C16 UNL     1       3.401 -21.242  22.680  1.00  0.00     0.078 C
HETATM   20  C17 UNL     1       3.740 -22.201  23.733  1.00  0.00     0.116 C
HETATM   21  C18 UNL     1       4.832 -23.228  23.260  1.00  0.00     0.146 C
HETATM   22  C19 UNL     1       5.669 -23.879  24.242  1.00  0.00     0.002 C
HETATM   23  C20 UNL     1       6.861 -23.379  24.943  1.00  0.00     0.048 C
HETATM   24  C21 UNL     1       6.874 -22.167  25.782  1.00  0.00     0.153 C
HETATM   25  O3  UNL     1       7.691 -22.313  26.680  1.00  0.00    -0.293 OA
ENDROOT
BRANCH  18  26
HETATM   26  C15 UNL     1       3.758 -16.609  22.918  1.00  0.00     0.379 C
HETATM   27  F1  UNL     1       3.101 -15.429  22.818  1.00  0.00    -0.212 F
HETATM   28  F2  UNL     1       5.111 -16.261  23.118  1.00  0.00    -0.212 F
ENDBRANCH  18  26
BRANCH  20  29
HETATM   29  O2  UNL     1       2.672 -23.038  24.047  1.00  0.00    -0.384 OA
ATOM     30  H2  UNL     1       2.415 -23.742  23.463  1.00  0.00     0.210 HD
ENDBRANCH  20  29
TORSDOF 2
ENDMDL