MODEL 1
REMARK VINA RESULT: -6.316872092      0.000      0.000
REMARK  3 active torsions:
REMARK  status: ('A' for Active; 'I' for Inactive)
REMARK    1  A    between atoms: C2_2  and  O2_4
REMARK    2  A    between atoms: O2_4  and  C3_5
REMARK    3  A    between atoms: C10_12  and  O3_14
ROOT
HETATM    1  C3  UNL     1       6.097 -21.955  23.708  1.00  0.00     0.122 C
HETATM    2  C4  UNL     1       5.157 -21.167  24.136  1.00  0.00    -0.004 C
HETATM    3  C5  UNL     1       5.401 -20.009  25.075  1.00  0.00     0.056 C
HETATM    4  C6  UNL     1       4.836 -18.717  24.505  1.00  0.00     0.013 C
HETATM    5  C7  UNL     1       3.547 -18.875  23.799  1.00  0.00     0.008 C
HETATM    6  C8  UNL     1       3.416 -20.089  22.916  1.00  0.00     0.020 C
HETATM    7  C9  UNL     1       1.989 -20.124  22.408  1.00  0.00     0.013 C
HETATM    8  C10 UNL     1       3.704 -21.277  23.813  1.00  0.00     0.084 C
HETATM    9  C11 UNL     1       3.177 -22.566  23.380  1.00  0.00     0.051 C
HETATM   10  C12 UNL     1       6.815 -19.867  25.506  1.00  0.00     0.105 A
HETATM   11  C13 UNL     1       7.009 -20.581  26.856  1.00  0.00     0.048 C
HETATM   12  C14 UNL     1       7.304 -18.504  25.698  1.00  0.00     0.185 A
HETATM   13  O4  UNL     1       6.812 -17.524  26.315  1.00  0.00    -0.290 OA
HETATM   14  C15 UNL     1       8.578 -18.434  25.001  1.00  0.00     0.009 A
HETATM   15  C16 UNL     1       9.489 -17.231  24.986  1.00  0.00     0.054 C
HETATM   16  C17 UNL     1       8.819 -19.577  24.383  1.00  0.00     0.017 A
HETATM   17  C18 UNL     1      10.064 -19.850  23.559  1.00  0.00     0.068 C
HETATM   18  N1  UNL     1       7.753 -20.469  24.614  1.00  0.00    -0.326 N
HETATM   19  C19 UNL     1       7.507 -21.815  24.104  1.00  0.00     0.240 C
HETATM   20 CL1  UNL     1       7.907 -23.005  25.408  1.00  0.00    -0.070 Cl
HETATM   21 CL2  UNL     1       8.575 -22.228  22.748  1.00  0.00    -0.070 Cl
ENDROOT
BRANCH   1  22
HETATM   22  O2  UNL     1       5.836 -23.009  22.837  1.00  0.00    -0.278 OA
BRANCH  22  23
HETATM   23  C2  UNL     1       6.057 -24.327  23.183  1.00  0.00     0.259 C
HETATM   24  C1  UNL     1       5.316 -25.004  24.282  1.00  0.00     0.126 C
HETATM   25  O1  UNL     1       6.917 -24.974  22.543  1.00  0.00    -0.265 OA
ENDBRANCH  22  23
ENDBRANCH   1  22
BRANCH   8  26
HETATM   26  O3  UNL     1       3.025 -20.953  25.032  1.00  0.00    -0.385 OA
ATOM     27  H3  UNL     1       3.227 -20.039  25.193  1.00  0.00     0.211 HD
ENDBRANCH   8  26
TORSDOF 3
ENDMDL