MODEL 4
REMARK VINA RESULT: -5.074771280      2.638      3.610
REMARK  1 active torsions:
REMARK  status: ('A' for Active; 'I' for Inactive)
REMARK    1  A    between atoms: C4_4  and  C5_5
ROOT
HETATM    1  C1  UNL     1       2.719 -15.490  21.787  1.00  0.00     0.044 C
HETATM    2  C2  UNL     1       1.246 -15.768  21.690  1.00  0.00    -0.076 C
HETATM    3  C3  UNL     1       0.724 -16.918  21.329  1.00  0.00    -0.032 C
HETATM    4  C4  UNL     1       1.322 -18.253  20.919  1.00  0.00     0.131 C
HETATM    5  C6  UNL     1       0.631 -18.724  19.653  1.00  0.00     0.008 C
HETATM    6  C7  UNL     1       0.862 -20.201  19.429  1.00  0.00     0.022 C
HETATM    7  C8  UNL     1       1.284 -17.957  18.483  1.00  0.00     0.022 C
HETATM    8  C9  UNL     1      -0.797 -18.424  19.589  1.00  0.00     0.051 C
HETATM    9  C10 UNL     1      -1.542 -19.189  18.580  1.00  0.00     0.097 C
HETATM   10  N1  UNL     1      -2.146 -19.781  17.791  1.00  0.00    -0.192 NA
HETATM   11  C11 UNL     1      -1.431 -17.560  20.333  1.00  0.00     0.059 C
HETATM   12 CL1  UNL     1      -3.151 -17.344  20.100  1.00  0.00    -0.085 Cl
HETATM   13  C12 UNL     1      -0.755 -16.771  21.362  1.00  0.00     0.143 C
HETATM   14  C13 UNL     1      -1.264 -17.226  22.664  1.00  0.00     0.082 C
HETATM   15  N2  UNL     1      -1.678 -17.588  23.691  1.00  0.00    -0.196 NA
HETATM   16  C14 UNL     1      -1.005 -15.284  21.304  1.00  0.00     0.140 C
HETATM   17 BR1  UNL     1      -2.543 -14.775  22.362  1.00  0.00    -0.066 Br
HETATM   18  C15 UNL     1      -1.178 -14.800  19.959  1.00  0.00     0.084 C
HETATM   19  N3  UNL     1      -1.320 -14.411  18.895  1.00  0.00    -0.195 NA
HETATM   20  C16 UNL     1       0.227 -14.729  21.992  1.00  0.00     0.073 C
ENDROOT
BRANCH   4  21
HETATM   21  C5  UNL     1       1.196 -19.209  22.041  1.00  0.00     0.182 C
HETATM   22  O1  UNL     1       0.434 -20.207  22.060  1.00  0.00    -0.647 OA
HETATM   23  O2  UNL     1       1.974 -19.018  23.203  1.00  0.00    -0.647 OA
ENDBRANCH   4  21
TORSDOF 1
ENDMDL