MODEL 2
REMARK VINA RESULT: -7.133637748      0.965      1.043
REMARK  1 active torsions:
REMARK  status: ('A' for Active; 'I' for Inactive)
REMARK    1  A    between atoms: C10_12  and  O2_13
ROOT
HETATM    1  C1  UNL     1       1.823 -24.602  25.925  1.00  0.00     0.043 C
HETATM    2  C2  UNL     1       2.137 -23.132  25.585  1.00  0.00    -0.084 C
HETATM    3  C3  UNL     1       1.390 -22.162  26.419  1.00  0.00     0.043 C
HETATM    4  C4  UNL     1       2.956 -22.925  24.605  1.00  0.00    -0.062 C
HETATM    5  C5  UNL     1       3.555 -24.096  23.846  1.00  0.00     0.042 C
HETATM    6  C6  UNL     1       4.453 -23.476  22.824  1.00  0.00     0.020 C
HETATM    7  C7  UNL     1       5.847 -23.765  23.207  1.00  0.00     0.151 C
HETATM    8  N1  UNL     1       5.955 -24.305  24.585  1.00  0.00    -0.092 NA
HETATM    9  O1  UNL     1       6.202 -23.187  25.348  1.00  0.00    -0.277 OA
HETATM   10  C8  UNL     1       7.156 -22.580  24.658  1.00  0.00     0.196 C
HETATM   11  C9  UNL     1       7.539 -21.175  24.778  1.00  0.00     0.086 C
HETATM   12  C10 UNL     1       8.896 -21.164  24.058  1.00  0.00     0.128 C
HETATM   13  C11 UNL     1       9.309 -22.442  23.406  1.00  0.00     0.035 C
HETATM   14  C12 UNL     1       8.266 -23.225  22.663  1.00  0.00     0.048 C
HETATM   15  C13 UNL     1       6.887 -22.727  23.164  1.00  0.00     0.144 C
HETATM   16  O3  UNL     1       6.714 -21.631  22.457  1.00  0.00    -0.224 OA
HETATM   17  O4  UNL     1       6.867 -20.452  22.784  1.00  0.00    -0.228 OA
HETATM   18  C14 UNL     1       6.637 -20.172  24.166  1.00  0.00     0.107 C
HETATM   19  C15 UNL     1       7.363 -18.807  24.360  1.00  0.00     0.050 C
HETATM   20  C16 UNL     1       5.276 -19.910  24.365  1.00  0.00     0.121 C
HETATM   21  C17 UNL     1       4.070 -20.645  24.721  1.00  0.00     0.258 C
HETATM   22  F1  UNL     1       3.047 -19.639  24.618  1.00  0.00    -0.205 F
HETATM   23  F2  UNL     1       4.011 -20.779  26.101  1.00  0.00    -0.205 F
HETATM   24  C18 UNL     1       3.490 -21.732  23.936  1.00  0.00     0.057 A
HETATM   25  C19 UNL     1       2.601 -21.550  22.732  1.00  0.00     0.006 A
HETATM   26  C20 UNL     1       2.257 -20.206  22.200  1.00  0.00     0.011 C
HETATM   27  C21 UNL     1       4.044 -22.080  22.681  1.00  0.00     0.016 A
ENDROOT
BRANCH  12  28
HETATM   28  O2  UNL     1       9.137 -20.150  23.194  1.00  0.00    -0.395 OA
ATOM     29  H2  UNL     1      10.042 -19.972  22.968  1.00  0.00     0.210 HD
ENDBRANCH  12  28
TORSDOF 1
ENDMDL