MODEL 2
REMARK VINA RESULT: -7.130855497      2.811      5.192
REMARK  5 active torsions:
REMARK  status: ('A' for Active; 'I' for Inactive)
REMARK    1  A    between atoms: C2_2  and  O2_4
REMARK    2  A    between atoms: O2_4  and  C3_5
REMARK    3  A    between atoms: C7_9  and  O3_10
REMARK    4  A    between atoms: C11_15  and  O4_16
REMARK    5  A    between atoms: C14_20  and  O5_21
ROOT
HETATM    1  C3  UNL     1       2.461 -17.978  22.909  1.00  0.00     0.139 C
HETATM    2  C4  UNL     1       1.913 -18.476  21.560  1.00  0.00     0.033 C
HETATM    3  C5  UNL     1       0.577 -19.101  21.980  1.00  0.00     0.006 C
HETATM    4  C6  UNL     1       0.918 -20.415  22.616  1.00  0.00     0.039 C
HETATM    5  C7  UNL     1       2.077 -20.405  23.540  1.00  0.00     0.070 C
HETATM    6  C8  UNL     1       2.744 -19.133  23.815  1.00  0.00     0.050 C
HETATM    7  C9  UNL     1       4.267 -19.352  23.771  1.00  0.00     0.018 C
HETATM    8  C10 UNL     1       4.559 -20.467  24.729  1.00  0.00     0.032 C
HETATM    9  C11 UNL     1       4.148 -21.753  24.084  1.00  0.00     0.068 C
HETATM   10  C12 UNL     1       5.206 -22.506  23.389  1.00  0.00     0.042 C
HETATM   11  C13 UNL     1       6.582 -22.423  23.918  1.00  0.00     0.048 C
HETATM   12  C14 UNL     1       6.923 -21.014  24.240  1.00  0.00     0.131 C
HETATM   13  C15 UNL     1       8.224 -20.802  24.932  1.00  0.00     0.274 C
HETATM   14  F1  UNL     1       9.163 -20.434  23.986  1.00  0.00    -0.203 F
HETATM   15  F2  UNL     1       8.708 -21.903  25.586  1.00  0.00    -0.203 F
HETATM   16  C16 UNL     1       8.004 -19.618  25.855  1.00  0.00     0.083 C
HETATM   17  C17 UNL     1       6.533 -19.214  25.666  1.00  0.00     0.019 C
HETATM   18  C18 UNL     1       5.929 -20.518  25.265  1.00  0.00    -0.000 C
HETATM   19  C19 UNL     1       5.932 -21.390  26.512  1.00  0.00     0.019 C
HETATM   20  C20 UNL     1       3.060 -21.471  23.040  1.00  0.00     0.051 C
HETATM   21  C21 UNL     1       2.253 -22.747  22.875  1.00  0.00     0.016 C
ENDROOT
BRANCH   1  22
HETATM   22  O2  UNL     1       3.536 -17.128  22.701  1.00  0.00    -0.316 OA
BRANCH  22  23
HETATM   23  C2  UNL     1       3.497 -15.844  23.218  1.00  0.00     0.255 C
HETATM   24  C1  UNL     1       2.358 -15.331  24.018  1.00  0.00     0.126 C
HETATM   25  O1  UNL     1       4.464 -15.068  23.005  1.00  0.00    -0.266 OA
ENDBRANCH  22  23
ENDBRANCH   1  22
BRANCH   5  26
HETATM   26  O3  UNL     1       1.613 -20.921  24.778  1.00  0.00    -0.389 OA
ATOM     27  H3  UNL     1       2.376 -21.015  25.337  1.00  0.00     0.210 HD
ENDBRANCH   5  26
BRANCH   9  28
HETATM   28  O4  UNL     1       3.543 -22.603  25.023  1.00  0.00    -0.389 OA
ATOM     29  H4  UNL     1       2.653 -22.322  25.201  1.00  0.00     0.210 HD
ENDBRANCH   9  28
BRANCH  12  30
HETATM   30  O5  UNL     1       6.863 -20.249  23.112  1.00  0.00    -0.383 OA
ATOM     31  H5  UNL     1       6.185 -20.577  22.533  1.00  0.00     0.210 HD
ENDBRANCH  12  30
TORSDOF 5
ENDMDL