MODEL 4
REMARK VINA RESULT: -6.035938629      5.794      7.729
REMARK  6 active torsions:
REMARK  status: ('A' for Active; 'I' for Inactive)
REMARK    1  A    between atoms: C2_2  and  O2_4
REMARK    2  A    between atoms: O2_4  and  C3_5
REMARK    3  A    between atoms: C7_10  and  N1_11
REMARK    4  A    between atoms: N1_11  and  N2_13
REMARK    5  A    between atoms: N2_13  and  N3_14
REMARK    6  A    between atoms: C14_25  and  O3_26
ROOT
HETATM    1  C3  UNL     1       2.360 -19.333  22.833  1.00  0.00     0.141 C
HETATM    2  C4  UNL     1       1.557 -19.937  21.698  1.00  0.00     0.070 C
HETATM    3  C5  UNL     1       0.694 -19.002  20.971  1.00  0.00    -0.043 C
HETATM    4  C6  UNL     1       0.247 -19.412  19.791  1.00  0.00     0.047 C
HETATM    5 CL1  UNL     1       0.682 -20.987  19.174  1.00  0.00    -0.086 Cl
HETATM    6  C7  UNL     1      -0.628 -18.502  18.945  1.00  0.00     0.222 C
HETATM    7  C8  UNL     1      -0.092 -17.105  19.140  1.00  0.00     0.145 C
HETATM    8  F1  UNL     1      -0.076 -16.308  18.056  1.00  0.00    -0.206 F
HETATM    9  C9  UNL     1       0.337 -16.709  20.348  1.00  0.00     0.074 C
HETATM   10  N4  UNL     1       0.812 -15.362  20.351  1.00  0.00    -0.103 NA
HETATM   11  C10 UNL     1       0.253 -17.642  21.436  1.00  0.00     0.028 C
HETATM   12  C11 UNL     1      -1.239 -17.795  21.788  1.00  0.00     0.027 C
HETATM   13  C12 UNL     1       0.955 -17.383  22.702  1.00  0.00     0.014 C
HETATM   14  C13 UNL     1       0.950 -16.098  23.367  1.00  0.00     0.039 C
HETATM   15  C14 UNL     1       2.211 -16.200  24.257  1.00  0.00     0.126 C
HETATM   16  C15 UNL     1       3.191 -16.999  23.424  1.00  0.00    -0.015 C
HETATM   17  C16 UNL     1       3.870 -15.960  22.509  1.00  0.00     0.018 C
HETATM   18  C17 UNL     1       4.285 -17.616  24.214  1.00  0.00     0.018 C
HETATM   19  C18 UNL     1       2.384 -17.873  22.563  1.00  0.00     0.031 C
ENDROOT
BRANCH   6  20
HETATM   20  N1  UNL     1      -0.490 -18.887  17.556  1.00  0.00    -0.236 N
ATOM     21  H1  UNL     1       0.436 -18.973  17.137  1.00  0.00     0.198 HD
BRANCH  20  22
HETATM   22  N2  UNL     1      -1.488 -19.108  16.889  1.00  0.00    -0.247 NA
BRANCH  22  23
HETATM   23  N3  UNL     1      -2.655 -19.183  16.514  1.00  0.00    -0.261 N
ATOM     24  H32 UNL     1      -3.038 -18.691  17.321  1.00  0.00     0.193 HD
ATOM     25  H31 UNL     1      -3.492 -19.389  15.968  1.00  0.00     0.193 HD
ENDBRANCH  22  23
ENDBRANCH  20  22
ENDBRANCH   6  20
BRANCH   1  26
HETATM   26  O2  UNL     1       1.623 -19.678  24.016  1.00  0.00    -0.316 OA
BRANCH  26  27
HETATM   27  C2  UNL     1       1.997 -20.760  24.762  1.00  0.00     0.255 C
HETATM   28  C1  UNL     1       3.249 -21.541  24.486  1.00  0.00     0.126 C
HETATM   29  O1  UNL     1       1.286 -21.138  25.722  1.00  0.00    -0.266 OA
ENDBRANCH  26  27
ENDBRANCH   1  26
BRANCH  15  30
HETATM   30  O3  UNL     1       2.635 -14.904  24.506  1.00  0.00    -0.395 OA
ATOM     31  H3  UNL     1       3.289 -14.953  25.194  1.00  0.00     0.210 HD
ENDBRANCH  15  30
TORSDOF 6
ENDMDL