MODEL 2
REMARK VINA RESULT: -7.178659161      4.690      8.835
REMARK  5 active torsions:
REMARK  status: ('A' for Active; 'I' for Inactive)
REMARK    1  A    between atoms: C5_6  and  N1_7
REMARK    2  A    between atoms: N1_7  and  C6_9
REMARK    3  A    between atoms: C8_13  and  C9_14
REMARK    4  A    between atoms: C12_22  and  N4_23
REMARK    5  A    between atoms: N4_23  and  C13_25
ROOT
HETATM    1  C1  UNL     1       6.940 -22.993  23.270  1.00  0.00     0.043 C
HETATM    2  C2  UNL     1       5.601 -22.344  23.258  1.00  0.00     0.173 C
HETATM    3  O1  UNL     1       5.615 -20.985  23.010  1.00  0.00    -0.348 OA
HETATM    4  C3  UNL     1       5.424 -20.327  24.216  1.00  0.00     0.363 C
HETATM    5  C4  UNL     1       6.583 -19.402  24.431  1.00  0.00     0.089 C
HETATM    6  C5  UNL     1       6.970 -19.247  25.870  1.00  0.00     0.089 C
HETATM    7  C10 UNL     1       7.323 -20.697  26.282  1.00  0.00     0.055 C
HETATM    8  C11 UNL     1       6.023 -21.434  26.319  1.00  0.00     0.280 C
HETATM    9  N3  UNL     1       5.166 -21.294  25.217  1.00  0.00     0.142 N
HETATM   10  C12 UNL     1       4.878 -22.552  24.572  1.00  0.00     0.355 C
ENDROOT
BRANCH   6  11
HETATM   11  N1  UNL     1       8.086 -18.421  26.044  1.00  0.00    -0.366 N
ATOM     12  H1  UNL     1       8.110 -17.898  26.919  1.00  0.00     0.162 HD
BRANCH  11  13
HETATM   13  C6  UNL     1       9.099 -18.223  25.253  1.00  0.00     0.145 A
HETATM   14  N2  UNL     1       9.981 -17.203  25.236  1.00  0.00    -0.345 N
HETATM   15  C7  UNL     1      10.989 -17.258  24.407  1.00  0.00     0.114 A
ATOM     16  H2  UNL     1       9.862 -16.404  25.859  1.00  0.00     0.167 HD
HETATM   17  C8  UNL     1      11.086 -18.362  23.604  1.00  0.00     0.107 A
HETATM   18  S1  UNL     1       9.733 -19.279  24.061  1.00  0.00    -0.048 SA
BRANCH  17  19
HETATM   19  C9  UNL     1      12.168 -18.669  22.593  1.00  0.00     0.425 C
HETATM   20  F1  UNL     1      12.663 -19.942  22.809  1.00  0.00    -0.165 F
HETATM   21  F2  UNL     1      11.664 -18.491  21.353  1.00  0.00    -0.165 F
HETATM   22  F3  UNL     1      13.164 -17.762  22.826  1.00  0.00    -0.165 F
ENDBRANCH  17  19
ENDBRANCH  11  13
ENDBRANCH   6  11
BRANCH  10  23
HETATM   23  N4  UNL     1       3.462 -22.680  24.248  1.00  0.00    -0.339 N
ATOM     24  H4  UNL     1       2.944 -21.918  23.812  1.00  0.00     0.163 HD
BRANCH  23  25
HETATM   25  C13 UNL     1       2.882 -23.821  24.544  1.00  0.00     0.145 A
HETATM   26  N5  UNL     1       2.811 -24.945  23.830  1.00  0.00    -0.346 N
HETATM   27  C14 UNL     1       2.138 -25.958  24.270  1.00  0.00     0.097 A
ATOM     28  H5  UNL     1       3.290 -25.006  22.932  1.00  0.00     0.167 HD
HETATM   29  C15 UNL     1       1.514 -25.835  25.489  1.00  0.00     0.070 A
HETATM   30  S2  UNL     1       1.935 -24.229  25.943  1.00  0.00    -0.065 SA
ENDBRANCH  23  25
ENDBRANCH  10  23
TORSDOF 5
ENDMDL