MODEL 1
REMARK VINA RESULT: -6.585954917      0.000      0.000
REMARK  5 active torsions:
REMARK  status: ('A' for Active; 'I' for Inactive)
REMARK    1  A    between atoms: S1_2  and  C2_3
REMARK    2  A    between atoms: C2_3  and  N1_5
REMARK    3  A    between atoms: N2_8  and  C5_9
REMARK    4  A    between atoms: C5_9  and  C6_10
REMARK       I    between atoms: C6_10  and  N3_12
REMARK       I    between atoms: N4_14  and  C7_16
REMARK       I    between atoms: C7_16  and  N6_20
REMARK    5  A    between atoms: N6_20  and  C8_22
ROOT
HETATM    1  C6  UNL     1       2.094 -20.995  22.842  1.00  0.00     0.254 C
HETATM    2  O1  UNL     1       1.710 -20.409  23.904  1.00  0.00    -0.270 OA
HETATM    3  N3  UNL     1       2.149 -20.248  21.669  1.00  0.00    -0.254 N
ATOM      4  H3  UNL     1       2.552 -20.712  20.855  1.00  0.00     0.190 HD
HETATM    5  N4  UNL     1       1.764 -19.081  21.500  1.00  0.00    -0.130 N
ATOM      6  H4  UNL     1       1.888 -18.698  20.563  1.00  0.00     0.205 HD
HETATM    7  C7  UNL     1       1.180 -18.227  22.440  1.00  0.00     0.686 C
HETATM    8  N5  UNL     1      -0.068 -18.250  22.767  1.00  0.00    -0.234 N
ATOM      9  H51 UNL     1      -0.494 -17.627  23.453  1.00  0.00     0.174 HD
ATOM     10  H52 UNL     1      -0.660 -18.938  22.304  1.00  0.00     0.174 HD
HETATM   11  N6  UNL     1       2.006 -17.267  23.088  1.00  0.00    -0.217 N
ATOM     12  H6  UNL     1       2.478 -17.518  23.956  1.00  0.00     0.178 HD
ENDROOT
BRANCH   1  13
HETATM   13  C5  UNL     1       2.442 -22.430  22.991  1.00  0.00     0.227 C
BRANCH  13  14
HETATM   14  N2  UNL     1       3.660 -22.670  23.683  1.00  0.00    -0.368 N
HETATM   15  C4  UNL     1       4.878 -23.001  22.967  1.00  0.00     0.143 C
HETATM   16  C3  UNL     1       5.992 -23.209  23.979  1.00  0.00     0.144 C
HETATM   17  N1  UNL     1       6.030 -22.153  24.971  1.00  0.00    -0.359 N
HETATM   18  C14 UNL     1       4.843 -21.859  25.760  1.00  0.00     0.187 C
HETATM   19  C12 UNL     1       3.709 -22.596  25.093  1.00  0.00     0.094 C
HETATM   20  C13 UNL     1       2.816 -23.168  25.881  1.00  0.00     0.291 C
HETATM   21  F1  UNL     1       2.930 -23.050  27.234  1.00  0.00    -0.171 F
HETATM   22  F2  UNL     1       1.772 -23.904  25.435  1.00  0.00    -0.171 F
BRANCH  17  23
HETATM   23  C2  UNL     1       7.220 -21.433  25.150  1.00  0.00     0.136 C
HETATM   24  S2  UNL     1       8.579 -21.808  24.357  1.00  0.00    -0.053 SA
BRANCH  23  25
HETATM   25  S1  UNL     1       7.236 -20.060  26.290  1.00  0.00    -0.105 SA
HETATM   26  C1  UNL     1       6.588 -18.552  25.479  1.00  0.00     0.098 C
ENDBRANCH  23  25
ENDBRANCH  17  23
ENDBRANCH  13  14
ENDBRANCH   1  13
BRANCH  11  27
HETATM   27  C8  UNL     1       2.190 -15.933  22.536  1.00  0.00     0.036 C
HETATM   28  C9  UNL     1       1.791 -15.842  21.095  1.00  0.00     0.038 C
HETATM   29  C10 UNL     1       1.415 -14.969  23.405  1.00  0.00     0.038 C
HETATM   30  C11 UNL     1       3.652 -15.570  22.660  1.00  0.00     0.038 C
ENDBRANCH  11  27
TORSDOF 5
ENDMDL