MODEL 2
REMARK VINA RESULT: -5.724121705      2.279      4.879
REMARK  3 active torsions:
REMARK  status: ('A' for Active; 'I' for Inactive)
REMARK    1  A    between atoms: C3_3  and  O1_4
REMARK    2  A    between atoms: C6_10  and  C7_11
REMARK    3  A    between atoms: C7_11  and  O4_12
ROOT
HETATM    1  C1  UNL     1      -2.053 -16.014  21.426  1.00  0.00     0.014 C
HETATM    2  C2  UNL     1      -1.050 -17.174  21.361  1.00  0.00     0.031 C
HETATM    3  C3  UNL     1      -0.501 -17.329  22.749  1.00  0.00     0.132 C
HETATM    4  C4  UNL     1       0.498 -18.433  22.897  1.00  0.00     0.143 C
HETATM    5  C5  UNL     1       1.745 -18.224  22.117  1.00  0.00     0.261 C
HETATM    6  O2  UNL     1       2.438 -19.285  22.061  1.00  0.00    -0.265 OA
HETATM    7  O3  UNL     1       1.999 -17.023  21.587  1.00  0.00    -0.314 OA
HETATM    8  C6  UNL     1       2.696 -15.889  21.863  1.00  0.00     0.155 C
HETATM    9  C8  UNL     1       1.984 -14.578  21.615  1.00  0.00     0.035 C
HETATM   10  C9  UNL     1       2.471 -13.864  20.378  1.00  0.00     0.010 C
HETATM   11  C10 UNL     1       2.383 -14.837  19.218  1.00  0.00     0.078 C
HETATM   12  C11 UNL     1       1.880 -14.182  17.990  1.00  0.00     0.127 C
HETATM   13  O5  UNL     1       2.513 -13.196  17.602  1.00  0.00    -0.298 OA
HETATM   14  C12 UNL     1       0.710 -14.606  17.216  1.00  0.00     0.078 C
HETATM   15  C13 UNL     1       0.553 -16.096  17.094  1.00  0.00     0.007 C
HETATM   16  C14 UNL     1      -0.832 -16.357  16.514  1.00  0.00     0.000 C
HETATM   17  C15 UNL     1      -1.339 -17.657  17.146  1.00  0.00     0.002 C
HETATM   18  C16 UNL     1      -1.815 -17.372  18.553  1.00  0.00     0.022 C
HETATM   19  C17 UNL     1      -1.678 -18.602  19.386  1.00  0.00     0.101 C
HETATM   20 CL1  UNL     1      -0.207 -19.504  18.969  1.00  0.00    -0.123 Cl
HETATM   21  C18 UNL     1      -1.804 -18.364  20.863  1.00  0.00     0.107 C
HETATM   22 CL2  UNL     1      -3.560 -18.176  21.206  1.00  0.00    -0.123 Cl
ENDROOT
BRANCH   8  23
HETATM   23  C7  UNL     1       3.345 -15.791  23.222  1.00  0.00     0.196 C
BRANCH  23  24
HETATM   24  O4  UNL     1       4.460 -14.989  23.263  1.00  0.00    -0.398 OA
ATOM     25  H4  UNL     1       4.695 -14.602  22.428  1.00  0.00     0.209 HD
ENDBRANCH  23  24
ENDBRANCH   8  23
BRANCH   3  26
HETATM   26  O1  UNL     1      -1.607 -17.629  23.579  1.00  0.00    -0.395 OA
ATOM     27  H1  UNL     1      -1.270 -18.170  24.283  1.00  0.00     0.210 HD
ENDBRANCH   3  26
TORSDOF 3
ENDMDL