MODEL 3
REMARK VINA RESULT: -7.223206222      1.406      2.329
REMARK  3 active torsions:
REMARK  status: ('A' for Active; 'I' for Inactive)
REMARK    1  A    between atoms: C2_3  and  N2_4
REMARK    2  A    between atoms: C3_6  and  C4_7
REMARK    3  A    between atoms: C4_7  and  N3_8
ROOT
HETATM    1  N2  UNL     1       5.694 -20.529  24.318  1.00  0.00    -0.359 N
ATOM      2  H2  UNL     1       4.988 -20.144  24.944  1.00  0.00     0.165 HD
HETATM    3  C3  UNL     1       5.406 -21.454  23.495  1.00  0.00     0.110 C
ENDROOT
BRANCH   1   4
HETATM    4  C2  UNL     1       7.054 -20.040  24.338  1.00  0.00     0.099 A
HETATM    5  C1  UNL     1       7.570 -19.010  25.072  1.00  0.00     0.087 A
HETATM    6  N1  UNL     1       6.694 -18.266  25.971  1.00  0.00    -0.099 NA
HETATM    7  C9  UNL     1       8.877 -18.737  24.920  1.00  0.00    -0.018 A
HETATM    8  C8  UNL     1       9.580 -19.518  24.041  1.00  0.00    -0.007 A
HETATM    9  C10 UNL     1       9.731 -17.669  25.588  1.00  0.00     0.042 C
HETATM   10  S1  UNL     1       8.400 -20.599  23.458  1.00  0.00    -0.074 SA
HETATM   11  C13 UNL     1      11.058 -19.289  23.801  1.00  0.00     0.047 C
HETATM   12  C12 UNL     1      11.398 -17.846  23.722  1.00  0.00     0.005 C
HETATM   13  C11 UNL     1      10.536 -16.945  24.531  1.00  0.00     0.005 C
ENDBRANCH   1   4
BRANCH   3  14
HETATM   14  C4  UNL     1       4.006 -21.975  23.456  1.00  0.00     0.217 C
HETATM   15  C5  UNL     1       3.155 -21.192  22.480  1.00  0.00     0.081 C
HETATM   16  C6  UNL     1       1.908 -20.783  23.235  1.00  0.00     0.182 C
HETATM   17  O3  UNL     1       2.146 -21.089  24.600  1.00  0.00    -0.319 OA
HETATM   18  C7  UNL     1       3.313 -21.788  24.756  1.00  0.00     0.299 C
HETATM   19  O4  UNL     1       3.769 -22.227  25.844  1.00  0.00    -0.262 OA
BRANCH  14  20
HETATM   20  N3  UNL     1       4.032 -23.379  23.085  1.00  0.00    -0.129 N
HETATM   21  O1  UNL     1       3.017 -24.093  23.112  1.00  0.00    -0.535 OA
HETATM   22  O2  UNL     1       5.257 -23.886  22.697  1.00  0.00    -0.535 OA
ENDBRANCH  14  20
ENDBRANCH   3  14
TORSDOF 3
ENDMDL