MODEL 1
REMARK VINA RESULT: -7.224534582      0.000      0.000
REMARK  5 active torsions:
REMARK  status: ('A' for Active; 'I' for Inactive)
REMARK    1  A    between atoms: O1_1  and  C1_3
REMARK    2  A    between atoms: C3_5  and  C4_6
REMARK    3  A    between atoms: C4_6  and  O2_7
REMARK    4  A    between atoms: C4_6  and  N1_9
REMARK    5  A    between atoms: N2_18  and  C11_19
ROOT
HETATM    1  C1  UNL     1       9.238 -21.307  23.696  1.00  0.00     0.142 A
HETATM    2  C2  UNL     1       8.403 -22.390  23.416  1.00  0.00     0.069 A
HETATM    3  C3  UNL     1       7.102 -21.937  23.327  1.00  0.00     0.020 A
HETATM    4  C10 UNL     1       7.186 -20.573  23.557  1.00  0.00     0.105 A
HETATM    5  N2  UNL     1       8.484 -20.226  23.775  1.00  0.00    -0.333 N
ENDROOT
BRANCH   3   6
HETATM    6  C4  UNL     1       5.853 -22.685  23.050  1.00  0.00     0.396 C
BRANCH   6   7
HETATM    7  O2  UNL     1       6.124 -23.973  22.548  1.00  0.00    -0.364 OA
ATOM      8  H2  UNL     1       5.613 -24.158  21.769  1.00  0.00     0.212 HD
ENDBRANCH   6   7
BRANCH   6   9
HETATM    9  N1  UNL     1       5.039 -22.858  24.219  1.00  0.00     0.152 N
HETATM   10  C5  UNL     1       4.584 -21.637  24.809  1.00  0.00     0.297 C
HETATM   11  C6  UNL     1       3.062 -21.493  24.682  1.00  0.00     0.104 C
HETATM   12  C7  UNL     1       2.454 -22.586  25.513  1.00  0.00     0.023 C
HETATM   13  S1  UNL     1       2.685 -21.892  22.932  1.00  0.00    -0.003 SA
HETATM   14  C8  UNL     1       2.992 -23.910  25.061  1.00  0.00     0.067 C
HETATM   15  C9  UNL     1       3.978 -23.793  23.921  1.00  0.00     0.376 C
HETATM   16  O3  UNL     1       3.335 -23.488  22.708  1.00  0.00    -0.283 OA
ENDBRANCH   6   9
ENDBRANCH   3   6
BRANCH   1  17
HETATM   17  O1  UNL     1      10.609 -21.447  23.844  1.00  0.00    -0.346 OA
ATOM     18  H1  UNL     1      11.055 -21.240  24.656  1.00  0.00     0.219 HD
ENDBRANCH   1  17
BRANCH   5  19
HETATM   19  C11 UNL     1       8.919 -18.893  24.044  1.00  0.00     0.091 C
HETATM   20  C12 UNL     1      10.353 -18.635  23.683  1.00  0.00     0.026 C
HETATM   21  C13 UNL     1      10.589 -17.278  24.358  1.00  0.00     0.002 C
HETATM   22  C14 UNL     1       9.899 -17.443  25.700  1.00  0.00     0.002 C
HETATM   23  C15 UNL     1       8.851 -18.516  25.501  1.00  0.00     0.026 C
ENDBRANCH   5  19
TORSDOF 5
ENDMDL