MODEL 4
REMARK VINA RESULT: -5.831658702      5.271      6.840
REMARK  5 active torsions:
REMARK  status: ('A' for Active; 'I' for Inactive)
REMARK    1  A    between atoms: C6_6  and  N1_7
REMARK    2  A    between atoms: C9_12  and  N3_13
REMARK    3  A    between atoms: C10_16  and  C11_17
REMARK    4  A    between atoms: C11_17  and  O3_18
REMARK    5  A    between atoms: N4_20  and  O4_22
ROOT
HETATM    1  C1  UNL     1       3.987 -25.064  24.954  1.00  0.00     0.045 C
HETATM    2  C2  UNL     1       3.019 -24.203  24.193  1.00  0.00     0.054 C
HETATM    3  C3  UNL     1       1.751 -25.064  23.968  1.00  0.00     0.045 C
HETATM    4  C4  UNL     1       2.581 -22.984  24.929  1.00  0.00     0.043 C
HETATM    5  C5  UNL     1       3.169 -21.763  24.170  1.00  0.00     0.057 C
HETATM    6  C6  UNL     1       4.628 -21.723  24.476  1.00  0.00     0.011 C
HETATM    7  C10 UNL     1       5.449 -22.667  23.673  1.00  0.00     0.132 C
HETATM    8  C12 UNL     1       4.714 -23.539  22.712  1.00  0.00     0.187 C
HETATM    9  O5  UNL     1       3.432 -23.858  22.943  1.00  0.00    -0.380 OA
ENDROOT
BRANCH   6  10
HETATM   10  N1  UNL     1       5.214 -20.431  24.745  1.00  0.00    -0.295 N
HETATM   11  C7  UNL     1       4.716 -19.292  24.186  1.00  0.00     0.117 A
HETATM   12  C8  UNL     1       5.460 -18.221  24.606  1.00  0.00     0.109 A
HETATM   13  N2  UNL     1       6.385 -18.713  25.403  1.00  0.00    -0.331 N
HETATM   14  C9  UNL     1       6.250 -20.073  25.502  1.00  0.00     0.256 A
ATOM     15  H2  UNL     1       7.099 -18.161  25.879  1.00  0.00     0.168 HD
BRANCH  14  16
HETATM   16  N3  UNL     1       7.120 -20.864  26.315  1.00  0.00    -0.079 N
HETATM   17  O1  UNL     1       6.781 -20.981  27.527  1.00  0.00    -0.529 OA
HETATM   18  O2  UNL     1       8.243 -21.499  25.981  1.00  0.00    -0.529 OA
ENDBRANCH  14  16
ENDBRANCH   6  10
BRANCH   7  19
HETATM   19  C11 UNL     1       6.560 -22.029  22.918  1.00  0.00     0.147 C
HETATM   20  N4  UNL     1       7.808 -22.311  23.183  1.00  0.00    -0.250 N
ATOM     21  H4  UNL     1       7.995 -22.985  23.926  1.00  0.00     0.196 HD
BRANCH  19  22
HETATM   22  O3  UNL     1       6.371 -21.106  21.896  1.00  0.00    -0.348 OA
ATOM     23  H3  UNL     1       6.781 -21.172  21.041  1.00  0.00     0.219 HD
ENDBRANCH  19  22
BRANCH  20  24
HETATM   24  O4  UNL     1       8.866 -21.773  22.544  1.00  0.00    -0.288 OA
ATOM     25  H4  UNL     1       9.755 -22.104  22.600  1.00  0.00     0.244 HD
ENDBRANCH  20  24
ENDBRANCH   7  19
TORSDOF 5
ENDMDL