MODEL 5
REMARK VINA RESULT: -6.485665648      1.040      1.071
REMARK  4 active torsions:
REMARK  status: ('A' for Active; 'I' for Inactive)
REMARK    1  A    between atoms: C2_2  and  S1_3
REMARK    2  A    between atoms: S1_3  and  C3_4
REMARK    3  A    between atoms: C8_16  and  S2_17
REMARK    4  A    between atoms: S2_17  and  C9_18
ROOT
HETATM    1  C3  UNL     1       5.954 -21.553  24.440  1.00  0.00     0.026 A
HETATM    2  C4  UNL     1       5.095 -22.525  24.532  1.00  0.00     0.126 A
HETATM    3  C5  UNL     1       3.892 -22.434  25.364  1.00  0.00     0.106 C
HETATM    4  N1  UNL     1       2.919 -22.406  26.001  1.00  0.00    -0.191 NA
HETATM    5  C6  UNL     1       5.186 -23.822  23.807  1.00  0.00     0.268 A
HETATM    6  O1  UNL     1       4.328 -24.733  23.935  1.00  0.00    -0.266 OA
HETATM    7  N2  UNL     1       6.295 -24.000  22.952  1.00  0.00    -0.311 N
ATOM      8  H2  UNL     1       6.418 -24.868  22.429  1.00  0.00     0.170 HD
HETATM    9  C7  UNL     1       7.233 -22.944  22.837  1.00  0.00     0.097 A
HETATM   10  N3  UNL     1       8.211 -23.128  21.978  1.00  0.00    -0.388 N
ATOM     11  H31 UNL     1       8.885 -22.368  21.895  1.00  0.00     0.157 HD
ATOM     12  H32 UNL     1       8.229 -24.008  21.461  1.00  0.00     0.157 HD
HETATM   13  C8  UNL     1       7.206 -21.690  23.575  1.00  0.00     0.162 A
ENDROOT
BRANCH   1  14
HETATM   14  S1  UNL     1       5.800 -20.007  25.287  1.00  0.00    -0.131 SA
BRANCH  14  15
HETATM   15  C2  UNL     1       6.152 -18.500  24.531  1.00  0.00     0.075 C
HETATM   16  C1  UNL     1       4.793 -17.760  24.261  1.00  0.00     0.016 C
ENDBRANCH  14  15
ENDBRANCH   1  14
BRANCH  13  17
HETATM   17  S2  UNL     1       8.678 -21.610  24.602  1.00  0.00    -0.099 SA
BRANCH  17  18
HETATM   18  C9  UNL     1       9.936 -20.545  23.883  1.00  0.00     0.043 C
HETATM   19  N4  UNL     1      11.047 -21.037  23.483  1.00  0.00    -0.388 N
HETATM   20  C10 UNL     1      11.915 -20.067  22.942  1.00  0.00     0.120 C
ATOM     21  H4  UNL     1      11.280 -22.028  23.550  1.00  0.00     0.159 HD
HETATM   22  C11 UNL     1      11.019 -18.897  22.582  1.00  0.00     0.026 C
HETATM   23  C12 UNL     1       9.929 -19.102  23.644  1.00  0.00     0.066 C
ENDBRANCH  17  18
ENDBRANCH  13  17
TORSDOF 4
ENDMDL