MODEL 1
REMARK VINA RESULT: -6.580198917      0.000      0.000
REMARK  4 active torsions:
REMARK  status: ('A' for Active; 'I' for Inactive)
REMARK    1  A    between atoms: C2_2  and  C3_3
REMARK    2  A    between atoms: C3_3  and  C4_4
REMARK    3  A    between atoms: C4_4  and  O1_5
REMARK    4  A    between atoms: C8_12  and  S1_13
ROOT
HETATM    1  S1  UNL     1       2.881 -23.880  23.474  1.00  0.00    -0.038 SA
HETATM    2  C9  UNL     1       2.418 -23.386  25.087  1.00  0.00     0.134 C
HETATM    3  N1  UNL     1       2.131 -23.059  26.153  1.00  0.00    -0.184 NA
ENDROOT
BRANCH   1   4
HETATM    4  C8  UNL     1       4.393 -23.024  22.992  1.00  0.00     0.132 C
HETATM    5  C7  UNL     1       4.321 -21.559  23.381  1.00  0.00     0.028 C
HETATM    6  C6  UNL     1       5.244 -21.381  24.567  1.00  0.00     0.055 C
HETATM    7  C5  UNL     1       6.641 -21.594  24.091  1.00  0.00     0.153 C
HETATM    8  O3  UNL     1       6.992 -20.529  23.252  1.00  0.00    -0.216 OA
HETATM    9  C11 UNL     1       6.873 -22.932  23.495  1.00  0.00     0.132 C
HETATM   10  S2  UNL     1       7.858 -21.232  25.431  1.00  0.00    -0.084 SA
HETATM   11  O2  UNL     1       7.046 -19.446  23.939  1.00  0.00    -0.214 OA
HETATM   12  C3  UNL     1       8.103 -19.498  24.845  1.00  0.00     0.167 C
HETATM   13  C10 UNL     1       5.580 -23.689  23.606  1.00  0.00     0.145 C
HETATM   14  O4  UNL     1       5.522 -24.769  24.161  1.00  0.00    -0.297 OA
BRANCH  12  15
HETATM   15  C2  UNL     1       9.391 -19.361  24.113  1.00  0.00     0.050 C
HETATM   16  C1  UNL     1      10.163 -18.127  24.461  1.00  0.00     0.009 C
ENDBRANCH  12  15
BRANCH  12  17
HETATM   17  C4  UNL     1       7.940 -18.602  26.020  1.00  0.00     0.216 C
BRANCH  17  18
HETATM   18  O1  UNL     1       6.659 -18.089  26.039  1.00  0.00    -0.397 OA
ATOM     19  H1  UNL     1       6.483 -17.700  26.888  1.00  0.00     0.209 HD
ENDBRANCH  17  18
ENDBRANCH  12  17
ENDBRANCH   1   4
TORSDOF 4
ENDMDL