MODEL 3
REMARK VINA RESULT: -5.952831663      3.721      4.880
REMARK  5 active torsions:
REMARK  status: ('A' for Active; 'I' for Inactive)
REMARK    1  A    between atoms: N2_5  and  C4_6
REMARK    2  A    between atoms: C5_7  and  O1_8
REMARK    3  A    between atoms: N3_10  and  C6_11
REMARK    4  A    between atoms: C6_11  and  C7_12
REMARK    5  A    between atoms: N4_13  and  O2_15
ROOT
HETATM    1  C4  UNL     1       9.022 -20.541  23.809  1.00  0.00     0.095 A
HETATM    2  C5  UNL     1      10.199 -21.153  23.438  1.00  0.00     0.171 A
HETATM    3  N3  UNL     1      11.199 -20.262  23.548  1.00  0.00    -0.320 N
HETATM    4  C8  UNL     1      10.675 -19.073  23.989  1.00  0.00     0.056 A
HETATM    5  C9  UNL     1      11.225 -17.848  24.274  1.00  0.00     0.080 A
HETATM    6  S1  UNL     1       9.889 -16.924  24.767  1.00  0.00    -0.110 SA
HETATM    7  C10 UNL     1       8.662 -18.109  24.603  1.00  0.00     0.065 A
HETATM    8  C11 UNL     1       9.351 -19.210  24.158  1.00  0.00     0.029 A
ENDROOT
BRANCH   1   9
HETATM    9  N2  UNL     1       7.712 -21.149  23.849  1.00  0.00    -0.373 N
HETATM   10  C3  UNL     1       7.147 -21.326  25.147  1.00  0.00     0.153 C
HETATM   11  C2  UNL     1       5.778 -21.835  25.271  1.00  0.00     0.291 C
HETATM   12  N1  UNL     1       5.019 -21.902  24.054  1.00  0.00     0.087 N
HETATM   13  C1  UNL     1       4.375 -20.628  23.811  1.00  0.00     0.310 C
HETATM   14  C13 UNL     1       5.795 -22.363  22.940  1.00  0.00     0.291 C
HETATM   15  C12 UNL     1       7.026 -21.562  22.683  1.00  0.00     0.153 C
ENDBRANCH   1   9
BRANCH   2  16
HETATM   16  O1  UNL     1      10.380 -22.475  23.012  1.00  0.00    -0.344 OA
ATOM     17  H1  UNL     1       9.742 -23.046  22.599  1.00  0.00     0.219 HD
ENDBRANCH   2  16
BRANCH   3  18
HETATM   18  C6  UNL     1      12.580 -20.568  23.237  1.00  0.00     0.178 C
BRANCH  18  19
HETATM   19  C7  UNL     1      12.705 -21.008  21.821  1.00  0.00     0.107 C
HETATM   20  N4  UNL     1      13.214 -22.176  21.583  1.00  0.00    -0.283 N
ATOM     21  H4  UNL     1      13.522 -22.779  22.345  1.00  0.00     0.192 HD
BRANCH  20  22
HETATM   22  O2  UNL     1      13.327 -22.576  20.272  1.00  0.00    -0.291 OA
ATOM     23  H2  UNL     1      12.949 -22.020  19.601  1.00  0.00     0.244 HD
ENDBRANCH  20  22
ENDBRANCH  18  19
ENDBRANCH   3  18
TORSDOF 5
ENDMDL