MODEL 4
REMARK VINA RESULT: -6.259644653      2.491      3.175
REMARK  5 active torsions:
REMARK  status: ('A' for Active; 'I' for Inactive)
REMARK    1  A    between atoms: N3_6  and  O1_8
REMARK    2  A    between atoms: O1_8  and  C4_9
REMARK    3  A    between atoms: C4_9  and  O2_10
REMARK    4  A    between atoms: C4_9  and  C5_12
REMARK    5  A    between atoms: C7_15  and  C8_16
ROOT
HETATM    1  N1  UNL     1      14.148 -19.280  22.615  1.00  0.00    -0.189 NA
HETATM    2  C1  UNL     1      13.080 -19.557  22.966  1.00  0.00     0.131 C
HETATM    3  C2  UNL     1      11.749 -19.881  23.395  1.00  0.00     0.214 C
HETATM    4  C3  UNL     1      10.892 -18.823  23.836  1.00  0.00     0.131 C
HETATM    5  N2  UNL     1      10.203 -17.978  24.192  1.00  0.00    -0.189 NA
HETATM    6  N3  UNL     1      11.383 -21.119  23.363  1.00  0.00    -0.244 N
ATOM      7  H3  UNL     1      12.050 -21.816  23.035  1.00  0.00     0.196 HD
ENDROOT
BRANCH   6   8
HETATM    8  O1  UNL     1      10.143 -21.534  23.748  1.00  0.00    -0.244 OA
BRANCH   8   9
HETATM    9  C4  UNL     1       9.019 -21.594  22.897  1.00  0.00     0.317 C
BRANCH   9  10
HETATM   10  O2  UNL     1       8.835 -22.911  22.443  1.00  0.00    -0.367 OA
ATOM     11  H2  UNL     1       8.206 -23.358  22.997  1.00  0.00     0.212 HD
ENDBRANCH   9  10
BRANCH   9  12
HETATM   12  C5  UNL     1       7.797 -21.183  23.653  1.00  0.00     0.253 C
HETATM   13  C6  UNL     1       8.071 -21.101  25.164  1.00  0.00     0.114 C
HETATM   14  S1  UNL     1       6.321 -20.907  25.708  1.00  0.00    -0.129 SA
HETATM   15  C7  UNL     1       5.559 -21.383  24.101  1.00  0.00     0.287 C
HETATM   16  N4  UNL     1       6.674 -22.051  23.477  1.00  0.00    -0.048 N
ATOM     17  H42 UNL     1       6.505 -22.306  22.504  1.00  0.00     0.279 HD
ATOM     18  H41 UNL     1       6.830 -22.997  23.825  1.00  0.00     0.279 HD
BRANCH  15  19
HETATM   19  C8  UNL     1       4.398 -22.284  24.318  1.00  0.00     0.023 A
HETATM   20  C9  UNL     1       3.466 -22.305  25.318  1.00  0.00     0.018 A
HETATM   21  C10 UNL     1       2.516 -23.246  25.254  1.00  0.00     0.008 A
HETATM   22  C11 UNL     1       2.549 -24.112  24.198  1.00  0.00     0.050 A
HETATM   23  S2  UNL     1       3.915 -23.582  23.321  1.00  0.00    -0.103 SA
ENDBRANCH  15  19
ENDBRANCH   9  12
ENDBRANCH   8   9
ENDBRANCH   6   8
TORSDOF 5
ENDMDL