MODEL 1
REMARK VINA RESULT: -6.741745261      0.000      0.000
REMARK  5 active torsions:
REMARK  status: ('A' for Active; 'I' for Inactive)
REMARK    1  A    between atoms: C5_7  and  C6_8
REMARK    2  A    between atoms: C6_8  and  C7_9
REMARK    3  A    between atoms: C8_12  and  N2_13
REMARK    4  A    between atoms: C9_17  and  S2_18
REMARK    5  A    between atoms: S2_18  and  C10_19
ROOT
HETATM    1  C10 UNL     1       2.537 -22.893  24.324  1.00  0.00     0.203 C
HETATM    2  C11 UNL     1       1.921 -24.024  24.992  1.00  0.00     0.069 C
HETATM    3  N3  UNL     1       1.418 -24.915  25.514  1.00  0.00    -0.197 NA
ENDROOT
BRANCH   1   4
HETATM    4  S2  UNL     1       3.910 -22.268  25.312  1.00  0.00    -0.106 SA
BRANCH   4   5
HETATM    5  C9  UNL     1       5.424 -22.493  24.354  1.00  0.00     0.072 A
HETATM    6  C7  UNL     1       6.598 -21.804  24.417  1.00  0.00     0.061 A
HETATM    7  N1  UNL     1       7.553 -22.133  23.579  1.00  0.00    -0.335 N
HETATM    8  C8  UNL     1       7.329 -23.122  22.716  1.00  0.00     0.143 A
ATOM      9  H1  UNL     1       8.447 -21.643  23.588  1.00  0.00     0.168 HD
HETATM   10  S1  UNL     1       5.732 -23.605  23.086  1.00  0.00    -0.045 SA
BRANCH   6  11
HETATM   11  C6  UNL     1       6.753 -20.684  25.377  1.00  0.00     0.074 C
BRANCH  11  12
HETATM   12  C5  UNL     1       7.403 -19.576  25.070  1.00  0.00     0.149 C
HETATM   13  C4  UNL     1       6.968 -18.334  24.505  1.00  0.00     0.319 C
HETATM   14  O1  UNL     1       8.097 -17.510  24.391  1.00  0.00    -0.278 OA
HETATM   15  O2  UNL     1       5.800 -18.009  24.168  1.00  0.00    -0.257 OA
HETATM   16  C2  UNL     1       9.220 -18.284  24.722  1.00  0.00     0.172 C
HETATM   17  C1  UNL     1      10.044 -18.620  23.492  1.00  0.00     0.079 C
HETATM   18  C3  UNL     1      10.047 -17.572  25.771  1.00  0.00     0.079 C
HETATM   19  O3  UNL     1       8.778 -19.482  25.288  1.00  0.00    -0.308 OA
ENDBRANCH  11  12
ENDBRANCH   6  11
BRANCH   8  20
HETATM   20  N2  UNL     1       8.133 -23.618  21.795  1.00  0.00    -0.380 N
ATOM     21  H22 UNL     1       8.709 -24.458  21.852  1.00  0.00     0.158 HD
ATOM     22  H21 UNL     1       8.333 -23.264  20.860  1.00  0.00     0.158 HD
ENDBRANCH   8  20
ENDBRANCH   4   5
ENDBRANCH   1   4
TORSDOF 5
ENDMDL