MODEL 5
REMARK VINA RESULT: -4.417469572      1.336      1.489
REMARK  2 active torsions:
REMARK  status: ('A' for Active; 'I' for Inactive)
REMARK    1  A    between atoms: N1_1  and  C1_4
REMARK       I    between atoms: N4_13  and  C4_14
REMARK       I    between atoms: C4_14  and  N5_16
REMARK    2  A    between atoms: N5_16  and  N6_18
ROOT
HETATM    1  C1  UNL     1      11.887   8.746  27.045  1.00  0.00     0.694 A
HETATM    2  N2  UNL     1      12.974   7.991  27.192  1.00  0.00    -0.141 N
ATOM      3  H2  UNL     1      13.387   7.917  28.121  1.00  0.00     0.189 HD
HETATM    4  C2  UNL     1      13.556   7.321  26.183  1.00  0.00     0.342 A
HETATM    5  O1  UNL     1      14.591   6.613  26.372  1.00  0.00    -0.246 OA
HETATM    6  N3  UNL     1      12.988   7.439  24.978  1.00  0.00    -0.259 N
ATOM      7  H3  UNL     1      13.393   6.948  24.181  1.00  0.00     0.175 HD
HETATM    8  C3  UNL     1      11.869   8.210  24.798  1.00  0.00     0.353 A
HETATM    9  O2  UNL     1      11.424   8.245  23.617  1.00  0.00    -0.245 OA
HETATM   10  N4  UNL     1      11.304   8.870  25.815  1.00  0.00    -0.042 N
HETATM   11  C4  UNL     1      10.159   9.673  25.689  1.00  0.00     0.363 C
HETATM   12  O3  UNL     1       9.705  10.264  26.753  1.00  0.00    -0.244 OA
HETATM   13  N5  UNL     1       9.404   9.942  24.539  1.00  0.00    -0.257 N
ATOM     14  H5  UNL     1       9.671   9.530  23.645  1.00  0.00     0.191 HD
ENDROOT
BRANCH   1  15
HETATM   15  N1  UNL     1      11.347   9.378  28.017  1.00  0.00    -0.234 N
ATOM     16  H12 UNL     1      10.858   8.824  28.720  1.00  0.00     0.174 HD
ATOM     17  H11 UNL     1      11.389  10.393  28.107  1.00  0.00     0.174 HD
ENDBRANCH   1  15
BRANCH  13  18
HETATM   18  N6  UNL     1       8.258  10.796  24.619  1.00  0.00    -0.341 N
ATOM     19  H62 UNL     1       7.689  10.942  23.785  1.00  0.00     0.177 HD
ATOM     20  H61 UNL     1       8.020  11.247  25.501  1.00  0.00     0.177 HD
ENDBRANCH  13  18
TORSDOF 2
ENDMDL