MODEL 1
REMARK VINA RESULT: -4.324767127      0.000      0.000
REMARK  4 active torsions:
REMARK  status: ('A' for Active; 'I' for Inactive)
REMARK    1  A    between atoms: N1_1  and  C1_4
REMARK    2  A    between atoms: N3_7  and  O1_8
REMARK    3  A    between atoms: C2_10  and  C3_11
REMARK       I    between atoms: C3_11  and  N4_13
REMARK    4  A    between atoms: N4_13  and  N5_15
ROOT
HETATM    1  C1  UNL     1      16.076   6.763  25.120  1.00  0.00     0.707 A
HETATM    2  N2  UNL     1      15.265   6.865  26.177  1.00  0.00    -0.103 N
ATOM      3  H2  UNL     1      15.625   6.718  27.120  1.00  0.00     0.208 HD
HETATM    4  N3  UNL     1      13.995   7.156  25.986  1.00  0.00    -0.125 N
HETATM    5  C2  UNL     1      13.446   7.363  24.771  1.00  0.00     0.237 A
HETATM    6  N6  UNL     1      14.279   7.255  23.729  1.00  0.00    -0.263 N
ATOM      7  H6  UNL     1      13.919   7.400  22.786  1.00  0.00     0.189 HD
HETATM    8  N7  UNL     1      15.569   6.961  23.897  1.00  0.00    -0.129 N
ATOM      9  H7  UNL     1      16.178   6.886  23.082  1.00  0.00     0.205 HD
ENDROOT
BRANCH   5  10
HETATM   10  C3  UNL     1      12.035   7.681  24.635  1.00  0.00     0.308 C
HETATM   11  O2  UNL     1      11.279   6.998  23.900  1.00  0.00    -0.262 OA
HETATM   12  N4  UNL     1      11.474   8.775  25.333  1.00  0.00    -0.270 N
ATOM     13  H4  UNL     1      12.079   9.337  25.932  1.00  0.00     0.189 HD
BRANCH  12  14
HETATM   14  N5  UNL     1      10.129   9.117  25.235  1.00  0.00    -0.342 N
ATOM     15  H52 UNL     1       9.607   8.760  24.435  1.00  0.00     0.176 HD
ATOM     16  H51 UNL     1       9.659   9.702  25.926  1.00  0.00     0.176 HD
ENDBRANCH  12  14
ENDBRANCH   5  10
BRANCH   4  17
HETATM   17  O1  UNL     1      13.159   7.260  27.085  1.00  0.00    -0.266 OA
ATOM     18  H1  UNL     1      12.227   7.373  26.943  1.00  0.00     0.247 HD
ENDBRANCH   4  17
BRANCH   1  19
HETATM   19  N1  UNL     1      17.334   6.475  25.314  1.00  0.00    -0.232 N
ATOM     20  H12 UNL     1      17.787   6.598  26.219  1.00  0.00     0.174 HD
ATOM     21  H11 UNL     1      17.884   6.114  24.534  1.00  0.00     0.174 HD
ENDBRANCH   1  19
TORSDOF 4
ENDMDL