MODEL 5
REMARK VINA RESULT: -4.199693092      1.467      2.307
REMARK  3 active torsions:
REMARK  status: ('A' for Active; 'I' for Inactive)
REMARK    1  A    between atoms: N1_1  and  C1_4
REMARK    2  A    between atoms: C2_7  and  C3_8
REMARK       I    between atoms: C3_8  and  N3_10
REMARK    3  A    between atoms: N3_10  and  N4_12
ROOT
HETATM    1  C1  UNL     1      13.696   7.370  24.586  1.00  0.00     0.681 A
HETATM    2  N2  UNL     1      12.524   7.830  24.109  1.00  0.00    -0.171 N
ATOM      3  H2  UNL     1      12.378   7.854  23.099  1.00  0.00     0.186 HD
HETATM    4  C2  UNL     1      11.533   8.261  24.927  1.00  0.00     0.195 A
HETATM    5  N5  UNL     1      11.714   8.234  26.240  1.00  0.00    -0.289 N
ATOM      6  H5  UNL     1      10.979   8.555  26.871  1.00  0.00     0.172 HD
HETATM    7  C4  UNL     1      12.882   7.777  26.726  1.00  0.00     0.340 A
HETATM    8  O2  UNL     1      13.038   7.757  27.975  1.00  0.00    -0.246 OA
HETATM    9  N6  UNL     1      13.882   7.342  25.908  1.00  0.00    -0.141 N
ATOM     10  H6  UNL     1      14.760   7.000  26.300  1.00  0.00     0.189 HD
ENDROOT
BRANCH   4  11
HETATM   11  C3  UNL     1      10.277   8.751  24.343  1.00  0.00     0.304 C
HETATM   12  O1  UNL     1       9.757   8.139  23.381  1.00  0.00    -0.263 OA
HETATM   13  N3  UNL     1       9.678   9.917  24.889  1.00  0.00    -0.270 N
ATOM     14  H3  UNL     1      10.112  10.404  25.672  1.00  0.00     0.189 HD
BRANCH  13  15
HETATM   15  N4  UNL     1       8.484  10.385  24.336  1.00  0.00    -0.342 N
ATOM     16  H42 UNL     1       8.283  10.209  23.352  1.00  0.00     0.176 HD
ATOM     17  H41 UNL     1       7.832  10.897  24.930  1.00  0.00     0.176 HD
ENDBRANCH  13  15
ENDBRANCH   4  11
BRANCH   1  18
HETATM   18  N1  UNL     1      14.604   6.971  23.760  1.00  0.00    -0.234 N
ATOM     19  H12 UNL     1      14.601   6.029  23.369  1.00  0.00     0.174 HD
ATOM     20  H11 UNL     1      15.349   7.612  23.487  1.00  0.00     0.174 HD
ENDBRANCH   1  18
TORSDOF 3
ENDMDL