MODEL 2
REMARK VINA RESULT: -3.504522528      7.715      9.438
REMARK  4 active torsions:
REMARK  status: ('A' for Active; 'I' for Inactive)
REMARK    1  A    between atoms: N1_1  and  C1_4
REMARK    2  A    between atoms: N4_11  and  C3_12
REMARK    3  A    between atoms: C3_12  and  N5_14
REMARK    4  A    between atoms: N5_14  and  N6_16
ROOT
HETATM    1  C1  UNL     1      10.938   9.233  26.343  1.00  0.00     0.703 A
HETATM    2  N2  UNL     1      12.002   8.529  25.898  1.00  0.00    -0.138 N
ATOM      3  H2  UNL     1      12.884   8.383  26.391  1.00  0.00     0.189 HD
HETATM    4  C2  UNL     1      11.675   8.057  24.676  1.00  0.00     0.354 A
HETATM    5  O1  UNL     1      12.413   7.341  23.918  1.00  0.00    -0.245 OA
HETATM    6  N3  UNL     1      10.426   8.487  24.418  1.00  0.00    -0.227 N
ATOM      7  H3  UNL     1       9.909   8.284  23.562  1.00  0.00     0.193 HD
HETATM    8  N4  UNL     1       9.960   9.207  25.424  1.00  0.00    -0.054 N
ENDROOT
BRANCH   8   9
HETATM    9  C3  UNL     1       8.665   9.839  25.526  1.00  0.00     0.229 C
HETATM   10  S1  UNL     1       7.503   9.201  26.479  1.00  0.00    -0.037 SA
BRANCH   9  11
HETATM   11  N5  UNL     1       8.376  11.019  24.807  1.00  0.00    -0.281 N
ATOM     12  H5  UNL     1       8.471  11.027  23.791  1.00  0.00     0.189 HD
BRANCH  11  13
HETATM   13  N6  UNL     1       7.971  12.152  25.457  1.00  0.00    -0.343 N
ATOM     14  H62 UNL     1       8.612  12.943  25.505  1.00  0.00     0.176 HD
ATOM     15  H61 UNL     1       7.047  12.205  25.884  1.00  0.00     0.176 HD
ENDBRANCH  11  13
ENDBRANCH   9  11
ENDBRANCH   8   9
BRANCH   1  16
HETATM   16  N1  UNL     1      10.870   9.847  27.492  1.00  0.00    -0.233 N
ATOM     17  H12 UNL     1      11.594  10.455  27.874  1.00  0.00     0.174 HD
ATOM     18  H11 UNL     1      10.087   9.790  28.143  1.00  0.00     0.174 HD
ENDBRANCH   1  16
TORSDOF 4
ENDMDL