MODEL 4
REMARK VINA RESULT: -4.538057729      1.957      5.909
REMARK  2 active torsions:
REMARK  status: ('A' for Active; 'I' for Inactive)
REMARK    1  A    between atoms: N1_1  and  N2_4
REMARK       I    between atoms: N2_4  and  C1_6
REMARK       I    between atoms: C1_6  and  N3_8
REMARK    2  A    between atoms: N3_8  and  C2_9
ROOT
HETATM    1  C2  UNL     1      13.028   7.461  25.158  1.00  0.00     0.279 A
HETATM    2  N4  UNL     1      12.493   7.599  26.372  1.00  0.00    -0.320 N
ATOM      3  H4  UNL     1      13.122   7.355  27.137  1.00  0.00     0.169 HD
HETATM    4  C3  UNL     1      11.239   8.015  26.781  1.00  0.00     0.168 A
HETATM    5  C4  UNL     1      10.325   8.298  25.654  1.00  0.00     0.275 A
HETATM    6  O2  UNL     1       9.116   8.629  25.850  1.00  0.00    -0.265 OA
HETATM    7  N5  UNL     1      10.812   8.194  24.338  1.00  0.00    -0.262 N
ATOM      8  H5  UNL     1      10.208   8.418  23.547  1.00  0.00     0.190 HD
HETATM    9  N6  UNL     1      12.158   7.773  24.119  1.00  0.00    -0.256 N
ATOM     10  H6  UNL     1      12.496   7.697  23.160  1.00  0.00     0.191 HD
ENDROOT
BRANCH   1  11
HETATM   11  N3  UNL     1      14.335   7.015  25.122  1.00  0.00    -0.313 NA
HETATM   12  C1  UNL     1      15.593   6.586  25.088  1.00  0.00     0.415 C
HETATM   13  N2  UNL     1      16.529   7.212  24.147  1.00  0.00    -0.246 N
HETATM   14  O1  UNL     1      16.136   5.686  25.770  1.00  0.00    -0.228 OA
ATOM     15  H2  UNL     1      16.208   7.961  23.533  1.00  0.00     0.192 HD
BRANCH  13  16
HETATM   16  N1  UNL     1      17.835   6.791  24.090  1.00  0.00    -0.340 N
ATOM     17  H12 UNL     1      18.099   6.095  23.394  1.00  0.00     0.177 HD
ATOM     18  H11 UNL     1      18.525   7.173  24.737  1.00  0.00     0.177 HD
ENDBRANCH  13  16
ENDBRANCH   1  11
TORSDOF 2
ENDMDL