MODEL 2
REMARK VINA RESULT: -3.697952025      3.212      4.864
REMARK  2 active torsions:
REMARK  status: ('A' for Active; 'I' for Inactive)
REMARK    1  A    between atoms: N1_2  and  C2_4
REMARK       I    between atoms: N4_11  and  C4_12
REMARK       I    between atoms: C4_12  and  N6_16
REMARK    2  A    between atoms: N6_16  and  N7_18
ROOT
HETATM    1  C2  UNL     1      10.543   9.531  26.142  1.00  0.00     0.718 A
HETATM    2  N2  UNL     1       9.667  10.467  25.732  1.00  0.00    -0.127 N
ATOM      3  H2  UNL     1       9.423  11.309  26.252  1.00  0.00     0.205 HD
HETATM    4  N3  UNL     1       9.163  10.125  24.537  1.00  0.00    -0.236 N
ATOM      5  H3  UNL     1       8.479  10.658  24.000  1.00  0.00     0.192 HD
HETATM    6  C3  UNL     1       9.720   8.955  24.169  1.00  0.00     0.377 A
HETATM    7  O1  UNL     1       9.505   8.305  23.110  1.00  0.00    -0.243 OA
HETATM    8  N4  UNL     1      10.561   8.598  25.155  1.00  0.00     0.080 N
HETATM    9  C4  UNL     1      11.358   7.442  25.196  1.00  0.00     0.715 C
HETATM   10  N5  UNL     1      10.833   6.294  25.431  1.00  0.00    -0.232 N
ATOM     11  H51 UNL     1      11.412   5.454  25.462  1.00  0.00     0.174 HD
ATOM     12  H52 UNL     1       9.824   6.268  25.583  1.00  0.00     0.174 HD
HETATM   13  N6  UNL     1      12.762   7.478  24.986  1.00  0.00    -0.138 N
ATOM     14  H6  UNL     1      13.110   7.562  24.031  1.00  0.00     0.205 HD
ENDROOT
BRANCH   1  15
HETATM   15  N1  UNL     1      11.235   9.495  27.233  1.00  0.00    -0.228 N
HETATM   16  C1  UNL     1      10.849  10.349  28.330  1.00  0.00     0.165 C
ATOM     17  H1  UNL     1      12.040   8.874  27.317  1.00  0.00     0.177 HD
ENDBRANCH   1  15
BRANCH  13  18
HETATM   18  N7  UNL     1      13.685   7.404  26.026  1.00  0.00    -0.331 N
ATOM     19  H72 UNL     1      13.429   7.832  26.915  1.00  0.00     0.177 HD
ATOM     20  H71 UNL     1      14.591   6.945  25.930  1.00  0.00     0.177 HD
ENDBRANCH  13  18
TORSDOF 2
ENDMDL