MODEL 2
REMARK VINA RESULT: -4.423387780      2.705      3.924
REMARK  1 active torsions:
REMARK  status: ('A' for Active; 'I' for Inactive)
REMARK    1  A    between atoms: N1_1  and  C1_4
REMARK       I    between atoms: N4_13  and  C4_14
REMARK       I    between atoms: C4_14  and  N5_15
REMARK       I    between atoms: C4_14  and  N6_19
ROOT
HETATM    1  C1  UNL     1      14.607   7.089  26.621  1.00  0.00     0.689 A
HETATM    2  N2  UNL     1      15.854   6.958  26.143  1.00  0.00    -0.141 N
ATOM      3  H2  UNL     1      16.617   6.829  26.807  1.00  0.00     0.189 HD
HETATM    4  C2  UNL     1      16.146   6.988  24.829  1.00  0.00     0.342 A
HETATM    5  O1  UNL     1      17.340   6.860  24.404  1.00  0.00    -0.246 OA
HETATM    6  N3  UNL     1      15.128   7.159  23.964  1.00  0.00    -0.259 N
ATOM      7  H3  UNL     1      15.311   7.188  22.961  1.00  0.00     0.175 HD
HETATM    8  C3  UNL     1      13.874   7.292  24.423  1.00  0.00     0.348 A
HETATM    9  O2  UNL     1      12.939   7.452  23.568  1.00  0.00    -0.246 OA
HETATM   10  N4  UNL     1      13.606   7.259  25.737  1.00  0.00    -0.077 N
HETATM   11  C4  UNL     1      12.221   7.411  26.158  1.00  0.00     0.505 C
HETATM   12  N5  UNL     1      11.398   7.261  24.978  1.00  0.00    -0.032 N
ATOM     13  H51 UNL     1      10.427   7.368  25.274  1.00  0.00     0.279 HD
ATOM     14  H52 UNL     1      11.570   6.389  24.478  1.00  0.00     0.279 HD
ATOM     15  H53 UNL     1      11.659   7.898  24.225  1.00  0.00     0.279 HD
HETATM   16  N6  UNL     1      12.018   8.724  26.743  1.00  0.00    -0.032 N
ATOM     17  H61 UNL     1      11.047   8.831  27.039  1.00  0.00     0.279 HD
ATOM     18  H62 UNL     1      12.309   9.471  26.113  1.00  0.00     0.279 HD
ATOM     19  H63 UNL     1      12.671   8.908  27.505  1.00  0.00     0.279 HD
ENDROOT
BRANCH   1  20
HETATM   20  N1  UNL     1      14.360   7.058  27.871  1.00  0.00    -0.234 N
ATOM     21  H12 UNL     1      13.763   6.327  28.258  1.00  0.00     0.174 HD
ATOM     22  H11 UNL     1      14.743   7.753  28.513  1.00  0.00     0.174 HD
ENDBRANCH   1  20
TORSDOF 1
ENDMDL