MODEL 5
REMARK VINA RESULT: -4.383033041      1.783      2.186
REMARK  1 active torsions:
REMARK  status: ('A' for Active; 'I' for Inactive)
REMARK    1  A    between atoms: C2_5  and  C3_6
ROOT
HETATM    1  N1  UNL     1      13.424   7.731  26.707  1.00  0.00    -0.394 N
ATOM      2  H11 UNL     1      14.063   7.710  27.501  1.00  0.00     0.156 HD
ATOM      3  H12 UNL     1      13.531   7.289  25.793  1.00  0.00     0.156 HD
HETATM    4  C1  UNL     1      12.355   8.411  26.920  1.00  0.00     0.113 C
HETATM    5  C2  UNL     1      11.487   8.440  25.843  1.00  0.00     0.102 C
HETATM    6  C4  UNL     1      10.465   9.350  25.678  1.00  0.00     0.135 C
HETATM    7  N3  UNL     1       9.772   9.297  24.443  1.00  0.00    -0.082 NA
HETATM    8  N4  UNL     1      10.006  10.303  26.513  1.00  0.00    -0.340 N
ATOM      9  H4  UNL     1       9.220  10.856  26.172  1.00  0.00     0.167 HD
HETATM   10  C5  UNL     1      10.462  10.617  27.760  1.00  0.00     0.184 C
HETATM   11  N5  UNL     1      11.296   9.920  28.577  1.00  0.00    -0.318 N
ATOM     12  H5  UNL     1      11.225  10.097  29.580  1.00  0.00     0.169 HD
HETATM   13  C6  UNL     1      12.207   9.017  28.174  1.00  0.00     0.273 C
HETATM   14  O2  UNL     1      13.052   8.658  29.034  1.00  0.00    -0.266 OA
ENDROOT
BRANCH   5  15
HETATM   15  C3  UNL     1      11.673   7.431  24.811  1.00  0.00     0.270 C
HETATM   16  N2  UNL     1      12.458   7.666  23.655  1.00  0.00    -0.057 NA
HETATM   17  O1  UNL     1      11.116   6.316  24.956  1.00  0.00    -0.271 OA
ENDBRANCH   5  15
TORSDOF 1
ENDMDL