MODEL 4
REMARK VINA RESULT: -4.182017457      3.179      5.462
REMARK  2 active torsions:
REMARK  status: ('A' for Active; 'I' for Inactive)
REMARK    1  A    between atoms: N2_5  and  N3_6
REMARK    2  A    between atoms: C3_11  and  C4_12
ROOT
HETATM    1  C1  UNL     1      14.731   6.946  28.545  1.00  0.00     0.162 C
HETATM    2  N1  UNL     1      14.538   7.097  27.109  1.00  0.00    -0.287 N
HETATM    3  C2  UNL     1      15.606   6.997  26.189  1.00  0.00     0.363 A
HETATM    4  O1  UNL     1      16.784   6.770  26.589  1.00  0.00    -0.243 OA
HETATM    5  N2  UNL     1      15.382   7.150  24.797  1.00  0.00    -0.148 N
HETATM    6  N4  UNL     1      14.075   7.398  24.396  1.00  0.00    -0.269 N
ATOM      7  H4  UNL     1      13.893   7.510  23.399  1.00  0.00     0.189 HD
HETATM    8  C3  UNL     1      12.962   7.505  25.305  1.00  0.00     0.132 A
HETATM    9  C5  UNL     1      13.227   7.355  26.587  1.00  0.00     0.153 A
HETATM   10  N7  UNL     1      12.180   7.450  27.528  1.00  0.00    -0.080 NA
ENDROOT
BRANCH   8  11
HETATM   11  C4  UNL     1      11.646   7.765  24.783  1.00  0.00     0.141 C
HETATM   12  N5  UNL     1      10.987   8.823  24.744  1.00  0.00    -0.386 N
ATOM     13  H52 UNL     1      11.470   9.624  25.151  1.00  0.00     0.157 HD
ATOM     14  H51 UNL     1      10.054   9.007  24.374  1.00  0.00     0.157 HD
HETATM   15  N6  UNL     1      10.954   6.616  24.200  1.00  0.00    -0.081 NA
ENDBRANCH   8  11
BRANCH   5  16
HETATM   16  N3  UNL     1      16.454   7.047  23.909  1.00  0.00    -0.320 N
ATOM     17  H32 UNL     1      17.293   6.500  24.101  1.00  0.00     0.179 HD
ATOM     18  H31 UNL     1      16.418   7.537  23.015  1.00  0.00     0.179 HD
ENDBRANCH   5  16
TORSDOF 2
ENDMDL