MODEL 3
REMARK VINA RESULT: -4.666227701      3.708      5.462
REMARK  3 active torsions:
REMARK  status: ('A' for Active; 'I' for Inactive)
REMARK    1  A    between atoms: N1_1  and  C1_4
REMARK    2  A    between atoms: N3_8  and  N4_9
REMARK       I    between atoms: N4_9  and  C3_11
REMARK    3  A    between atoms: N6_13  and  N7_15
ROOT
HETATM    1  C1  UNL     1       8.753  11.060  25.341  1.00  0.00     0.680 A
HETATM    2  N2  UNL     1       9.495  10.724  26.428  1.00  0.00    -0.186 N
ATOM      3  H2  UNL     1       9.513  11.314  27.261  1.00  0.00     0.185 HD
HETATM    4  C2  UNL     1      10.205   9.582  26.364  1.00  0.00     0.229 A
HETATM    5  N3  UNL     1      10.211   8.774  25.294  1.00  0.00    -0.198 N
HETATM    6  C4  UNL     1       9.475   9.118  24.232  1.00  0.00     0.360 A
HETATM    7  O1  UNL     1       9.437   8.397  23.185  1.00  0.00    -0.244 OA
HETATM    8  N8  UNL     1       8.760  10.251  24.270  1.00  0.00    -0.140 N
ATOM      9  H8  UNL     1       8.201  10.507  23.456  1.00  0.00     0.189 HD
ENDROOT
BRANCH   5  10
HETATM   10  N4  UNL     1      10.970   7.596  25.283  1.00  0.00    -0.261 N
HETATM   11  C3  UNL     1      12.363   7.573  25.110  1.00  0.00     0.222 C
HETATM   12  N5  UNL     1      12.868   7.582  23.761  1.00  0.00    -0.061 NA
HETATM   13  N6  UNL     1      13.235   7.546  26.041  1.00  0.00    -0.279 N
ATOM     14  H6  UNL     1      14.218   7.532  25.766  1.00  0.00     0.189 HD
ATOM     15  H4  UNL     1      10.484   6.708  25.408  1.00  0.00     0.190 HD
BRANCH  13  16
HETATM   16  N7  UNL     1      12.952   7.533  27.399  1.00  0.00    -0.343 N
ATOM     17  H72 UNL     1      12.593   8.402  27.795  1.00  0.00     0.176 HD
ATOM     18  H71 UNL     1      13.075   6.730  28.016  1.00  0.00     0.176 HD
ENDBRANCH  13  16
ENDBRANCH   5  10
BRANCH   1  19
HETATM   19  N1  UNL     1       8.081  12.153  25.418  1.00  0.00    -0.234 N
ATOM     20  H12 UNL     1       7.390  12.354  26.140  1.00  0.00     0.174 HD
ATOM     21  H11 UNL     1       8.267  12.855  24.701  1.00  0.00     0.174 HD
ENDBRANCH   1  19
TORSDOF 3
ENDMDL