MODEL 3
REMARK VINA RESULT: -6.453204098      2.165      3.701
REMARK  12 active torsions:
REMARK  status: ('A' for Active; 'I' for Inactive)
REMARK    1  A    between atoms: N1_3  and  C3_5
REMARK    2  A    between atoms: C4_8  and  N3_9
REMARK    3  A    between atoms: C5_14  and  N5_15
REMARK    4  A    between atoms: N5_15  and  C6_17
REMARK    5  A    between atoms: C6_17  and  C7_18
REMARK    6  A    between atoms: C7_18  and  C8_19
REMARK    7  A    between atoms: C8_19  and  C9_20
REMARK    8  A    between atoms: C9_20  and  C10_21
REMARK    9  A    between atoms: C10_21  and  C11_22
REMARK   10  A    between atoms: C11_22  and  C12_23
REMARK   11  A    between atoms: C12_23  and  C13_24
REMARK   12  A    between atoms: C13_24  and  C14_25
ROOT
HETATM    1  C1  UNL     1     118.966  47.177  52.553  1.00  0.00     0.037 C
HETATM    2  C2  UNL     1     117.767  47.212  52.589  1.00  0.00     0.015 C
HETATM    3  N1  UNL     1     116.372  47.270  52.644  1.00  0.00    -0.148 N
ATOM      4  H1  UNL     1     115.906  48.177  52.627  1.00  0.00     0.195 HD
ENDROOT
BRANCH   3   5
HETATM    5  C3  UNL     1     115.660  46.187  52.716  1.00  0.00     0.718 A
HETATM    6  N2  UNL     1     115.553  45.465  53.832  1.00  0.00    -0.021 N
HETATM    7  C4  UNL     1     114.801  44.362  53.828  1.00  0.00     0.705 A
ATOM      8  H2  UNL     1     116.042  45.752  54.680  1.00  0.00     0.203 HD
HETATM    9  N4  UNL     1     114.141  43.946  52.735  1.00  0.00    -0.022 N
HETATM   10  C5  UNL     1     114.233  44.667  51.580  1.00  0.00     0.707 A
ATOM     11  H4  UNL     1     113.576  43.097  52.768  1.00  0.00     0.203 HD
HETATM   12  N6  UNL     1     115.006  45.778  51.629  1.00  0.00    -0.021 N
ATOM     13  H6  UNL     1     115.093  46.337  50.780  1.00  0.00     0.203 HD
BRANCH   7  14
HETATM   14  N3  UNL     1     114.692  43.648  54.921  1.00  0.00    -0.234 N
ATOM     15  H32 UNL     1     115.016  44.059  55.796  1.00  0.00     0.174 HD
ATOM     16  H31 UNL     1     114.292  42.711  54.873  1.00  0.00     0.174 HD
ENDBRANCH   7  14
BRANCH  10  17
HETATM   17  N5  UNL     1     113.626  44.310  50.523  1.00  0.00    -0.225 N
ATOM     18  H5  UNL     1     113.355  45.066  49.894  1.00  0.00     0.177 HD
BRANCH  17  19
HETATM   19  C6  UNL     1     113.271  42.998  50.096  1.00  0.00     0.138 C
BRANCH  19  20
HETATM   20  C7  UNL     1     114.389  42.159  49.606  1.00  0.00     0.020 C
BRANCH  20  21
HETATM   21  C8  UNL     1     114.327  41.630  48.263  1.00  0.00     0.002 C
BRANCH  21  22
HETATM   22  C9  UNL     1     115.126  40.476  47.849  1.00  0.00     0.000 C
BRANCH  22  23
HETATM   23  C10 UNL     1     116.587  40.530  47.895  1.00  0.00     0.000 C
BRANCH  23  24
HETATM   24  C11 UNL     1     117.325  40.627  46.593  1.00  0.00     0.000 C
BRANCH  24  25
HETATM   25  C12 UNL     1     117.793  41.913  46.107  1.00  0.00     0.000 C
BRANCH  25  26
HETATM   26  C13 UNL     1     116.897  42.974  45.609  1.00  0.00    -0.000 C
BRANCH  26  27
HETATM   27  C14 UNL     1     116.193  42.383  44.353  1.00  0.00    -0.005 C
HETATM   28  C15 UNL     1     114.723  42.280  44.600  1.00  0.00     0.005 C
ENDBRANCH  26  27
ENDBRANCH  25  26
ENDBRANCH  24  25
ENDBRANCH  23  24
ENDBRANCH  22  23
ENDBRANCH  21  22
ENDBRANCH  20  21
ENDBRANCH  19  20
ENDBRANCH  17  19
ENDBRANCH  10  17
ENDBRANCH   3   5
TORSDOF 12
ENDMDL