MODEL 1
REMARK VINA RESULT: -6.685212234      0.000      0.000
REMARK  12 active torsions:
REMARK  status: ('A' for Active; 'I' for Inactive)
REMARK    1  A    between atoms: N1_1  and  C1_5
REMARK    2  A    between atoms: C1_5  and  C2_6
REMARK    3  A    between atoms: C1_5  and  C3_9
REMARK    4  A    between atoms: C1_5  and  C14_25
REMARK    5  A    between atoms: C2_6  and  O1_7
REMARK    6  A    between atoms: C3_9  and  N2_10
REMARK    7  A    between atoms: N2_10  and  C4_12
REMARK    8  A    between atoms: C4_12  and  C5_13
REMARK    9  A    between atoms: C5_13  and  N3_14
REMARK   10  A    between atoms: N3_14  and  C6_17
REMARK   11  A    between atoms: C6_17  and  C7_18
REMARK   12  A    between atoms: C7_18  and  C8_19
ROOT
HETATM    1  N2  UNL     1     114.624  41.964  47.948  1.00  0.00    -0.378 N
ATOM      2  H2  UNL     1     114.520  42.978  47.948  1.00  0.00     0.164 HD
ENDROOT
BRANCH   1   3
HETATM    3  C3  UNL     1     115.024  41.367  46.774  1.00  0.00     0.101 C
BRANCH   3   4
HETATM    4  C1  UNL     1     116.458  41.681  46.283  1.00  0.00     0.179 C
BRANCH   4   5
HETATM    5  N1  UNL     1     117.364  40.601  46.579  1.00  0.00    -0.063 N
ATOM      6  H13 UNL     1     118.297  40.919  46.842  1.00  0.00     0.275 HD
ATOM      7  H12 UNL     1     117.144  40.116  47.449  1.00  0.00     0.275 HD
ATOM      8  H11 UNL     1     117.362  39.987  45.765  1.00  0.00     0.275 HD
ENDBRANCH   4   5
BRANCH   4   9
HETATM    9  C2  UNL     1     116.900  42.859  47.121  1.00  0.00     0.208 C
BRANCH   9  10
HETATM   10  O1  UNL     1     116.434  44.070  46.705  1.00  0.00    -0.398 OA
ATOM     11  H1  UNL     1     116.198  44.670  47.402  1.00  0.00     0.209 HD
ENDBRANCH   9  10
ENDBRANCH   4   9
BRANCH   4  12
HETATM   12  C14 UNL     1     116.447  41.915  44.815  1.00  0.00     0.029 C
HETATM   13  C15 UNL     1     115.203  41.742  44.028  1.00  0.00     0.007 C
HETATM   14  C16 UNL     1     116.105  41.273  42.862  1.00  0.00     0.001 C
HETATM   15  C17 UNL     1     117.051  40.791  43.976  1.00  0.00     0.007 C
ENDBRANCH   4  12
ENDBRANCH   3   4
ENDBRANCH   1   3
BRANCH   1  16
HETATM   16  C4  UNL     1     114.348  41.292  49.138  1.00  0.00     0.087 C
BRANCH  16  17
HETATM   17  C5  UNL     1     113.583  42.037  50.191  1.00  0.00     0.276 C
BRANCH  17  18
HETATM   18  N3  UNL     1     113.311  43.383  49.851  1.00  0.00    -0.070 N
ATOM     19  H32 UNL     1     113.528  43.551  48.868  1.00  0.00     0.277 HD
ATOM     20  H31 UNL     1     112.305  43.549  49.841  1.00  0.00     0.277 HD
BRANCH  18  21
HETATM   21  C6  UNL     1     113.968  44.356  50.680  1.00  0.00     0.237 C
BRANCH  21  22
HETATM   22  C7  UNL     1     113.386  44.556  52.035  1.00  0.00     0.066 C
BRANCH  22  23
HETATM   23  C8  UNL     1     114.516  44.935  52.958  1.00  0.00    -0.057 A
HETATM   24  C9  UNL     1     115.286  46.063  52.731  1.00  0.00     0.007 A
HETATM   25  C10 UNL     1     116.325  46.421  53.564  1.00  0.00     0.001 A
HETATM   26  C11 UNL     1     116.609  45.637  54.651  1.00  0.00     0.000 A
HETATM   27  C12 UNL     1     115.874  44.522  54.905  1.00  0.00     0.001 A
HETATM   28  C13 UNL     1     114.836  44.178  54.061  1.00  0.00     0.007 A
ENDBRANCH  22  23
ENDBRANCH  21  22
ENDBRANCH  18  21
ENDBRANCH  17  18
ENDBRANCH  16  17
ENDBRANCH   1  16
TORSDOF 12
ENDMDL