MODEL 5
REMARK VINA RESULT: -6.520284342      1.769      2.557
REMARK  11 active torsions:
REMARK  status: ('A' for Active; 'I' for Inactive)
REMARK    1  A    between atoms: N1_1  and  C1_5
REMARK    2  A    between atoms: C1_5  and  C2_6
REMARK    3  A    between atoms: C2_6  and  C3_7
REMARK    4  A    between atoms: C3_7  and  C4_8
REMARK    5  A    between atoms: C4_8  and  C5_9
REMARK    6  A    between atoms: C5_9  and  C6_10
REMARK    7  A    between atoms: C6_10  and  C7_11
REMARK    8  A    between atoms: C7_11  and  C8_12
REMARK    9  A    between atoms: C8_12  and  N2_13
REMARK   10  A    between atoms: N2_13  and  C9_16
REMARK   11  A    between atoms: C10_17  and  O1_18
ROOT
HETATM    1  N2  UNL     1     115.082  41.809  50.443  1.00  0.00    -0.068 N
ATOM      2  H21 UNL     1     116.068  41.960  50.227  1.00  0.00     0.277 HD
ATOM      3  H22 UNL     1     115.181  40.993  51.047  1.00  0.00     0.277 HD
ENDROOT
BRANCH   1   4
HETATM    4  C8  UNL     1     114.303  41.500  49.238  1.00  0.00     0.233 C
BRANCH   4   5
HETATM    5  C7  UNL     1     115.283  40.885  48.276  1.00  0.00     0.027 C
BRANCH   5   6
HETATM    6  C6  UNL     1     116.113  41.964  47.642  1.00  0.00     0.002 C
BRANCH   6   7
HETATM    7  C5  UNL     1     117.129  41.448  46.683  1.00  0.00     0.000 C
BRANCH   7   8
HETATM    8  C4  UNL     1     117.162  42.237  45.391  1.00  0.00     0.000 C
BRANCH   8   9
HETATM    9  C3  UNL     1     117.036  41.352  44.183  1.00  0.00     0.002 C
BRANCH   9  10
HETATM   10  C2  UNL     1     115.765  41.625  43.412  1.00  0.00     0.027 C
BRANCH  10  11
HETATM   11  C1  UNL     1     115.566  40.662  42.262  1.00  0.00     0.229 C
BRANCH  11  12
HETATM   12  N1  UNL     1     114.116  40.483  42.134  1.00  0.00    -0.079 N
ATOM     13  H13 UNL     1     113.609  40.625  43.007  1.00  0.00     0.274 HD
ATOM     14  H12 UNL     1     113.659  41.225  41.603  1.00  0.00     0.274 HD
ATOM     15  H11 UNL     1     113.984  39.554  41.732  1.00  0.00     0.274 HD
ENDBRANCH  11  12
ENDBRANCH  10  11
ENDBRANCH   9  10
ENDBRANCH   8   9
ENDBRANCH   7   8
ENDBRANCH   6   7
ENDBRANCH   5   6
ENDBRANCH   4   5
ENDBRANCH   1   4
BRANCH   1  16
HETATM   16  C9  UNL     1     114.507  42.944  51.159  1.00  0.00     0.220 C
HETATM   17  C10 UNL     1     115.260  44.189  50.833  1.00  0.00     0.155 C
HETATM   18  C11 UNL     1     115.384  45.067  52.057  1.00  0.00     0.048 C
HETATM   19  C12 UNL     1     114.001  45.060  52.718  1.00  0.00     0.016 C
HETATM   20  C16 UNL     1     115.884  44.277  53.238  1.00  0.00     0.197 C
HETATM   21  C13 UNL     1     114.450  43.845  53.468  1.00  0.00     0.025 C
HETATM   22  C14 UNL     1     114.418  42.590  52.607  1.00  0.00     0.050 C
HETATM   23  C15 UNL     1     115.739  41.973  53.044  1.00  0.00     0.239 C
HETATM   24  N3  UNL     1     116.626  43.106  52.823  1.00  0.00    -0.070 N
ATOM     25  H32 UNL     1     117.531  43.011  53.285  1.00  0.00     0.277 HD
ATOM     26  H31 UNL     1     116.981  43.165  51.869  1.00  0.00     0.277 HD
BRANCH  17  27
HETATM   27  O1  UNL     1     114.602  44.975  49.857  1.00  0.00    -0.393 OA
ATOM     28  H1  UNL     1     114.756  45.905  49.979  1.00  0.00     0.210 HD
ENDBRANCH  17  27
ENDBRANCH   1  16
TORSDOF 11
ENDMDL