MODEL 4
REMARK VINA RESULT: -6.186182015      2.009      2.429
REMARK  13 active torsions:
REMARK  status: ('A' for Active; 'I' for Inactive)
REMARK    1  A    between atoms: C4_4  and  N1_5
REMARK    2  A    between atoms: N1_5  and  C5_7
REMARK    3  A    between atoms: C5_7  and  C6_8
REMARK    4  A    between atoms: C6_8  and  C7_9
REMARK    5  A    between atoms: C7_9  and  N2_10
REMARK    6  A    between atoms: N2_10  and  C8_13
REMARK    7  A    between atoms: C8_13  and  C9_14
REMARK    8  A    between atoms: C9_14  and  C10_15
REMARK    9  A    between atoms: C10_15  and  C11_16
REMARK   10  A    between atoms: C11_16  and  C12_17
REMARK   11  A    between atoms: C12_17  and  C13_18
REMARK   12  A    between atoms: C13_18  and  N3_19
REMARK   13  A    between atoms: C16_25  and  N4_26
ROOT
HETATM    1  C5  UNL     1     114.334  41.579  48.912  1.00  0.00     0.121 C
ENDROOT
BRANCH   1   2
HETATM    2  N1  UNL     1     114.876  41.442  50.246  1.00  0.00    -0.390 N
ATOM      3  H1  UNL     1     115.210  40.538  50.579  1.00  0.00     0.159 HD
BRANCH   2   4
HETATM    4  C4  UNL     1     114.929  42.470  50.998  1.00  0.00     0.029 C
HETATM    5  C3  UNL     1     115.224  42.275  52.327  1.00  0.00     0.053 C
HETATM    6  C2  UNL     1     115.059  43.150  53.410  1.00  0.00     0.009 C
HETATM    7  C1  UNL     1     114.806  42.557  54.745  1.00  0.00     0.068 C
HETATM    8  N5  UNL     1     115.105  44.509  53.366  1.00  0.00    -0.347 N
HETATM    9  C16 UNL     1     115.056  45.347  52.292  1.00  0.00     0.098 C
ATOM     10  H5  UNL     1     115.189  44.969  54.273  1.00  0.00     0.167 HD
HETATM   11  C15 UNL     1     114.872  44.974  50.979  1.00  0.00     0.050 C
HETATM   12  C14 UNL     1     114.686  43.711  50.414  1.00  0.00     0.033 C
BRANCH   9  13
HETATM   13  N4  UNL     1     115.197  46.609  52.568  1.00  0.00    -0.385 N
ATOM     14  H42 UNL     1     116.088  47.018  52.287  1.00  0.00     0.157 HD
ATOM     15  H41 UNL     1     114.432  47.096  53.035  1.00  0.00     0.157 HD
ENDBRANCH   9  13
ENDBRANCH   2   4
ENDBRANCH   1   2
BRANCH   1  16
HETATM   16  C6  UNL     1     115.070  40.680  47.931  1.00  0.00     0.047 C
BRANCH  16  17
HETATM   17  C7  UNL     1     115.654  41.569  46.858  1.00  0.00     0.234 C
BRANCH  17  18
HETATM   18  N2  UNL     1     114.662  42.022  45.906  1.00  0.00    -0.075 N
ATOM     19  H22 UNL     1     113.946  41.319  45.728  1.00  0.00     0.277 HD
ATOM     20  H21 UNL     1     114.057  42.748  46.291  1.00  0.00     0.277 HD
BRANCH  18  21
HETATM   21  C8  UNL     1     115.329  42.446  44.698  1.00  0.00     0.232 C
BRANCH  21  22
HETATM   22  C9  UNL     1     116.644  41.753  44.580  1.00  0.00     0.027 C
BRANCH  22  23
HETATM   23  C10 UNL     1     116.702  40.898  43.366  1.00  0.00     0.002 C
BRANCH  23  24
HETATM   24  C11 UNL     1     115.396  41.045  42.586  1.00  0.00     0.002 C
BRANCH  24  25
HETATM   25  C12 UNL     1     115.357  39.993  41.489  1.00  0.00     0.027 C
BRANCH  25  26
HETATM   26  C13 UNL     1     113.949  39.988  40.914  1.00  0.00     0.229 C
BRANCH  26  27
HETATM   27  N3  UNL     1     113.065  39.286  41.819  1.00  0.00    -0.079 N
ATOM     28  H33 UNL     1     113.446  39.226  42.763  1.00  0.00     0.274 HD
ATOM     29  H32 UNL     1     112.227  39.825  42.036  1.00  0.00     0.274 HD
ATOM     30  H31 UNL     1     112.846  38.369  41.431  1.00  0.00     0.274 HD
ENDBRANCH  26  27
ENDBRANCH  25  26
ENDBRANCH  24  25
ENDBRANCH  23  24
ENDBRANCH  22  23
ENDBRANCH  21  22
ENDBRANCH  18  21
ENDBRANCH  17  18
ENDBRANCH  16  17
ENDBRANCH   1  16
TORSDOF 13
ENDMDL