MODEL 4
REMARK VINA RESULT: -6.180217016      1.074      1.518
REMARK  10 active torsions:
REMARK  status: ('A' for Active; 'I' for Inactive)
REMARK    1  A    between atoms: C5_7  and  C6_8
REMARK    2  A    between atoms: C6_8  and  C7_9
REMARK    3  A    between atoms: C7_9  and  C8_10
REMARK    4  A    between atoms: C8_10  and  N2_11
REMARK    5  A    between atoms: N2_11  and  C9_13
REMARK    6  A    between atoms: C9_13  and  C10_14
REMARK    7  A    between atoms: C10_14  and  C11_15
REMARK    8  A    between atoms: C11_15  and  N3_16
REMARK    9  A    between atoms: N3_16  and  C12_18
REMARK   10  A    between atoms: C12_18  and  C13_19
ROOT
HETATM    1  C9  UNL     1     113.381  42.371  49.761  1.00  0.00     0.061 C
ENDROOT
BRANCH   1   2
HETATM    2  N2  UNL     1     113.062  43.703  50.074  1.00  0.00    -0.382 N
ATOM      3  H2  UNL     1     112.189  44.101  49.728  1.00  0.00     0.163 HD
BRANCH   2   4
HETATM    4  C8  UNL     1     113.913  44.490  50.846  1.00  0.00     0.060 C
BRANCH   4   5
HETATM    5  C7  UNL     1     113.695  44.564  52.317  1.00  0.00     0.049 C
BRANCH   5   6
HETATM    6  C6  UNL     1     115.080  44.361  52.950  1.00  0.00     0.045 C
BRANCH   6   7
HETATM    7  C5  UNL     1     115.023  43.638  54.223  1.00  0.00    -0.034 A
HETATM    8  C2  UNL     1     115.194  42.278  54.321  1.00  0.00     0.011 A
HETATM    9  C1  UNL     1     115.469  41.331  53.202  1.00  0.00     0.068 C
HETATM   10  N1  UNL     1     115.073  41.932  55.635  1.00  0.00    -0.369 N
HETATM   11  C3  UNL     1     114.831  43.059  56.339  1.00  0.00     0.088 A
ATOM     12  H1  UNL     1     115.153  40.990  56.017  1.00  0.00     0.165 HD
HETATM   13  C4  UNL     1     114.796  44.125  55.487  1.00  0.00     0.026 A
ENDBRANCH   6   7
ENDBRANCH   5   6
ENDBRANCH   4   5
ENDBRANCH   2   4
ENDBRANCH   1   2
BRANCH   1  14
HETATM   14  C10 UNL     1     114.875  42.188  49.647  1.00  0.00     0.063 C
BRANCH  14  15
HETATM   15  C11 UNL     1     115.123  40.894  48.913  1.00  0.00     0.119 C
BRANCH  15  16
HETATM   16  N3  UNL     1     116.459  40.772  48.455  1.00  0.00    -0.418 N
ATOM     17  H3  UNL     1     117.260  40.880  49.077  1.00  0.00     0.153 HD
BRANCH  16  18
HETATM   18  C12 UNL     1     116.609  40.485  47.046  1.00  0.00     0.147 C
BRANCH  18  19
HETATM   19  C13 UNL     1     117.510  41.524  46.404  1.00  0.00     0.164 C
HETATM   20  C14 UNL     1     116.798  42.851  46.394  1.00  0.00     0.265 C
HETATM   21  N4  UNL     1     115.779  42.930  45.377  1.00  0.00    -0.071 N
HETATM   22  C15 UNL     1     116.397  42.634  44.103  1.00  0.00     0.258 C
ATOM     23  H42 UNL     1     114.976  42.333  45.575  1.00  0.00     0.277 HD
ATOM     24  H41 UNL     1     115.287  43.824  45.380  1.00  0.00     0.277 HD
HETATM   25  C16 UNL     1     116.925  41.214  44.188  1.00  0.00     0.196 C
HETATM   26  O1  UNL     1     117.935  41.109  45.144  1.00  0.00    -0.381 OA
ENDBRANCH  18  19
ENDBRANCH  16  18
ENDBRANCH  15  16
ENDBRANCH  14  15
ENDBRANCH   1  14
TORSDOF 10
ENDMDL