MODEL 5
REMARK VINA RESULT: -6.196185689      1.468      7.176
REMARK  13 active torsions:
REMARK  status: ('A' for Active; 'I' for Inactive)
REMARK    1  A    between atoms: N1_1  and  C1_5
REMARK    2  A    between atoms: C1_5  and  C2_6
REMARK    3  A    between atoms: C2_6  and  C3_7
REMARK    4  A    between atoms: C3_7  and  C4_8
REMARK    5  A    between atoms: C4_8  and  C5_9
REMARK    6  A    between atoms: C5_9  and  N2_10
REMARK    7  A    between atoms: N2_10  and  C6_13
REMARK    8  A    between atoms: C6_13  and  C7_14
REMARK    9  A    between atoms: C7_14  and  C8_15
REMARK   10  A    between atoms: C8_15  and  C9_16
REMARK   11  A    between atoms: C9_16  and  N3_17
REMARK   12  A    between atoms: N3_17  and  C10_20
REMARK   13  A    between atoms: C16_26  and  N4_27
ROOT
HETATM    1  C8  UNL     1     114.697  41.998  49.429  1.00  0.00     0.029 C
ENDROOT
BRANCH   1   2
HETATM    2  C7  UNL     1     114.437  41.277  48.131  1.00  0.00     0.029 C
BRANCH   2   3
HETATM    3  C6  UNL     1     115.398  40.166  47.857  1.00  0.00     0.232 C
BRANCH   3   4
HETATM    4  N2  UNL     1     116.750  40.727  47.918  1.00  0.00    -0.075 N
ATOM      5  H22 UNL     1     117.305  40.281  48.649  1.00  0.00     0.277 HD
ATOM      6  H21 UNL     1     116.742  41.678  48.284  1.00  0.00     0.277 HD
BRANCH   4   7
HETATM    7  C5  UNL     1     117.408  40.659  46.644  1.00  0.00     0.232 C
BRANCH   7   8
HETATM    8  C4  UNL     1     117.945  42.034  46.231  1.00  0.00     0.027 C
BRANCH   8   9
HETATM    9  C3  UNL     1     116.912  42.879  45.557  1.00  0.00     0.003 C
BRANCH   9  10
HETATM   10  C2  UNL     1     116.539  42.293  44.238  1.00  0.00     0.027 C
BRANCH  10  11
HETATM   11  C1  UNL     1     115.064  42.021  44.182  1.00  0.00     0.229 C
BRANCH  11  12
HETATM   12  N1  UNL     1     114.301  43.148  44.704  1.00  0.00    -0.079 N
ATOM     13  H13 UNL     1     114.805  44.028  44.590  1.00  0.00     0.274 HD
ATOM     14  H12 UNL     1     113.492  43.356  44.119  1.00  0.00     0.274 HD
ATOM     15  H11 UNL     1     114.032  42.993  45.675  1.00  0.00     0.274 HD
ENDBRANCH  11  12
ENDBRANCH  10  11
ENDBRANCH   9  10
ENDBRANCH   8   9
ENDBRANCH   7   8
ENDBRANCH   4   7
ENDBRANCH   3   4
ENDBRANCH   2   3
ENDBRANCH   1   2
BRANCH   1  16
HETATM   16  C9  UNL     1     113.439  42.709  49.866  1.00  0.00     0.233 C
BRANCH  16  17
HETATM   17  N3  UNL     1     113.760  43.821  50.749  1.00  0.00    -0.068 N
ATOM     18  H32 UNL     1     113.938  44.683  50.234  1.00  0.00     0.277 HD
ATOM     19  H31 UNL     1     112.948  44.135  51.283  1.00  0.00     0.277 HD
BRANCH  17  20
HETATM   20  C10 UNL     1     114.840  43.467  51.582  1.00  0.00     0.224 C
HETATM   21  C11 UNL     1     114.525  43.015  52.965  1.00  0.00     0.041 C
HETATM   22  C12 UNL     1     115.704  42.229  53.426  1.00  0.00    -0.023 C
HETATM   23  C15 UNL     1     114.784  44.329  53.732  1.00  0.00     0.021 C
HETATM   24  C13 UNL     1     116.698  43.104  53.547  1.00  0.00    -0.023 C
HETATM   25  C14 UNL     1     116.214  44.466  53.176  1.00  0.00     0.041 C
HETATM   26  C16 UNL     1     115.880  44.591  51.714  1.00  0.00     0.222 C
BRANCH  26  27
HETATM   27  N4  UNL     1     115.271  45.893  51.522  1.00  0.00    -0.072 N
ATOM     28  H43 UNL     1     115.970  46.636  51.515  1.00  0.00     0.274 HD
ATOM     29  H42 UNL     1     114.916  46.005  50.573  1.00  0.00     0.274 HD
ATOM     30  H41 UNL     1     114.546  46.066  52.217  1.00  0.00     0.274 HD
ENDBRANCH  26  27
ENDBRANCH  17  20
ENDBRANCH  16  17
ENDBRANCH   1  16
TORSDOF 13
ENDMDL