MODEL 5
REMARK VINA RESULT: -6.085825647      1.029      1.329
REMARK  12 active torsions:
REMARK  status: ('A' for Active; 'I' for Inactive)
REMARK    1  A    between atoms: N1_1  and  C1_4
REMARK    2  A    between atoms: N2_7  and  C4_8
REMARK    3  A    between atoms: C4_8  and  C5_9
REMARK    4  A    between atoms: C5_9  and  N3_10
REMARK    5  A    between atoms: N3_10  and  C6_12
REMARK    6  A    between atoms: C6_12  and  C7_13
REMARK    7  A    between atoms: C7_13  and  C8_14
REMARK    8  A    between atoms: C8_14  and  N4_15
REMARK    9  A    between atoms: N4_15  and  C9_18
REMARK   10  A    between atoms: C9_18  and  C10_19
REMARK   11  A    between atoms: C10_19  and  C11_20
REMARK   12  A    between atoms: C11_20  and  N5_21
ROOT
HETATM    1  C5  UNL     1     113.539  42.548  50.189  1.00  0.00     0.080 C
ENDROOT
BRANCH   1   2
HETATM    2  C4  UNL     1     114.532  42.330  51.259  1.00  0.00     0.172 C
BRANCH   2   3
HETATM    3  N2  UNL     1     114.932  43.459  52.039  1.00  0.00    -0.351 N
HETATM    4  C3  UNL     1     115.227  44.648  51.459  1.00  0.00     0.094 A
HETATM    5  C2  UNL     1     115.667  45.745  52.137  1.00  0.00     0.047 A
HETATM    6  C1  UNL     1     115.838  45.691  53.506  1.00  0.00     0.039 A
HETATM    7  C17 UNL     1     115.537  44.483  54.097  1.00  0.00     0.017 A
HETATM    8  C12 UNL     1     115.085  43.379  53.355  1.00  0.00     0.047 A
HETATM    9  C16 UNL     1     115.674  44.401  55.474  1.00  0.00     0.016 A
HETATM   10  C13 UNL     1     114.803  42.257  54.105  1.00  0.00     0.030 A
HETATM   11  C14 UNL     1     114.934  42.159  55.469  1.00  0.00     0.002 A
HETATM   12  C15 UNL     1     115.377  43.256  56.157  1.00  0.00     0.001 A
BRANCH   6  13
HETATM   13  N1  UNL     1     116.255  46.709  54.182  1.00  0.00    -0.398 N
ATOM     14  H12 UNL     1     116.947  46.626  54.927  1.00  0.00     0.156 HD
ATOM     15  H11 UNL     1     115.912  47.652  54.003  1.00  0.00     0.156 HD
ENDBRANCH   6  13
ENDBRANCH   2   3
ENDBRANCH   1   2
BRANCH   1  16
HETATM   16  N3  UNL     1     113.771  42.333  48.847  1.00  0.00    -0.381 N
ATOM     17  H3  UNL     1     113.262  42.905  48.174  1.00  0.00     0.164 HD
BRANCH  16  18
HETATM   18  C6  UNL     1     114.664  41.375  48.357  1.00  0.00     0.062 C
BRANCH  18  19
HETATM   19  C7  UNL     1     116.006  41.925  47.902  1.00  0.00     0.072 C
BRANCH  19  20
HETATM   20  C8  UNL     1     116.765  40.735  47.352  1.00  0.00     0.237 C
BRANCH  20  21
HETATM   21  N4  UNL     1     117.339  40.944  46.062  1.00  0.00    -0.075 N
ATOM     22  H42 UNL     1     118.314  40.647  46.045  1.00  0.00     0.277 HD
ATOM     23  H41 UNL     1     116.953  40.290  45.382  1.00  0.00     0.277 HD
BRANCH  21  24
HETATM   24  C9  UNL     1     117.206  42.310  45.598  1.00  0.00     0.233 C
BRANCH  24  25
HETATM   25  C10 UNL     1     116.630  42.316  44.206  1.00  0.00     0.055 C
BRANCH  25  26
HETATM   26  C11 UNL     1     115.145  42.006  44.220  1.00  0.00     0.231 C
BRANCH  26  27
HETATM   27  N5  UNL     1     114.360  43.107  44.713  1.00  0.00    -0.079 N
ATOM     28  H53 UNL     1     113.450  43.144  44.256  1.00  0.00     0.274 HD
ATOM     29  H52 UNL     1     114.054  42.940  45.672  1.00  0.00     0.274 HD
ATOM     30  H51 UNL     1     114.850  43.999  44.632  1.00  0.00     0.274 HD
ENDBRANCH  26  27
ENDBRANCH  25  26
ENDBRANCH  24  25
ENDBRANCH  21  24
ENDBRANCH  20  21
ENDBRANCH  19  20
ENDBRANCH  18  19
ENDBRANCH  16  18
ENDBRANCH   1  16
TORSDOF 12
ENDMDL