MODEL 2
REMARK VINA RESULT: -6.032354435      2.115      2.877
REMARK  10 active torsions:
REMARK  status: ('A' for Active; 'I' for Inactive)
REMARK    1  A    between atoms: C3_5  and  C4_6
REMARK    2  A    between atoms: C4_6  and  N2_7
REMARK    3  A    between atoms: N2_7  and  C5_10
REMARK    4  A    between atoms: C5_10  and  C6_11
REMARK    5  A    between atoms: C6_11  and  C7_12
REMARK    6  A    between atoms: C7_12  and  N3_13
REMARK    7  A    between atoms: N3_13  and  C8_15
REMARK    8  A    between atoms: C8_15  and  C9_16
REMARK    9  A    between atoms: C9_16  and  C10_17
REMARK   10  A    between atoms: C10_17  and  N4_18
ROOT
HETATM    1  C7  UNL     1     113.332  42.486  49.681  1.00  0.00     0.120 C
ENDROOT
BRANCH   1   2
HETATM    2  C6  UNL     1     114.760  41.982  49.908  1.00  0.00     0.047 C
BRANCH   2   3
HETATM    3  C5  UNL     1     115.134  40.961  48.922  1.00  0.00     0.234 C
BRANCH   3   4
HETATM    4  N2  UNL     1     116.328  41.074  48.185  1.00  0.00    -0.070 N
ATOM      5  H22 UNL     1     116.375  40.385  47.435  1.00  0.00     0.277 HD
ATOM      6  H21 UNL     1     117.136  40.767  48.726  1.00  0.00     0.277 HD
BRANCH   4   7
HETATM    7  C4  UNL     1     116.500  42.457  47.673  1.00  0.00     0.289 C
BRANCH   7   8
HETATM    8  C3  UNL     1     116.214  42.324  46.197  1.00  0.00     0.034 A
HETATM    9  N1  UNL     1     114.959  42.276  45.712  1.00  0.00    -0.368 N
HETATM   10  C2  UNL     1     114.955  42.067  44.406  1.00  0.00     0.088 A
ATOM     11  H1  UNL     1     114.119  42.387  46.280  1.00  0.00     0.165 HD
HETATM   12  C1  UNL     1     116.297  41.975  43.989  1.00  0.00     0.019 A
HETATM   13  C15 UNL     1     117.042  42.147  45.146  1.00  0.00     0.028 A
ENDBRANCH   7   8
ENDBRANCH   4   7
ENDBRANCH   3   4
ENDBRANCH   2   3
ENDBRANCH   1   2
BRANCH   1  14
HETATM   14  N3  UNL     1     113.212  43.824  50.159  1.00  0.00    -0.402 N
ATOM     15  H3  UNL     1     112.385  44.376  49.931  1.00  0.00     0.158 HD
BRANCH  14  16
HETATM   16  C8  UNL     1     114.228  44.380  50.940  1.00  0.00     0.057 C
BRANCH  16  17
HETATM   17  C9  UNL     1     113.888  44.772  52.350  1.00  0.00     0.074 C
BRANCH  17  18
HETATM   18  C10 UNL     1     115.098  44.915  53.217  1.00  0.00     0.277 C
BRANCH  18  19
HETATM   19  N4  UNL     1     116.013  45.939  52.717  1.00  0.00     0.092 N
HETATM   20  C11 UNL     1     116.343  46.776  53.875  1.00  0.00     0.300 C
HETATM   21  C12 UNL     1     116.927  48.056  53.344  1.00  0.00     0.262 C
HETATM   22  N5  UNL     1     117.860  47.711  52.316  1.00  0.00    -0.072 N
HETATM   23  C13 UNL     1     118.354  46.374  52.458  1.00  0.00     0.262 C
ATOM     24  H52 UNL     1     117.459  47.860  51.389  1.00  0.00     0.277 HD
ATOM     25  H51 UNL     1     118.626  48.384  52.271  1.00  0.00     0.277 HD
HETATM   26  C14 UNL     1     117.300  45.318  52.352  1.00  0.00     0.300 C
ENDBRANCH  18  19
ENDBRANCH  17  18
ENDBRANCH  16  17
ENDBRANCH  14  16
ENDBRANCH   1  14
TORSDOF 10
ENDMDL