MODEL 1
REMARK VINA RESULT: -6.343552347      0.000      0.000
REMARK  10 active torsions:
REMARK  status: ('A' for Active; 'I' for Inactive)
REMARK    1  A    between atoms: C2_2  and  C3_3
REMARK    2  A    between atoms: C3_3  and  C4_4
REMARK    3  A    between atoms: C4_4  and  C5_5
REMARK    4  A    between atoms: C5_5  and  C6_6
REMARK    5  A    between atoms: C6_6  and  N1_7
REMARK    6  A    between atoms: C10_16  and  C11_17
REMARK    7  A    between atoms: C11_17  and  C12_18
REMARK    8  A    between atoms: C12_18  and  N4_19
REMARK    9  A    between atoms: N4_19  and  C13_22
REMARK   10  A    between atoms: C13_22  and  C14_23
ROOT
HETATM    1  N1  UNL     1     115.015  42.534  51.905  1.00  0.00     0.102 N
HETATM    2  C7  UNL     1     114.759  43.853  52.378  1.00  0.00     0.293 C
HETATM    3  C8  UNL     1     115.138  44.838  51.294  1.00  0.00     0.151 C
HETATM    4  N2  UNL     1     114.139  44.640  50.232  1.00  0.00    -0.377 N
ATOM      5  H2  UNL     1     113.841  45.396  49.614  1.00  0.00     0.160 HD
HETATM    6  C9  UNL     1     113.625  43.331  50.128  1.00  0.00     0.104 C
HETATM    7  N3  UNL     1     112.494  43.131  49.572  1.00  0.00    -0.387 N
ATOM      8  H31 UNL     1     112.122  42.184  49.497  1.00  0.00     0.157 HD
ATOM      9  H32 UNL     1     111.957  43.915  49.204  1.00  0.00     0.157 HD
HETATM   10  C10 UNL     1     114.402  42.195  50.662  1.00  0.00     0.290 C
ENDROOT
BRANCH  10  11
HETATM   11  C11 UNL     1     115.492  41.911  49.654  1.00  0.00     0.071 C
BRANCH  11  12
HETATM   12  C12 UNL     1     115.125  40.868  48.638  1.00  0.00     0.235 C
BRANCH  12  13
HETATM   13  N4  UNL     1     114.886  41.564  47.373  1.00  0.00    -0.075 N
ATOM     14  H42 UNL     1     114.356  40.992  46.717  1.00  0.00     0.277 HD
ATOM     15  H41 UNL     1     114.219  42.329  47.478  1.00  0.00     0.277 HD
BRANCH  13  16
HETATM   16  C13 UNL     1     116.131  42.009  46.813  1.00  0.00     0.240 C
BRANCH  16  17
HETATM   17  C14 UNL     1     116.053  42.441  45.397  1.00  0.00     0.062 C
HETATM   18  C15 UNL     1     116.709  41.613  44.351  1.00  0.00     0.240 C
HETATM   19  N5  UNL     1     115.570  41.843  43.482  1.00  0.00    -0.074 N
HETATM   20  C16 UNL     1     114.786  42.175  44.657  1.00  0.00     0.240 C
ATOM     21  H52 UNL     1     115.637  42.494  42.701  1.00  0.00     0.277 HD
ATOM     22  H51 UNL     1     115.256  41.120  42.835  1.00  0.00     0.277 HD
ENDBRANCH  16  17
ENDBRANCH  13  16
ENDBRANCH  12  13
ENDBRANCH  11  12
ENDBRANCH  10  11
BRANCH   1  23
HETATM   23  C6  UNL     1     114.899  41.516  52.917  1.00  0.00     0.273 C
BRANCH  23  24
HETATM   24  C5  UNL     1     116.210  41.199  53.601  1.00  0.00     0.030 C
BRANCH  24  25
HETATM   25  C4  UNL     1     116.628  39.820  53.135  1.00  0.00     0.002 C
BRANCH  25  26
HETATM   26  C3  UNL     1     116.251  38.755  54.139  1.00  0.00    -0.000 C
BRANCH  26  27
HETATM   27  C2  UNL     1     117.413  38.446  55.055  1.00  0.00    -0.005 C
HETATM   28  C1  UNL     1     116.994  38.717  56.483  1.00  0.00     0.005 C
ENDBRANCH  26  27
ENDBRANCH  25  26
ENDBRANCH  24  25
ENDBRANCH  23  24
ENDBRANCH   1  23
TORSDOF 10
ENDMDL