MODEL 2
REMARK VINA RESULT: -5.809083762      1.213      1.898
REMARK  14 active torsions:
REMARK  status: ('A' for Active; 'I' for Inactive)
REMARK    1  A    between atoms: C2_2  and  N1_3
REMARK    2  A    between atoms: N1_3  and  C3_4
REMARK    3  A    between atoms: N1_3  and  C5_10
REMARK    4  A    between atoms: C3_4  and  C4_5
REMARK    5  A    between atoms: C4_5  and  N2_6
REMARK    6  A    between atoms: C5_10  and  C6_11
REMARK    7  A    between atoms: C6_11  and  C7_12
REMARK    8  A    between atoms: C7_12  and  C8_13
REMARK    9  A    between atoms: C8_13  and  C9_14
REMARK   10  A    between atoms: C9_14  and  C10_15
REMARK   11  A    between atoms: C10_15  and  C11_16
REMARK   12  A    between atoms: C11_16  and  N3_17
REMARK   13  A    between atoms: N3_17  and  C12_19
REMARK   14  A    between atoms: C15_26  and  N6_27
ROOT
HETATM    1  C10 UNL     1     115.848  41.319  47.957  1.00  0.00     0.020 C
ENDROOT
BRANCH   1   2
HETATM    2  C9  UNL     1     114.397  41.418  48.303  1.00  0.00     0.002 C
BRANCH   2   3
HETATM    3  C8  UNL     1     114.144  41.659  49.758  1.00  0.00     0.000 C
BRANCH   3   4
HETATM    4  C7  UNL     1     113.278  42.836  50.046  1.00  0.00     0.002 C
BRANCH   4   5
HETATM    5  C6  UNL     1     114.008  44.055  50.530  1.00  0.00     0.030 C
BRANCH   5   6
HETATM    6  C5  UNL     1     113.599  44.337  51.950  1.00  0.00     0.272 C
BRANCH   6   7
HETATM    7  N1  UNL     1     114.685  44.513  52.880  1.00  0.00     0.089 N
BRANCH   7   8
HETATM    8  C2  UNL     1     115.169  45.873  52.839  1.00  0.00     0.268 C
HETATM    9  C1  UNL     1     116.619  45.948  52.451  1.00  0.00     0.037 C
ENDBRANCH   7   8
BRANCH   7  10
HETATM   10  C3  UNL     1     115.705  43.524  52.811  1.00  0.00     0.299 C
BRANCH  10  11
HETATM   11  C4  UNL     1     115.341  42.186  53.384  1.00  0.00     0.259 C
BRANCH  11  12
HETATM   12  N2  UNL     1     116.078  41.077  52.824  1.00  0.00    -0.078 N
ATOM     13  H23 UNL     1     117.021  41.370  52.565  1.00  0.00     0.274 HD
ATOM     14  H22 UNL     1     116.301  40.395  53.549  1.00  0.00     0.274 HD
ATOM     15  H21 UNL     1     115.618  40.622  52.035  1.00  0.00     0.274 HD
ENDBRANCH  11  12
ENDBRANCH  10  11
ENDBRANCH   7  10
ENDBRANCH   6   7
ENDBRANCH   5   6
ENDBRANCH   4   5
ENDBRANCH   3   4
ENDBRANCH   2   3
ENDBRANCH   1   2
BRANCH   1  16
HETATM   16  C11 UNL     1     116.536  42.636  47.735  1.00  0.00     0.121 C
BRANCH  16  17
HETATM   17  N3  UNL     1     116.278  43.050  46.375  1.00  0.00    -0.373 N
ATOM     18  H3  UNL     1     116.027  44.028  46.234  1.00  0.00     0.161 HD
BRANCH  17  19
HETATM   19  C12 UNL     1     116.332  42.317  45.337  1.00  0.00     0.145 A
HETATM   20  N4  UNL     1     117.345  41.488  45.041  1.00  0.00    -0.348 N
HETATM   21  C13 UNL     1     117.319  40.738  43.910  1.00  0.00     0.107 A
ATOM     22  H4  UNL     1     118.143  41.421  45.672  1.00  0.00     0.167 HD
HETATM   23  C14 UNL     1     116.271  40.787  43.020  1.00  0.00     0.107 A
HETATM   24  N5  UNL     1     115.252  41.614  43.310  1.00  0.00    -0.348 N
HETATM   25  C15 UNL     1     115.272  42.360  44.428  1.00  0.00     0.143 A
ATOM     26  H5  UNL     1     114.457  41.677  42.674  1.00  0.00     0.167 HD
BRANCH  25  27
HETATM   27  N6  UNL     1     114.285  43.163  44.707  1.00  0.00    -0.382 N
ATOM     28  H62 UNL     1     113.914  43.219  45.656  1.00  0.00     0.157 HD
ATOM     29  H61 UNL     1     113.910  43.720  43.940  1.00  0.00     0.157 HD
ENDBRANCH  25  27
ENDBRANCH  17  19
ENDBRANCH  16  17
ENDBRANCH   1  16
TORSDOF 14
ENDMDL