MODEL 3
REMARK VINA RESULT: -7.415956219      2.143      7.508
REMARK  9 active torsions:
REMARK  status: ('A' for Active; 'I' for Inactive)
REMARK    1  A    between atoms: C2_2  and  C3_3
REMARK    2  A    between atoms: C2_2  and  C23_35
REMARK    3  A    between atoms: C3_3  and  N1_4
REMARK    4  A    between atoms: N1_4  and  C4_7
REMARK    5  A    between atoms: C4_7  and  C5_8
REMARK    6  A    between atoms: C4_7  and  C19_31
REMARK       I    between atoms: C5_8  and  N2_10
REMARK    7  A    between atoms: N2_10  and  C6_12
REMARK    8  A    between atoms: C13_22  and  C14_23
REMARK       I    between atoms: C14_23  and  N4_25
REMARK    9  A    between atoms: N4_25  and  C15_27
ROOT
HETATM    1  C6  UNL     1     -45.250 -50.180  -9.585  1.00  0.00     0.179 C
HETATM    2  C7  UNL     1     -45.988 -51.300  -8.882  1.00  0.00     0.069 C
HETATM    3  C8  UNL     1     -45.711 -52.685  -9.283  1.00  0.00     0.147 C
HETATM    4  O2  UNL     1     -46.531 -53.192 -10.303  1.00  0.00    -0.376 OA
HETATM    5  C9  UNL     1     -45.813 -53.964 -11.185  1.00  0.00     0.156 C
HETATM    6  C10 UNL     1     -44.537 -54.271 -10.379  1.00  0.00     0.062 C
HETATM    7  C11 UNL     1     -44.356 -52.817 -10.013  1.00  0.00     0.120 C
HETATM    8  N3  UNL     1     -44.754 -52.024 -11.213  1.00  0.00    -0.327 N
HETATM    9  C12 UNL     1     -44.747 -50.643 -10.935  1.00  0.00     0.244 C
HETATM   10  O3  UNL     1     -44.332 -49.860 -11.805  1.00  0.00    -0.271 OA
HETATM   11  C13 UNL     1     -45.085 -53.001 -12.195  1.00  0.00     0.208 C
ENDROOT
BRANCH   1  12
HETATM   12  N2  UNL     1     -44.260 -49.553  -8.786  1.00  0.00    -0.346 N
HETATM   13  C5  UNL     1     -44.289 -48.149  -8.521  1.00  0.00     0.250 C
HETATM   14  O1  UNL     1     -45.251 -47.503  -9.039  1.00  0.00    -0.271 OA
ATOM     15  H2  UNL     1     -43.508 -50.118  -8.392  1.00  0.00     0.163 HD
BRANCH  13  16
HETATM   16  C4  UNL     1     -43.303 -47.447  -7.707  1.00  0.00     0.284 C
BRANCH  16  17
HETATM   17  N1  UNL     1     -42.000 -47.534  -8.384  1.00  0.00    -0.061 N
ATOM     18  H12 UNL     1     -41.962 -48.332  -9.018  1.00  0.00     0.278 HD
ATOM     19  H11 UNL     1     -41.262 -47.809  -7.737  1.00  0.00     0.278 HD
BRANCH  17  20
HETATM   20  C3  UNL     1     -41.675 -46.311  -9.060  1.00  0.00     0.238 C
BRANCH  20  21
HETATM   21  C2  UNL     1     -41.598 -46.604 -10.556  1.00  0.00     0.014 C
HETATM   22  C1  UNL     1     -41.445 -48.082 -10.812  1.00  0.00     0.012 C
BRANCH  21  23
HETATM   23  C23 UNL     1     -40.431 -45.792 -11.129  1.00  0.00    -0.047 C
HETATM   24  C24 UNL     1     -39.811 -45.056  -9.938  1.00  0.00     0.015 C
HETATM   25  C25 UNL     1     -41.002 -44.751 -12.066  1.00  0.00     0.015 C
HETATM   26  C26 UNL     1     -39.403 -46.677 -11.783  1.00  0.00     0.015 C
ENDBRANCH  21  23
ENDBRANCH  20  21
ENDBRANCH  17  20
ENDBRANCH  16  17
BRANCH  16  27
HETATM   27  C19 UNL     1     -43.087 -48.051  -6.344  1.00  0.00    -0.014 C
HETATM   28  C20 UNL     1     -42.648 -49.501  -6.477  1.00  0.00     0.017 C
HETATM   29  C21 UNL     1     -44.308 -47.975  -5.466  1.00  0.00     0.017 C
HETATM   30  C22 UNL     1     -41.971 -47.365  -5.585  1.00  0.00     0.017 C
ENDBRANCH  16  27
ENDBRANCH  13  16
ENDBRANCH   1  12
BRANCH  11  31
HETATM   31  C14 UNL     1     -43.962 -53.635 -12.859  1.00  0.00     0.243 C
HETATM   32  O4  UNL     1     -42.823 -53.113 -12.881  1.00  0.00    -0.271 OA
HETATM   33  N4  UNL     1     -44.085 -54.879 -13.518  1.00  0.00    -0.355 N
ATOM     34  H4  UNL     1     -45.009 -55.309 -13.508  1.00  0.00     0.162 HD
BRANCH  33  35
HETATM   35  C15 UNL     1     -43.053 -55.597 -14.198  1.00  0.00     0.084 C
HETATM   36  C16 UNL     1     -43.053 -55.209 -15.675  1.00  0.00     0.025 C
HETATM   37  C17 UNL     1     -44.077 -56.331 -15.866  1.00  0.00     0.004 C
HETATM   38  C18 UNL     1     -43.438 -56.991 -14.664  1.00  0.00     0.025 C
ENDBRANCH  33  35
ENDBRANCH  11  31
TORSDOF 9
ENDMDL