MODEL 3
REMARK VINA RESULT: -8.964635675      0.778      1.360
REMARK  6 active torsions:
REMARK  status: ('A' for Active; 'I' for Inactive)
REMARK    1  A    between atoms: C5_5  and  C6_6
REMARK    2  A    between atoms: C6_6  and  C7_7
REMARK    3  A    between atoms: C7_7  and  C8_9
REMARK       I    between atoms: C8_9  and  N1_11
REMARK    4  A    between atoms: N1_11  and  C9_13
REMARK    5  A    between atoms: C15_19  and  C16_20
REMARK       I    between atoms: C16_20  and  N2_22
REMARK    6  A    between atoms: C21_27  and  C22_28
ROOT
HETATM    1  C9  UNL     1     -43.994 -51.774  -9.852  1.00  0.00     0.179 C
HETATM    2  C10 UNL     1     -42.949 -51.950 -10.970  1.00  0.00     0.060 C
HETATM    3  C11 UNL     1     -42.117 -50.678 -10.745  1.00  0.00     0.090 C
HETATM    4  C12 UNL     1     -41.156 -50.449 -11.861  1.00  0.00     0.026 C
HETATM    5  C13 UNL     1     -40.848 -48.972 -11.941  1.00  0.00     0.004 C
HETATM    6  C14 UNL     1     -42.182 -48.284 -12.256  1.00  0.00     0.035 C
HETATM    7  C15 UNL     1     -43.039 -48.295 -11.005  1.00  0.00     0.180 C
HETATM    8  N3  UNL     1     -43.122 -49.679 -10.574  1.00  0.00    -0.332 N
HETATM    9  C23 UNL     1     -44.226 -50.317  -9.895  1.00  0.00     0.243 C
HETATM   10  O6  UNL     1     -45.243 -49.739  -9.405  1.00  0.00    -0.271 OA
ENDROOT
BRANCH   1  11
HETATM   11  N1  UNL     1     -45.158 -52.559 -10.108  1.00  0.00    -0.341 N
HETATM   12  C8  UNL     1     -45.342 -53.795  -9.461  1.00  0.00     0.288 C
HETATM   13  O2  UNL     1     -44.458 -54.198  -8.644  1.00  0.00    -0.264 OA
ATOM     14  H1  UNL     1     -45.861 -52.221 -10.765  1.00  0.00     0.163 HD
BRANCH  12  15
HETATM   15  C7  UNL     1     -46.509 -54.651  -9.679  1.00  0.00     0.216 C
HETATM   16  O1  UNL     1     -46.925 -55.301  -8.695  1.00  0.00    -0.287 OA
BRANCH  15  17
HETATM   17  C6  UNL     1     -47.163 -54.747 -10.979  1.00  0.00     0.093 C
BRANCH  17  18
HETATM   18  C5  UNL     1     -46.524 -55.650 -11.979  1.00  0.00    -0.007 C
HETATM   19  C4  UNL     1     -45.613 -54.828 -12.891  1.00  0.00     0.005 C
HETATM   20  C3  UNL     1     -45.944 -55.038 -14.335  1.00  0.00     0.004 C
HETATM   21  C2  UNL     1     -47.384 -54.638 -14.565  1.00  0.00    -0.019 C
HETATM   22  C1  UNL     1     -47.721 -54.711 -16.031  1.00  0.00     0.010 C
HETATM   23  C25 UNL     1     -48.264 -55.516 -13.720  1.00  0.00     0.004 C
HETATM   24  C24 UNL     1     -47.466 -56.442 -12.827  1.00  0.00     0.005 C
ENDBRANCH  17  18
ENDBRANCH  15  17
ENDBRANCH  12  15
ENDBRANCH   1  11
BRANCH   7  25
HETATM   25  C16 UNL     1     -42.451 -47.423  -9.934  1.00  0.00     0.243 C
HETATM   26  O3  UNL     1     -42.312 -47.989  -8.823  1.00  0.00    -0.271 OA
HETATM   27  N2  UNL     1     -42.085 -46.103 -10.130  1.00  0.00    -0.336 N
HETATM   28  C17 UNL     1     -42.261 -45.484 -11.481  1.00  0.00     0.127 C
HETATM   29  C21 UNL     1     -41.489 -45.197  -9.205  1.00  0.00     0.188 C
HETATM   30  C18 UNL     1     -40.909 -44.911 -11.866  1.00  0.00     0.020 C
HETATM   31  C19 UNL     1     -39.779 -45.426 -11.007  1.00  0.00     0.004 C
HETATM   32  C20 UNL     1     -39.995 -45.230  -9.520  1.00  0.00     0.036 C
BRANCH  29  33
HETATM   33  C22 UNL     1     -41.769 -45.280  -7.792  1.00  0.00     0.196 C
HETATM   34  O4  UNL     1     -40.925 -45.678  -6.956  1.00  0.00    -0.646 OA
HETATM   35  O5  UNL     1     -43.059 -44.894  -7.325  1.00  0.00    -0.646 OA
ENDBRANCH  29  33
ENDBRANCH   7  25
TORSDOF 6
ENDMDL