MODEL 3
REMARK VINA RESULT: -7.055130555      1.663      5.452
REMARK  9 active torsions:
REMARK  status: ('A' for Active; 'I' for Inactive)
REMARK    1  A    between atoms: C2_2  and  C3_3
REMARK    2  A    between atoms: C3_3  and  C5_5
REMARK    3  A    between atoms: C5_5  and  N1_6
REMARK    4  A    between atoms: C5_5  and  C9_13
REMARK       I    between atoms: N1_6  and  C6_8
REMARK       I    between atoms: C6_8  and  N2_10
REMARK    5  A    between atoms: C9_13  and  O2_14
REMARK    6  A    between atoms: C9_13  and  N3_16
REMARK    7  A    between atoms: C10_17  and  C11_18
REMARK       I    between atoms: C11_18  and  N4_20
REMARK    8  A    between atoms: N4_20  and  C12_22
REMARK    9  A    between atoms: C16_30  and  C17_31
ROOT
HETATM    1  N3  UNL     1     -43.180 -47.738  -8.900  1.00  0.00    -0.341 N
HETATM    2  C10 UNL     1     -42.414 -47.829 -10.172  1.00  0.00     0.184 C
HETATM    3  C16 UNL     1     -42.294 -46.470 -10.728  1.00  0.00     0.027 C
HETATM    4  C21 UNL     1     -43.072 -45.552  -9.862  1.00  0.00     0.038 C
HETATM    5  C22 UNL     1     -43.747 -46.433  -8.802  1.00  0.00     0.028 C
HETATM    6  C23 UNL     1     -43.446 -45.780  -7.461  1.00  0.00     0.038 C
HETATM    7  C24 UNL     1     -45.242 -46.349  -9.015  1.00  0.00     0.038 C
ENDROOT
BRANCH   1   8
HETATM    8  C9  UNL     1     -43.236 -48.827  -8.030  1.00  0.00     0.139 C
BRANCH   8   9
HETATM    9  C5  UNL     1     -44.238 -49.435  -7.192  1.00  0.00     0.164 C
BRANCH   9  10
HETATM   10  C3  UNL     1     -45.233 -48.618  -6.468  1.00  0.00     0.012 C
HETATM   11  C4  UNL     1     -46.369 -49.491  -5.932  1.00  0.00     0.012 C
BRANCH  10  12
HETATM   12  C2  UNL     1     -44.567 -48.063  -5.167  1.00  0.00     0.002 C
HETATM   13  C1  UNL     1     -45.499 -48.293  -4.003  1.00  0.00     0.005 C
ENDBRANCH  10  12
ENDBRANCH   9  10
BRANCH   9  14
HETATM   14  N1  UNL     1     -44.998 -50.384  -8.043  1.00  0.00    -0.331 N
HETATM   15  C6  UNL     1     -44.703 -51.729  -8.263  1.00  0.00     0.318 C
HETATM   16  O1  UNL     1     -43.717 -52.274  -7.743  1.00  0.00    -0.247 OA
HETATM   17  N2  UNL     1     -45.546 -52.520  -9.111  1.00  0.00    -0.343 N
HETATM   18  C7  UNL     1     -45.260 -53.894  -9.371  1.00  0.00     0.154 C
HETATM   19  C8  UNL     1     -46.708 -51.877  -9.699  1.00  0.00     0.154 C
ATOM     20  H1  UNL     1     -45.823 -50.014  -8.514  1.00  0.00     0.165 HD
ENDBRANCH   9  14
ENDBRANCH   8   9
BRANCH   8  21
HETATM   21  O2  UNL     1     -42.077 -49.462  -7.956  1.00  0.00    -0.348 OA
ATOM     22  H2  UNL     1     -42.157 -50.296  -7.507  1.00  0.00     0.219 HD
ENDBRANCH   8  21
ENDBRANCH   1   8
BRANCH   2  23
HETATM   23  C11 UNL     1     -42.910 -48.877 -11.063  1.00  0.00     0.242 C
HETATM   24  O3  UNL     1     -44.161 -48.796 -11.358  1.00  0.00    -0.271 OA
HETATM   25  N4  UNL     1     -42.163 -49.948 -11.625  1.00  0.00    -0.336 N
ATOM     26  H4  UNL     1     -41.173 -50.044 -11.399  1.00  0.00     0.164 HD
BRANCH  25  27
HETATM   27  C12 UNL     1     -42.783 -50.900 -12.507  1.00  0.00     0.206 C
HETATM   28  C13 UNL     1     -41.882 -52.099 -12.766  1.00  0.00     0.173 C
HETATM   29  N5  UNL     1     -42.837 -53.126 -13.186  1.00  0.00    -0.335 N
HETATM   30  C14 UNL     1     -42.501 -54.215 -14.054  1.00  0.00     0.154 C
HETATM   31  C15 UNL     1     -44.083 -52.823 -12.585  1.00  0.00     0.319 C
HETATM   32  O4  UNL     1     -45.053 -53.621 -12.586  1.00  0.00    -0.247 OA
HETATM   33  N6  UNL     1     -43.980 -51.513 -12.033  1.00  0.00    -0.320 N
ATOM     34  H6  UNL     1     -44.654 -51.083 -11.401  1.00  0.00     0.166 HD
ENDBRANCH  25  27
ENDBRANCH   2  23
BRANCH   3  35
HETATM   35  C17 UNL     1     -40.908 -45.958 -10.997  1.00  0.00    -0.045 C
HETATM   36  C18 UNL     1     -40.003 -46.955 -11.612  1.00  0.00     0.015 C
HETATM   37  C19 UNL     1     -41.072 -44.817 -12.017  1.00  0.00     0.015 C
HETATM   38  C20 UNL     1     -40.235 -45.337  -9.801  1.00  0.00     0.015 C
ENDBRANCH   3  35
TORSDOF 9
ENDMDL