MODEL 4
REMARK VINA RESULT: -8.449463417      3.103      7.805
REMARK  6 active torsions:
REMARK  status: ('A' for Active; 'I' for Inactive)
REMARK    1  A    between atoms: C11_12  and  C13_14
REMARK       I    between atoms: C13_14  and  N2_16
REMARK    2  A    between atoms: N2_16  and  C14_18
REMARK    3  A    between atoms: C14_18  and  C15_19
REMARK    4  A    between atoms: C21_27  and  N3_28
REMARK       I    between atoms: N3_28  and  C22_30
REMARK    5  A    between atoms: C22_30  and  C23_32
REMARK    6  A    between atoms: C23_32  and  C24_33
ROOT
HETATM    1  C1  UNL     1     -42.627 -45.127  -7.366  1.00  0.00     0.022 C
HETATM    2  C2  UNL     1     -42.933 -46.646  -7.362  1.00  0.00     0.008 C
HETATM    3  C3  UNL     1     -41.929 -47.197  -6.315  1.00  0.00     0.016 C
HETATM    4  C4  UNL     1     -41.832 -48.625  -6.779  1.00  0.00     0.012 C
HETATM    5  C5  UNL     1     -42.347 -48.670  -8.136  1.00  0.00     0.053 C
HETATM    6  C6  UNL     1     -43.782 -48.972  -8.424  1.00  0.00    -0.019 C
HETATM    7  C7  UNL     1     -43.713 -49.573  -9.738  1.00  0.00     0.076 C
HETATM    8  C8  UNL     1     -43.135 -48.410 -10.583  1.00  0.00     0.245 C
HETATM    9  N1  UNL     1     -42.809 -47.215  -9.847  1.00  0.00     0.101 N
HETATM   10  C9  UNL     1     -41.781 -46.623 -10.728  1.00  0.00     0.275 C
HETATM   11  C10 UNL     1     -40.983 -47.838 -11.231  1.00  0.00     0.051 C
HETATM   12  C11 UNL     1     -42.130 -48.754 -11.572  1.00  0.00     0.070 C
HETATM   13  C12 UNL     1     -42.539 -48.290 -12.993  1.00  0.00     0.028 C
HETATM   14  C19 UNL     1     -42.339 -47.186  -8.556  1.00  0.00     0.243 C
HETATM   15  C20 UNL     1     -44.434 -49.261  -7.217  1.00  0.00     0.201 C
HETATM   16  O3  UNL     1     -44.750 -50.335  -6.791  1.00  0.00    -0.286 OA
HETATM   17  C21 UNL     1     -44.809 -48.088  -6.293  1.00  0.00     0.082 C
HETATM   18  C25 UNL     1     -44.235 -46.782  -6.788  1.00  0.00     0.018 C
ENDROOT
BRANCH  12  19
HETATM   19  C13 UNL     1     -41.758 -50.151 -11.761  1.00  0.00     0.228 C
HETATM   20  O1  UNL     1     -40.831 -50.698 -11.116  1.00  0.00    -0.273 OA
HETATM   21  N2  UNL     1     -42.486 -50.925 -12.727  1.00  0.00    -0.358 N
ATOM     22  H2  UNL     1     -43.240 -50.483 -13.252  1.00  0.00     0.162 HD
BRANCH  21  23
HETATM   23  C14 UNL     1     -42.178 -52.315 -12.973  1.00  0.00     0.154 C
BRANCH  23  24
HETATM   24  C15 UNL     1     -43.265 -53.187 -12.449  1.00  0.00     0.139 C
HETATM   25  C16 UNL     1     -44.565 -52.475 -12.237  1.00  0.00     0.035 C
HETATM   26  C17 UNL     1     -45.553 -53.635 -12.181  1.00  0.00     0.029 C
HETATM   27  C18 UNL     1     -44.770 -54.744 -12.817  1.00  0.00     0.168 C
HETATM   28  O2  UNL     1     -43.621 -54.180 -13.366  1.00  0.00    -0.384 OA
ENDBRANCH  23  24
ENDBRANCH  21  23
ENDBRANCH  12  19
BRANCH  17  29
HETATM   29  N3  UNL     1     -44.778 -48.396  -4.955  1.00  0.00    -0.324 N
HETATM   30  C22 UNL     1     -45.985 -48.549  -4.172  1.00  0.00     0.232 C
HETATM   31  O4  UNL     1     -47.083 -48.396  -4.740  1.00  0.00    -0.273 OA
ATOM     32  H3  UNL     1     -43.874 -48.521  -4.499  1.00  0.00     0.169 HD
BRANCH  30  33
HETATM   33  C23 UNL     1     -45.928 -48.879  -2.739  1.00  0.00     0.216 C
BRANCH  33  34
HETATM   34  C24 UNL     1     -46.935 -48.128  -1.969  1.00  0.00     0.181 C
HETATM   35  O5  UNL     1     -46.678 -46.930  -1.565  1.00  0.00    -0.648 OA
HETATM   36  O6  UNL     1     -48.163 -48.687  -1.670  1.00  0.00    -0.648 OA
ENDBRANCH  33  34
ENDBRANCH  30  33
ENDBRANCH  17  29
TORSDOF 6
ENDMDL