MODEL 1
REMARK VINA RESULT: -6.051733907      0.000      0.000
REMARK  8 active torsions:
REMARK  status: ('A' for Active; 'I' for Inactive)
REMARK    1  A    between atoms: C2_2  and  N1_3
REMARK    2  A    between atoms: C14_20  and  O3_21
REMARK    3  A    between atoms: N4_23  and  C15_24
REMARK    4  A    between atoms: C15_24  and  C17_26
REMARK    5  A    between atoms: C17_26  and  O4_27
REMARK    6  A    between atoms: C21_32  and  C22_33
REMARK    7  A    between atoms: C22_33  and  N5_34
REMARK    8  A    between atoms: N5_34  and  C23_37
ROOT
HETATM    1  N1  UNL     1     -46.054 -51.999  -7.630  1.00  0.00    -0.315 N
HETATM    2  C3  UNL     1     -44.943 -51.064  -7.719  1.00  0.00     0.221 C
HETATM    3  N2  UNL     1     -44.513 -50.597  -6.619  1.00  0.00    -0.360 N
ATOM      4  H2  UNL     1     -45.030 -50.961  -5.819  1.00  0.00     0.162 HD
HETATM    5  C4  UNL     1     -43.505 -49.707  -6.234  1.00  0.00     0.150 C
HETATM    6  O1  UNL     1     -44.367 -50.685  -8.848  1.00  0.00    -0.317 OA
HETATM    7  C5  UNL     1     -44.462 -49.970  -9.993  1.00  0.00     0.128 C
HETATM    8  C6  UNL     1     -45.136 -48.600  -9.809  1.00  0.00     0.040 C
HETATM    9  C7  UNL     1     -43.024 -49.600 -10.414  1.00  0.00     0.032 C
HETATM   10  C8  UNL     1     -42.634 -50.232 -11.729  1.00  0.00     0.012 C
HETATM   11  C9  UNL     1     -42.340 -51.725 -11.600  1.00  0.00     0.103 C
HETATM   12  C10 UNL     1     -42.539 -52.376 -12.912  1.00  0.00     0.220 C
HETATM   13  O2  UNL     1     -42.263 -51.632 -13.924  1.00  0.00    -0.273 OA
HETATM   14  N3  UNL     1     -42.978 -53.669 -13.199  1.00  0.00    -0.345 N
HETATM   15  C11 UNL     1     -42.159 -54.504 -14.104  1.00  0.00     0.153 C
HETATM   16  C12 UNL     1     -44.199 -54.312 -12.691  1.00  0.00     0.157 C
HETATM   17  C13 UNL     1     -45.371 -53.426 -12.644  1.00  0.00     0.041 C
HETATM   18  C14 UNL     1     -43.829 -55.116 -11.539  1.00  0.00     0.141 C
HETATM   19  N4  UNL     1     -44.369 -55.218 -10.229  1.00  0.00    -0.333 N
HETATM   20  C18 UNL     1     -44.884 -54.169  -9.418  1.00  0.00     0.102 C
HETATM   21  C19 UNL     1     -46.305 -54.070  -9.060  1.00  0.00    -0.022 C
HETATM   22  C20 UNL     1     -46.926 -55.059  -8.166  1.00  0.00     0.052 C
HETATM   23  C21 UNL     1     -46.632 -52.611  -8.772  1.00  0.00     0.048 C
ENDROOT
BRANCH  23  24
HETATM   24  C22 UNL     1     -48.059 -52.285  -9.124  1.00  0.00     0.290 C
BRANCH  24  25
HETATM   25  N5  UNL     1     -48.541 -53.155 -10.212  1.00  0.00    -0.066 N
ATOM     26  H52 UNL     1     -48.382 -52.732 -11.126  1.00  0.00     0.278 HD
ATOM     27  H51 UNL     1     -47.954 -53.982 -10.317  1.00  0.00     0.278 HD
BRANCH  25  28
HETATM   28  C23 UNL     1     -49.909 -53.506 -10.032  1.00  0.00     0.186 A
HETATM   29  C24 UNL     1     -50.886 -52.682  -9.257  1.00  0.00     0.035 A
HETATM   30  C25 UNL     1     -50.465 -54.043  -8.746  1.00  0.00     0.035 A
ENDBRANCH  25  28
ENDBRANCH  24  25
ENDBRANCH  23  24
BRANCH   1  31
HETATM   31  C2  UNL     1     -46.589 -52.417  -6.348  1.00  0.00     0.128 C
HETATM   32  C1  UNL     1     -47.701 -51.601  -5.761  1.00  0.00     0.027 C
ENDBRANCH   1  31
BRANCH  19  33
HETATM   33  C15 UNL     1     -44.321 -56.548  -9.659  1.00  0.00     0.110 C
HETATM   34  C16 UNL     1     -45.673 -57.232  -9.976  1.00  0.00     0.035 C
BRANCH  33  35
HETATM   35  C17 UNL     1     -44.041 -56.577  -8.179  1.00  0.00     0.189 C
BRANCH  35  36
HETATM   36  O4  UNL     1     -42.694 -56.806  -7.907  1.00  0.00    -0.399 OA
ATOM     37  H4  UNL     1     -42.571 -57.529  -7.304  1.00  0.00     0.209 HD
ENDBRANCH  35  36
ENDBRANCH  33  35
ENDBRANCH  19  33
BRANCH  18  38
HETATM   38  O3  UNL     1     -42.794 -55.860 -11.849  1.00  0.00    -0.348 OA
ATOM     39  H3  UNL     1     -42.799 -56.640 -11.307  1.00  0.00     0.219 HD
ENDBRANCH  18  38
TORSDOF 8
ENDMDL