MODEL 2
REMARK VINA RESULT: -8.524150873      1.273      1.561
REMARK  7 active torsions:
REMARK  status: ('A' for Active; 'I' for Inactive)
REMARK    1  A    between atoms: C2_2  and  C3_3
REMARK    2  A    between atoms: C2_2  and  N2_23
REMARK       I    between atoms: C3_3  and  N1_5
REMARK    3  A    between atoms: N1_5  and  C4_7
REMARK    4  A    between atoms: C18_25  and  C19_26
REMARK    5  A    between atoms: C19_26  and  C20_27
REMARK    6  A    between atoms: C20_27  and  C21_28
REMARK    7  A    between atoms: C21_28  and  N3_29
ROOT
HETATM    1  C3  UNL     1     -45.409 -50.780  -6.307  1.00  0.00     0.240 C
HETATM    2  O1  UNL     1     -44.745 -51.641  -6.943  1.00  0.00    -0.271 OA
HETATM    3  N1  UNL     1     -45.167 -49.413  -6.572  1.00  0.00    -0.355 N
ATOM      4  H1  UNL     1     -45.693 -48.702  -6.064  1.00  0.00     0.162 HD
ENDROOT
BRANCH   3   5
HETATM    5  C4  UNL     1     -44.166 -48.999  -7.571  1.00  0.00     0.084 C
HETATM    6  C5  UNL     1     -44.877 -49.097  -8.915  1.00  0.00     0.025 C
HETATM    7  C6  UNL     1     -43.899 -49.476 -10.017  1.00  0.00     0.002 C
HETATM    8  C7  UNL     1     -44.015 -48.583 -11.210  1.00  0.00     0.000 C
HETATM    9  C8  UNL     1     -42.671 -48.369 -11.906  1.00  0.00     0.000 C
HETATM   10  C9  UNL     1     -41.577 -47.992 -10.957  1.00  0.00     0.000 C
HETATM   11  C10 UNL     1     -40.596 -47.004 -11.497  1.00  0.00     0.001 C
HETATM   12  C11 UNL     1     -41.023 -45.595 -11.482  1.00  0.00     0.015 C
HETATM   13  C12 UNL     1     -41.862 -45.148 -10.332  1.00  0.00     0.140 C
HETATM   14  S1  UNL     1     -40.961 -44.806  -8.863  1.00  0.00     0.144 S
HETATM   15  O2  UNL     1     -39.604 -45.492  -8.841  1.00  0.00    -0.228 OA
HETATM   16  O3  UNL     1     -40.644 -43.318  -8.767  1.00  0.00    -0.228 OA
HETATM   17  C13 UNL     1     -41.885 -45.238  -7.391  1.00  0.00     0.140 C
HETATM   18  C14 UNL     1     -41.407 -46.566  -6.920  1.00  0.00     0.015 C
HETATM   19  C15 UNL     1     -42.480 -47.504  -6.443  1.00  0.00     0.003 C
HETATM   20  C16 UNL     1     -43.678 -47.591  -7.317  1.00  0.00     0.025 C
ENDBRANCH   3   5
BRANCH   1  21
HETATM   21  C2  UNL     1     -46.400 -51.268  -5.319  1.00  0.00     0.175 C
HETATM   22  C1  UNL     1     -47.227 -52.408  -5.836  1.00  0.00     0.042 C
BRANCH  21  23
HETATM   23  N2  UNL     1     -47.175 -50.174  -4.808  1.00  0.00    -0.338 N
HETATM   24  C17 UNL     1     -48.579 -49.916  -4.681  1.00  0.00     0.141 C
HETATM   25  C18 UNL     1     -48.240 -48.467  -4.535  1.00  0.00     0.096 C
HETATM   26  C23 UNL     1     -46.890 -48.934  -4.212  1.00  0.00     0.226 C
HETATM   27  O4  UNL     1     -45.842 -48.500  -3.646  1.00  0.00    -0.273 OA
BRANCH  25  28
HETATM   28  C19 UNL     1     -48.950 -47.764  -3.387  1.00  0.00     0.017 C
BRANCH  28  29
HETATM   29  C20 UNL     1     -49.704 -46.590  -3.979  1.00  0.00     0.020 C
BRANCH  29  30
HETATM   30  C21 UNL     1     -48.943 -45.305  -3.842  1.00  0.00     0.122 C
BRANCH  30  31
HETATM   31  N3  UNL     1     -47.962 -45.136  -4.899  1.00  0.00    -0.367 N
HETATM   32  C22 UNL     1     -46.827 -44.589  -4.686  1.00  0.00     0.196 C
HETATM   33  N4  UNL     1     -45.894 -44.439  -5.742  1.00  0.00    -0.067 NA
HETATM   34  N5  UNL     1     -46.497 -44.131  -3.390  1.00  0.00    -0.067 NA
ATOM     35  H3  UNL     1     -48.186 -45.463  -5.840  1.00  0.00     0.161 HD
ENDBRANCH  30  31
ENDBRANCH  29  30
ENDBRANCH  28  29
ENDBRANCH  25  28
ENDBRANCH  21  23
ENDBRANCH   1  21
TORSDOF 7
ENDMDL