MODEL 3
REMARK VINA RESULT: -7.601371395      3.089      6.203
REMARK  7 active torsions:
REMARK  status: ('A' for Active; 'I' for Inactive)
REMARK    1  A    between atoms: C10_10  and  C11_11
REMARK    2  A    between atoms: C11_11  and  C12_13
REMARK    3  A    between atoms: C12_13  and  N1_14
REMARK    4  A    between atoms: N2_17  and  C15_18
REMARK    5  A    between atoms: C15_18  and  C16_19
REMARK    6  A    between atoms: C16_19  and  N3_20
REMARK       I    between atoms: C17_22  and  N5_24
REMARK    7  A    between atoms: C25_35  and  O2_36
ROOT
HETATM    1  N1  UNL     1     -44.197 -51.232 -10.453  1.00  0.00     0.098 N
HETATM    2  C13 UNL     1     -43.686 -51.915  -9.254  1.00  0.00     0.303 C
HETATM    3  C14 UNL     1     -44.601 -51.841  -8.082  1.00  0.00     0.302 C
HETATM    4  N2  UNL     1     -45.863 -52.526  -8.333  1.00  0.00     0.093 N
HETATM    5  C21 UNL     1     -45.968 -52.817  -9.723  1.00  0.00     0.302 C
HETATM    6  C22 UNL     1     -45.591 -51.681 -10.620  1.00  0.00     0.303 C
ENDROOT
BRANCH   1   7
HETATM    7  C12 UNL     1     -44.260 -49.852 -10.122  1.00  0.00     0.351 C
BRANCH   7   8
HETATM    8  C11 UNL     1     -43.036 -49.138  -9.749  1.00  0.00     0.164 C
HETATM    9  O1  UNL     1     -42.032 -49.484 -10.405  1.00  0.00    -0.295 OA
BRANCH   8  10
HETATM   10  C10 UNL     1     -42.825 -48.096  -8.737  1.00  0.00     0.033 C
HETATM   11  C9  UNL     1     -41.760 -47.070  -9.109  1.00  0.00     0.010 C
HETATM   12  C2  UNL     1     -42.143 -46.109 -10.176  1.00  0.00    -0.042 C
HETATM   13  C8  UNL     1     -41.541 -46.173  -7.884  1.00  0.00     0.007 C
HETATM   14  C1  UNL     1     -41.030 -45.036 -10.206  1.00  0.00     0.015 C
HETATM   15  C3  UNL     1     -42.144 -46.605 -11.606  1.00  0.00     0.015 C
HETATM   16  C4  UNL     1     -43.482 -45.506  -9.814  1.00  0.00     0.018 C
HETATM   17  C5  UNL     1     -43.883 -45.838  -8.389  1.00  0.00    -0.036 C
HETATM   18  C6  UNL     1     -45.206 -45.196  -8.096  1.00  0.00     0.015 C
HETATM   19  C7  UNL     1     -42.758 -45.355  -7.531  1.00  0.00     0.010 C
HETATM   20  C26 UNL     1     -44.027 -47.367  -8.258  1.00  0.00     0.039 C
HETATM   21  C25 UNL     1     -44.273 -47.733  -6.816  1.00  0.00     0.124 C
HETATM   22  C24 UNL     1     -43.283 -48.792  -6.441  1.00  0.00     0.033 C
HETATM   23  C23 UNL     1     -42.259 -48.849  -7.514  1.00  0.00     0.020 C
BRANCH  21  24
HETATM   24  O2  UNL     1     -45.565 -48.182  -6.561  1.00  0.00    -0.395 OA
ATOM     25  H2  UNL     1     -45.794 -48.009  -5.655  1.00  0.00     0.210 HD
ENDBRANCH  21  24
ENDBRANCH   8  10
ENDBRANCH   7   8
ENDBRANCH   1   7
BRANCH   4  26
HETATM   26  C15 UNL     1     -46.961 -51.787  -7.765  1.00  0.00     0.292 C
BRANCH  26  27
HETATM   27  C16 UNL     1     -46.980 -52.003  -6.246  1.00  0.00     0.152 C
BRANCH  27  28
HETATM   28  N3  UNL     1     -46.557 -50.854  -5.515  1.00  0.00    -0.363 N
HETATM   29  C17 UNL     1     -46.550 -50.656  -4.266  1.00  0.00     0.187 C
HETATM   30  N4  UNL     1     -46.072 -49.409  -3.779  1.00  0.00    -0.064 NA
HETATM   31  N5  UNL     1     -46.998 -51.620  -3.350  1.00  0.00    -0.331 N
HETATM   32  C18 UNL     1     -48.245 -51.554  -2.559  1.00  0.00     0.154 C
HETATM   33  C20 UNL     1     -46.353 -52.848  -2.987  1.00  0.00     0.359 C
HETATM   34  C19 UNL     1     -47.767 -52.183  -1.265  1.00  0.00     0.254 C
HETATM   35  N6  UNL     1     -47.027 -53.327  -1.781  1.00  0.00    -0.058 N
ATOM     36  H62 UNL     1     -46.395 -53.748  -1.099  1.00  0.00     0.279 HD
ATOM     37  H61 UNL     1     -47.605 -54.153  -1.936  1.00  0.00     0.279 HD
ATOM     38  H3  UNL     1     -46.210 -50.080  -6.082  1.00  0.00     0.162 HD
ENDBRANCH  27  28
ENDBRANCH  26  27
ENDBRANCH   4  26
TORSDOF 7
ENDMDL