MODEL 4
REMARK VINA RESULT: -5.945670802      2.944      6.460
REMARK  7 active torsions:
REMARK  status: ('A' for Active; 'I' for Inactive)
REMARK    1  A    between atoms: C2_2  and  C3_3
REMARK    2  A    between atoms: C3_3  and  C6_6
REMARK    3  A    between atoms: C6_6  and  C7_7
REMARK       I    between atoms: N1_11  and  C11_12
REMARK    4  A    between atoms: C13_15  and  C14_16
REMARK       I    between atoms: C14_16  and  N2_18
REMARK    5  A    between atoms: C18_22  and  C19_23
REMARK    6  A    between atoms: C21_27  and  C22_28
REMARK    7  A    between atoms: C23_31  and  C24_32
ROOT
HETATM    1  C7  UNL     1     -42.939 -48.262  -7.202  1.00  0.00    -0.013 C
HETATM    2  C8  UNL     1     -41.662 -47.739  -6.597  1.00  0.00     0.019 C
HETATM    3  C9  UNL     1     -42.449 -46.456  -6.259  1.00  0.00     0.025 C
HETATM    4  C10 UNL     1     -41.854 -45.424  -7.115  1.00  0.00     0.132 C
HETATM    5  N1  UNL     1     -41.472 -45.908  -8.428  1.00  0.00    -0.338 N
HETATM    6  C11 UNL     1     -40.371 -45.224  -8.981  1.00  0.00     0.216 C
HETATM    7  C12 UNL     1     -39.716 -44.106  -8.274  1.00  0.00     0.117 C
HETATM    8  O1  UNL     1     -39.931 -45.565 -10.092  1.00  0.00    -0.274 OA
HETATM    9  C13 UNL     1     -42.040 -46.964  -9.187  1.00  0.00     0.185 C
HETATM   10  C20 UNL     1     -43.220 -47.538  -8.561  1.00  0.00     0.043 C
HETATM   11  C21 UNL     1     -44.311 -46.881  -7.935  1.00  0.00     0.114 C
HETATM   12  C23 UNL     1     -43.643 -47.206  -6.604  1.00  0.00     0.075 C
ENDROOT
BRANCH   9  13
HETATM   13  C14 UNL     1     -42.334 -46.628 -10.611  1.00  0.00     0.244 C
HETATM   14  O2  UNL     1     -42.872 -45.528 -10.913  1.00  0.00    -0.271 OA
HETATM   15  N2  UNL     1     -42.042 -47.480 -11.681  1.00  0.00    -0.337 N
HETATM   16  C15 UNL     1     -42.364 -47.237 -13.064  1.00  0.00     0.127 C
HETATM   17  C18 UNL     1     -41.339 -48.723 -11.639  1.00  0.00     0.176 C
HETATM   18  C16 UNL     1     -42.883 -48.617 -13.496  1.00  0.00     0.022 C
HETATM   19  C17 UNL     1     -42.097 -49.569 -12.641  1.00  0.00     0.036 C
BRANCH  17  20
HETATM   20  C19 UNL     1     -39.937 -48.599 -12.150  1.00  0.00     0.254 C
HETATM   21  N3  UNL     1     -39.455 -49.470 -13.172  1.00  0.00    -0.060 NA
HETATM   22  O3  UNL     1     -39.139 -47.748 -11.718  1.00  0.00    -0.275 OA
ENDBRANCH  17  20
ENDBRANCH   9  13
BRANCH   1  23
HETATM   23  C6  UNL     1     -43.004 -49.652  -7.390  1.00  0.00     0.020 C
BRANCH  23  24
HETATM   24  C3  UNL     1     -44.006 -50.509  -8.003  1.00  0.00    -0.047 C
HETATM   25  C4  UNL     1     -43.401 -51.746  -8.691  1.00  0.00     0.015 C
HETATM   26  C5  UNL     1     -44.799 -51.102  -6.829  1.00  0.00     0.015 C
BRANCH  24  27
HETATM   27  C2  UNL     1     -45.061 -49.942  -8.883  1.00  0.00     0.004 C
HETATM   28  C1  UNL     1     -44.935 -50.282 -10.346  1.00  0.00     0.006 C
ENDBRANCH  24  27
ENDBRANCH  23  24
ENDBRANCH   1  23
BRANCH  11  29
HETATM   29  C22 UNL     1     -44.839 -45.558  -8.024  1.00  0.00     0.178 C
HETATM   30  O4  UNL     1     -45.653 -45.308  -8.989  1.00  0.00    -0.648 OA
HETATM   31  O5  UNL     1     -44.627 -44.447  -7.236  1.00  0.00    -0.648 OA
ENDBRANCH  11  29
BRANCH  12  32
HETATM   32  C24 UNL     1     -44.648 -47.225  -5.568  1.00  0.00     0.184 C
HETATM   33  O6  UNL     1     -44.846 -48.279  -4.901  1.00  0.00    -0.647 OA
HETATM   34  O7  UNL     1     -45.458 -46.147  -5.214  1.00  0.00    -0.647 OA
ENDBRANCH  12  32
TORSDOF 7
ENDMDL