MODEL 5
REMARK VINA RESULT: -8.076639884      2.017      4.288
REMARK  7 active torsions:
REMARK  status: ('A' for Active; 'I' for Inactive)
REMARK    1  A    between atoms: C3_3  and  C4_4
REMARK    2  A    between atoms: C6_6  and  N1_7
REMARK    3  A    between atoms: C6_6  and  C25_34
REMARK       I    between atoms: N1_7  and  C7_9
REMARK    4  A    between atoms: C7_9  and  C8_11
REMARK    5  A    between atoms: C13_16  and  C14_17
REMARK       I    between atoms: C14_17  and  N2_19
REMARK    6  A    between atoms: C19_24  and  C20_25
REMARK       I    between atoms: C20_25  and  N3_27
REMARK    7  A    between atoms: C24_31  and  O4_32
ROOT
HETATM    1  C8  UNL     1     -44.359 -52.028  -8.804  1.00  0.00     0.091 C
HETATM    2  C9  UNL     1     -44.753 -52.999  -9.912  1.00  0.00     0.015 C
HETATM    3  C10 UNL     1     -44.149 -52.595 -11.235  1.00  0.00     0.001 C
HETATM    4  C11 UNL     1     -44.481 -51.212 -11.684  1.00  0.00     0.001 C
HETATM    5  C12 UNL     1     -44.724 -50.318 -10.448  1.00  0.00     0.015 C
HETATM    6  C13 UNL     1     -43.773 -50.799  -9.399  1.00  0.00     0.091 C
ENDROOT
BRANCH   6   7
HETATM    7  C14 UNL     1     -43.265 -49.822  -8.452  1.00  0.00     0.225 C
HETATM    8  O2  UNL     1     -42.854 -50.254  -7.319  1.00  0.00    -0.273 OA
HETATM    9  N2  UNL     1     -43.183 -48.433  -8.665  1.00  0.00    -0.338 N
HETATM   10  C15 UNL     1     -42.697 -47.595  -7.546  1.00  0.00     0.127 C
HETATM   11  C19 UNL     1     -43.494 -47.718  -9.865  1.00  0.00     0.179 C
HETATM   12  C16 UNL     1     -43.971 -46.831  -7.137  1.00  0.00     0.020 C
HETATM   13  C17 UNL     1     -44.404 -45.957  -8.262  1.00  0.00     0.004 C
HETATM   14  C18 UNL     1     -44.327 -46.512  -9.629  1.00  0.00     0.035 C
BRANCH  11  15
HETATM   15  C20 UNL     1     -42.253 -47.401 -10.657  1.00  0.00     0.244 C
HETATM   16  O3  UNL     1     -41.853 -48.289 -11.452  1.00  0.00    -0.271 OA
HETATM   17  N3  UNL     1     -41.549 -46.197 -10.552  1.00  0.00    -0.324 N
HETATM   18  C21 UNL     1     -41.767 -45.002  -9.769  1.00  0.00     0.129 C
HETATM   19  C24 UNL     1     -40.313 -45.892 -11.295  1.00  0.00     0.222 C
HETATM   20  C22 UNL     1     -40.393 -44.848  -9.116  1.00  0.00     0.024 C
HETATM   21  C23 UNL     1     -39.428 -45.411 -10.149  1.00  0.00     0.055 C
BRANCH  19  22
HETATM   22  O4  UNL     1     -40.529 -44.804 -12.118  1.00  0.00    -0.377 OA
ATOM     23  H4  UNL     1     -39.989 -44.885 -12.897  1.00  0.00     0.212 HD
ENDBRANCH  19  22
ENDBRANCH  11  15
ENDBRANCH   6   7
BRANCH   1  24
HETATM   24  C7  UNL     1     -45.588 -51.766  -8.034  1.00  0.00     0.223 C
HETATM   25  N1  UNL     1     -45.458 -51.537  -6.610  1.00  0.00    -0.341 N
ATOM     26  H1  UNL     1     -44.524 -51.556  -6.199  1.00  0.00     0.163 HD
HETATM   27  O1  UNL     1     -46.752 -51.715  -8.465  1.00  0.00    -0.273 OA
BRANCH  25  28
HETATM   28  C6  UNL     1     -46.592 -51.283  -5.736  1.00  0.00     0.129 A
HETATM   29  C4  UNL     1     -46.121 -50.808  -4.366  1.00  0.00     0.050 A
HETATM   30  C5  UNL     1     -46.896 -49.938  -5.284  1.00  0.00     0.054 A
BRANCH  29  31
HETATM   31  C3  UNL     1     -46.750 -51.448  -3.200  1.00  0.00    -0.023 C
HETATM   32  C2  UNL     1     -47.462 -50.783  -2.310  1.00  0.00    -0.034 C
HETATM   33  C1  UNL     1     -48.065 -51.488  -1.167  1.00  0.00     0.036 C
ENDBRANCH  29  31
BRANCH  28  34
HETATM   34  C25 UNL     1     -47.676 -52.309  -5.725  1.00  0.00     0.203 C
HETATM   35  O5  UNL     1     -48.861 -51.924  -5.818  1.00  0.00    -0.646 OA
HETATM   36  O6  UNL     1     -47.471 -53.666  -5.618  1.00  0.00    -0.646 OA
ENDBRANCH  28  34
ENDBRANCH  25  28
ENDBRANCH   1  24
TORSDOF 7
ENDMDL