MODEL 4
REMARK VINA RESULT: -7.874344648      2.363      3.401
REMARK  8 active torsions:
REMARK  status: ('A' for Active; 'I' for Inactive)
REMARK    1  A    between atoms: C2_2  and  N1_3
REMARK    2  A    between atoms: C2_2  and  C3_11
REMARK    3  A    between atoms: N1_3  and  S1_5
REMARK    4  A    between atoms: S1_5  and  N2_6
REMARK       I    between atoms: C3_11  and  N3_13
REMARK    5  A    between atoms: N3_13  and  C4_15
REMARK    6  A    between atoms: N4_24  and  C13_25
REMARK    7  A    between atoms: C13_25  and  C14_26
REMARK    8  A    between atoms: N5_31  and  C18_32
ROOT
HETATM    1  C4  UNL     1     -43.805 -48.287  -6.025  1.00  0.00     0.090 C
HETATM    2  C5  UNL     1     -42.408 -48.336  -5.394  1.00  0.00     0.026 C
HETATM    3  C6  UNL     1     -41.563 -47.330  -6.148  1.00  0.00     0.007 C
HETATM    4  C7  UNL     1     -42.164 -47.482  -7.544  1.00  0.00    -0.004 C
HETATM    5  C8  UNL     1     -41.828 -46.359  -8.446  1.00  0.00     0.030 C
HETATM    6  C9  UNL     1     -42.658 -46.426  -9.689  1.00  0.00     0.091 C
HETATM    7  C10 UNL     1     -44.128 -46.328  -9.281  1.00  0.00     0.051 C
HETATM    8  C11 UNL     1     -44.470 -47.525  -8.364  1.00  0.00     0.097 C
HETATM    9  C12 UNL     1     -43.625 -47.369  -7.177  1.00  0.00     0.035 C
HETATM   10  N4  UNL     1     -44.248 -48.694  -9.182  1.00  0.00    -0.328 N
HETATM   11  C17 UNL     1     -43.178 -48.798 -10.105  1.00  0.00     0.321 C
HETATM   12  O4  UNL     1     -42.876 -49.913 -10.583  1.00  0.00    -0.247 OA
HETATM   13  N5  UNL     1     -42.464 -47.629 -10.473  1.00  0.00    -0.325 N
ENDROOT
BRANCH   1  14
HETATM   14  N3  UNL     1     -44.733 -47.654  -5.080  1.00  0.00    -0.354 N
HETATM   15  C3  UNL     1     -45.740 -48.406  -4.420  1.00  0.00     0.241 C
HETATM   16  O3  UNL     1     -45.856 -49.647  -4.637  1.00  0.00    -0.271 OA
ATOM     17  H3  UNL     1     -44.653 -46.655  -4.894  1.00  0.00     0.162 HD
BRANCH  15  18
HETATM   18  C2  UNL     1     -46.672 -47.770  -3.470  1.00  0.00     0.182 C
HETATM   19  C1  UNL     1     -47.070 -48.788  -2.402  1.00  0.00     0.043 C
BRANCH  18  20
HETATM   20  N1  UNL     1     -47.810 -47.215  -4.139  1.00  0.00    -0.290 N
ATOM     21  H1  UNL     1     -48.464 -47.775  -4.686  1.00  0.00     0.174 HD
BRANCH  20  22
HETATM   22  S1  UNL     1     -47.968 -45.522  -3.933  1.00  0.00     0.313 S
HETATM   23  O1  UNL     1     -47.363 -45.058  -2.635  1.00  0.00    -0.183 OA
HETATM   24  O2  UNL     1     -49.408 -45.114  -4.038  1.00  0.00    -0.183 OA
BRANCH  22  25
HETATM   25  N2  UNL     1     -47.114 -44.742  -5.214  1.00  0.00    -0.312 N
ATOM     26  H22 UNL     1     -47.427 -44.691  -6.184  1.00  0.00     0.170 HD
ATOM     27  H21 UNL     1     -46.254 -44.348  -4.830  1.00  0.00     0.170 HD
ENDBRANCH  22  25
ENDBRANCH  20  22
ENDBRANCH  18  20
ENDBRANCH  15  18
ENDBRANCH   1  14
BRANCH  10  28
HETATM   28  C13 UNL     1     -45.153 -49.814  -9.079  1.00  0.00     0.132 C
BRANCH  28  29
HETATM   29  C14 UNL     1     -44.782 -50.779  -7.990  1.00  0.00     0.004 A
HETATM   30  C15 UNL     1     -45.654 -51.833  -7.480  1.00  0.00     0.007 A
HETATM   31  C16 UNL     1     -44.528 -52.213  -8.383  1.00  0.00     0.007 A
ENDBRANCH  28  29
ENDBRANCH  10  28
BRANCH  13  32
HETATM   32  C18 UNL     1     -41.577 -47.692 -11.611  1.00  0.00     0.089 C
HETATM   33  C19 UNL     1     -40.644 -48.887 -11.567  1.00  0.00     0.025 C
HETATM   34  C20 UNL     1     -39.783 -48.752 -12.832  1.00  0.00     0.002 C
HETATM   35  C21 UNL     1     -38.752 -47.692 -12.512  1.00  0.00     0.000 C
HETATM   36  C22 UNL     1     -39.312 -46.624 -11.634  1.00  0.00     0.002 C
HETATM   37  C23 UNL     1     -40.800 -46.403 -11.793  1.00  0.00     0.025 C
ENDBRANCH  13  32
TORSDOF 8
ENDMDL