MODEL 4
REMARK VINA RESULT: -7.445981582      1.792      3.051
REMARK  10 active torsions:
REMARK  status: ('A' for Active; 'I' for Inactive)
REMARK    1  A    between atoms: O1_2  and  C2_3
REMARK    2  A    between atoms: C2_3  and  C3_7
REMARK    3  A    between atoms: C4_9  and  C5_10
REMARK    4  A    between atoms: N3_12  and  C7_13
REMARK    5  A    between atoms: C7_13  and  C8_14
REMARK    6  A    between atoms: C8_14  and  C10_16
REMARK    7  A    between atoms: C10_16  and  O2_17
REMARK    8  A    between atoms: C10_16  and  N4_19
REMARK    9  A    between atoms: C10_16  and  O3_27
REMARK       I    between atoms: C11_21  and  N6_23
REMARK   10  A    between atoms: O3_27  and  C13_28
ROOT
HETATM    1  N4  UNL     1      36.948  12.190  67.853  1.00  0.00    -0.309 N
ATOM      2  H4  UNL     1      37.628  12.828  68.267  1.00  0.00     0.167 HD
HETATM    3  C11 UNL     1      35.924  12.731  67.385  1.00  0.00     0.201 C
HETATM    4  N5  UNL     1      35.769  14.136  67.451  1.00  0.00    -0.063 NA
HETATM    5  N6  UNL     1      34.890  11.981  66.780  1.00  0.00    -0.267 N
ATOM      6  H6  UNL     1      35.101  11.452  65.933  1.00  0.00     0.180 HD
HETATM    7  C12 UNL     1      33.599  11.932  67.291  1.00  0.00     0.184 C
HETATM    8  N7  UNL     1      32.509  11.903  67.707  1.00  0.00    -0.172 NA
ENDROOT
BRANCH   1   9
HETATM    9  C10 UNL     1      37.312  10.792  67.894  1.00  0.00     0.254 C
BRANCH   9  10
HETATM   10  C8  UNL     1      38.753  10.821  68.452  1.00  0.00     0.087 C
HETATM   11  C9  UNL     1      38.633  11.104  69.950  1.00  0.00     0.019 C
BRANCH  10  12
HETATM   12  C7  UNL     1      39.552  11.929  67.852  1.00  0.00     0.161 C
BRANCH  12  13
HETATM   13  N3  UNL     1      40.736  11.353  67.267  1.00  0.00    -0.286 N
HETATM   14  C6  UNL     1      40.887  10.651  66.116  1.00  0.00     0.142 A
HETATM   15  C5  UNL     1      42.215  10.319  65.994  1.00  0.00     0.068 A
HETATM   16  N9  UNL     1      42.840  10.816  67.057  1.00  0.00    -0.285 N
HETATM   17  N8  UNL     1      41.939  11.426  67.798  1.00  0.00    -0.240 N
ATOM     18  H9  UNL     1      43.837  10.740  67.260  1.00  0.00     0.188 HD
ATOM     19  H8  UNL     1      42.147  11.898  68.678  1.00  0.00     0.208 HD
BRANCH  15  20
HETATM   20  C4  UNL     1      42.776   9.551  64.870  1.00  0.00     0.063 C
HETATM   21  C3  UNL     1      42.124   9.566  63.718  1.00  0.00     0.099 C
HETATM   22  N2  UNL     1      40.901  10.319  63.595  1.00  0.00    -0.098 NA
BRANCH  21  23
HETATM   23  C2  UNL     1      42.606   8.839  62.562  1.00  0.00     0.160 C
HETATM   24  N1  UNL     1      41.968   8.838  61.458  1.00  0.00    -0.379 N
ATOM     25  H12 UNL     1      42.307   8.326  60.644  1.00  0.00     0.158 HD
ATOM     26  H11 UNL     1      41.097   9.365  61.396  1.00  0.00     0.158 HD
BRANCH  23  27
HETATM   27  O1  UNL     1      43.805   8.113  62.647  1.00  0.00    -0.340 OA
HETATM   28  C1  UNL     1      44.581   8.102  63.833  1.00  0.00     0.211 C
ENDBRANCH  23  27
ENDBRANCH  21  23
ENDBRANCH  15  20
ENDBRANCH  12  13
ENDBRANCH  10  12
ENDBRANCH   9  10
BRANCH   9  29
HETATM   29  O2  UNL     1      36.568  10.194  68.895  1.00  0.00    -0.348 OA
ATOM     30  H2  UNL     1      36.619   9.264  68.705  1.00  0.00     0.215 HD
ENDBRANCH   9  29
BRANCH   9  31
HETATM   31  O3  UNL     1      37.388  10.143  66.729  1.00  0.00    -0.328 OA
BRANCH  31  32
HETATM   32  C13 UNL     1      36.606   9.107  66.398  1.00  0.00     0.055 C
HETATM   33  C14 UNL     1      36.052   9.048  65.022  1.00  0.00     0.045 C
HETATM   34  C15 UNL     1      35.459   8.830  67.353  1.00  0.00     0.045 C
HETATM   35  C16 UNL     1      37.500   7.853  66.535  1.00  0.00     0.045 C
ENDBRANCH  31  32
ENDBRANCH   9  31
ENDBRANCH   1   9
TORSDOF 10
ENDMDL