MODEL 4
REMARK VINA RESULT: -4.592434563      1.678      3.537
REMARK  13 active torsions:
REMARK  status: ('A' for Active; 'I' for Inactive)
REMARK    1  A    between atoms: O1_2  and  C2_3
REMARK    2  A    between atoms: C3_4  and  O2_5
REMARK    3  A    between atoms: C9_14  and  O5_16
REMARK    4  A    between atoms: O5_16  and  N1_17
REMARK    5  A    between atoms: N1_17  and  C12_19
REMARK    6  A    between atoms: C12_19  and  O6_20
REMARK    7  A    between atoms: C12_19  and  C13_22
REMARK    8  A    between atoms: C13_22  and  O7_23
REMARK    9  A    between atoms: C13_22  and  O8_25
REMARK   10  A    between atoms: O8_25  and  C14_26
REMARK   11  A    between atoms: C14_26  and  O9_28
REMARK   12  A    between atoms: C14_26  and  C16_30
REMARK   13  A    between atoms: C16_30  and  O10_31
ROOT
HETATM    1  O5  UNL     1      36.647  11.787  67.329  1.00  0.00    -0.263 OA
ENDROOT
BRANCH   1   2
HETATM    2  C9  UNL     1      37.488  10.889  67.547  1.00  0.00     0.135 C
HETATM    3  C4  UNL     1      38.839  11.340  68.095  1.00  0.00     0.103 A
HETATM    4  O3  UNL     1      39.910  11.829  67.518  1.00  0.00    -0.286 OA
HETATM    5  C5  UNL     1      38.868  11.174  69.458  1.00  0.00     0.028 A
HETATM    6  C3  UNL     1      40.993  12.162  68.179  1.00  0.00     0.222 A
HETATM    7  C2  UNL     1      41.076  12.016  69.558  1.00  0.00     0.178 A
HETATM    8  C6  UNL     1      39.983  11.507  70.220  1.00  0.00     0.218 A
HETATM    9  O4  UNL     1      40.012  11.358  71.462  1.00  0.00    -0.285 OA
HETATM   10  C7  UNL     1      37.575  10.618  69.885  1.00  0.00     0.049 C
HETATM   11  C8  UNL     1      37.144   9.846  68.632  1.00  0.00     0.052 C
HETATM   12  C10 UNL     1      37.874   9.995  66.335  1.00  0.00     0.056 C
BRANCH   6  13
HETATM   13  O2  UNL     1      42.079  12.669  67.508  1.00  0.00    -0.339 OA
ATOM     14  H2  UNL     1      42.219  12.402  66.607  1.00  0.00     0.220 HD
ENDBRANCH   6  13
BRANCH   7  15
HETATM   15  O1  UNL     1      42.202  12.360  70.271  1.00  0.00    -0.348 OA
HETATM   16  C1  UNL     1      42.180  13.476  71.117  1.00  0.00     0.210 C
ENDBRANCH   7  15
ENDBRANCH   1   2
BRANCH   1  17
HETATM   17  N1  UNL     1      35.814  12.617  67.152  1.00  0.00    -0.263 N
HETATM   18  C11 UNL     1      36.160  14.025  67.025  1.00  0.00     0.182 C
BRANCH  17  19
HETATM   19  C12 UNL     1      34.436  12.423  67.571  1.00  0.00     0.296 C
BRANCH  19  20
HETATM   20  O6  UNL     1      33.626  12.423  66.464  1.00  0.00    -0.370 OA
ATOM     21  H6  UNL     1      32.801  12.841  66.682  1.00  0.00     0.212 HD
ENDBRANCH  19  20
BRANCH  19  22
HETATM   22  C13 UNL     1      34.245  11.108  68.339  1.00  0.00     0.311 C
BRANCH  22  23
HETATM   23  O7  UNL     1      33.189  11.294  69.264  1.00  0.00    -0.367 OA
ATOM     24  H7  UNL     1      33.454  10.907  70.091  1.00  0.00     0.212 HD
ENDBRANCH  22  23
BRANCH  22  25
HETATM   25  O8  UNL     1      34.252  10.099  67.622  1.00  0.00    -0.319 OA
BRANCH  25  26
HETATM   26  C14 UNL     1      34.268   9.089  66.897  1.00  0.00     0.182 C
HETATM   27  C15 UNL     1      35.229   8.018  67.468  1.00  0.00     0.081 C
BRANCH  26  28
HETATM   28  O9  UNL     1      33.045   8.408  66.649  1.00  0.00    -0.364 OA
ATOM     29  H9  UNL     1      32.456   8.250  67.378  1.00  0.00     0.213 HD
ENDBRANCH  26  28
BRANCH  26  30
HETATM   30  C16 UNL     1      34.796   9.320  65.444  1.00  0.00     0.232 C
BRANCH  30  31
HETATM   31  O10 UNL     1      35.195   8.113  64.881  1.00  0.00    -0.396 OA
ATOM     32  H10 UNL     1      35.128   8.155  63.935  1.00  0.00     0.209 HD
ENDBRANCH  30  31
ENDBRANCH  26  30
ENDBRANCH  25  26
ENDBRANCH  22  25
ENDBRANCH  19  22
ENDBRANCH  17  19
ENDBRANCH   1  17
TORSDOF 13
ENDMDL