MODEL 5
REMARK VINA RESULT: -7.314321340      1.888      3.986
REMARK  11 active torsions:
REMARK  status: ('A' for Active; 'I' for Inactive)
REMARK    1  A    between atoms: O1_2  and  C2_3
REMARK    2  A    between atoms: C4_5  and  N1_6
REMARK       I    between atoms: N1_6  and  C5_8
REMARK    3  A    between atoms: C5_8  and  C6_10
REMARK    4  A    between atoms: C6_10  and  C7_11
REMARK    5  A    between atoms: C7_11  and  N2_12
REMARK    6  A    between atoms: C7_11  and  N3_15
REMARK    7  A    between atoms: N3_15  and  N4_17
REMARK    8  A    between atoms: N4_17  and  C8_18
REMARK    9  A    between atoms: N7_24  and  N8_25
REMARK   10  A    between atoms: C10_28  and  N9_29
REMARK   11  A    between atoms: C12_33  and  N10_34
ROOT
HETATM    1  N1  UNL     1      38.842  10.298  67.411  1.00  0.00    -0.325 N
ATOM      2  H1  UNL     1      39.118   9.615  66.706  1.00  0.00     0.169 HD
HETATM    3  C5  UNL     1      39.815  10.660  68.358  1.00  0.00     0.229 C
HETATM    4  O2  UNL     1      39.609  11.467  69.267  1.00  0.00    -0.273 OA
ENDROOT
BRANCH   3   5
HETATM    5  C6  UNL     1      41.207  10.043  68.291  1.00  0.00     0.181 C
BRANCH   5   6
HETATM    6  C7  UNL     1      42.134  10.906  67.556  1.00  0.00     0.110 C
BRANCH   6   7
HETATM    7  N2  UNL     1      42.117  12.164  67.709  1.00  0.00    -0.387 N
ATOM      8  H22 UNL     1      41.417  12.567  68.334  1.00  0.00     0.157 HD
ATOM      9  H21 UNL     1      42.784  12.763  67.223  1.00  0.00     0.157 HD
ENDBRANCH   6   7
BRANCH   6  10
HETATM   10  N3  UNL     1      43.090  10.342  66.638  1.00  0.00    -0.220 N
ATOM     11  H3  UNL     1      44.044  10.241  66.982  1.00  0.00     0.203 HD
BRANCH  10  12
HETATM   12  N4  UNL     1      42.870   9.954  65.434  1.00  0.00    -0.283 NA
BRANCH  12  13
HETATM   13  C8  UNL     1      42.670   9.592  64.336  1.00  0.00     0.318 A
HETATM   14  N5  UNL     1      41.593   9.879  63.529  1.00  0.00    -0.307 N
HETATM   15  C9  UNL     1      41.745   9.277  62.357  1.00  0.00     0.203 A
ATOM     16  H5  UNL     1      40.800  10.463  63.792  1.00  0.00     0.171 HD
HETATM   17  N6  UNL     1      42.896   8.608  62.383  1.00  0.00    -0.272 N
HETATM   18  N7  UNL     1      43.456   8.783  63.548  1.00  0.00    -0.154 N
ATOM     19  H6  UNL     1      43.276   8.049  61.618  1.00  0.00     0.190 HD
BRANCH  18  20
HETATM   20  N8  UNL     1      44.695   8.237  63.966  1.00  0.00    -0.320 N
ATOM     21  H82 UNL     1      45.617   8.634  63.783  1.00  0.00     0.179 HD
ATOM     22  H81 UNL     1      44.783   7.377  64.506  1.00  0.00     0.179 HD
ENDBRANCH  18  20
ENDBRANCH  12  13
ENDBRANCH  10  12
ENDBRANCH   6  10
ENDBRANCH   5   6
ENDBRANCH   3   5
BRANCH   1  23
HETATM   23  C4  UNL     1      37.532  10.787  67.342  1.00  0.00     0.070 A
HETATM   24  C3  UNL     1      37.143  12.080  67.610  1.00  0.00     0.071 A
HETATM   25  C2  UNL     1      35.839  12.535  67.565  1.00  0.00     0.103 A
HETATM   26  C12 UNL     1      34.806  11.667  67.232  1.00  0.00     0.138 A
HETATM   27  C11 UNL     1      35.150  10.383  66.959  1.00  0.00     0.077 A
HETATM   28  C10 UNL     1      36.480   9.919  67.005  1.00  0.00     0.132 A
BRANCH  25  29
HETATM   29  O1  UNL     1      35.494  13.833  67.839  1.00  0.00    -0.353 OA
HETATM   30  C1  UNL     1      35.823  14.856  66.917  1.00  0.00     0.210 C
ENDBRANCH  25  29
BRANCH  26  31
HETATM   31  N10 UNL     1      33.471  12.110  67.169  1.00  0.00    -0.113 N
HETATM   32  O5  UNL     1      33.131  12.894  66.273  1.00  0.00    -0.532 OA
HETATM   33  O6  UNL     1      32.554  11.684  68.080  1.00  0.00    -0.532 OA
ENDBRANCH  26  31
BRANCH  28  34
HETATM   34  N9  UNL     1      36.729   8.565  66.701  1.00  0.00    -0.113 N
HETATM   35  O3  UNL     1      37.783   7.974  66.518  1.00  0.00    -0.532 OA
HETATM   36  O4  UNL     1      35.587   7.762  66.528  1.00  0.00    -0.532 OA
ENDBRANCH  28  34
ENDBRANCH   1  23
TORSDOF 11
ENDMDL