MODEL 1
REMARK VINA RESULT: -8.893712313      0.000      0.000
REMARK  8 active torsions:
REMARK  status: ('A' for Active; 'I' for Inactive)
REMARK    1  A    between atoms: N1_2  and  N2_4
REMARK    2  A    between atoms: N3_6  and  C2_8
REMARK    3  A    between atoms: C4_10  and  N4_11
REMARK    4  A    between atoms: C5_14  and  N5_15
REMARK    5  A    between atoms: N5_15  and  S1_17
REMARK    6  A    between atoms: S1_17  and  C6_20
REMARK    7  A    between atoms: C6_20  and  N6_21
REMARK    8  A    between atoms: C8_28  and  N9_29
ROOT
HETATM    1  S1  UNL     1      39.052  10.279  66.691  1.00  0.00     0.270 S
HETATM    2  O3  UNL     1      39.460  10.320  65.207  1.00  0.00    -0.200 OA
HETATM    3  O4  UNL     1      38.565  11.698  67.048  1.00  0.00    -0.200 OA
ENDROOT
BRANCH   1   4
HETATM    4  N5  UNL     1      37.753   9.227  66.878  1.00  0.00    -0.257 N
ATOM      5  H5  UNL     1      37.980   8.233  66.851  1.00  0.00     0.181 HD
BRANCH   4   6
HETATM    6  C5  UNL     1      36.380   9.544  67.069  1.00  0.00     0.193 A
HETATM    7  C4  UNL     1      35.377   8.846  66.389  1.00  0.00     0.158 A
HETATM    8  C3  UNL     1      34.177   9.391  66.791  1.00  0.00     0.098 A
HETATM    9  C2  UNL     1      34.482  10.388  67.687  1.00  0.00     0.168 A
HETATM   10  O6  UNL     1      35.765  10.407  67.788  1.00  0.00    -0.272 OA
BRANCH   7  11
HETATM   11  N4  UNL     1      35.514   7.788  65.454  1.00  0.00    -0.111 N
HETATM   12  O1  UNL     1      35.898   6.682  65.852  1.00  0.00    -0.532 OA
HETATM   13  O2  UNL     1      35.224   7.990  64.141  1.00  0.00    -0.532 OA
ENDBRANCH   7  11
BRANCH   9  14
HETATM   14  N3  UNL     1      33.508  11.211  68.348  1.00  0.00    -0.265 N
HETATM   15  N2  UNL     1      33.209  12.363  67.904  1.00  0.00    -0.246 N
ATOM     16  H2  UNL     1      32.513  12.916  68.405  1.00  0.00     0.208 HD
ATOM     17  H3  UNL     1      33.048  10.865  69.190  1.00  0.00     0.190 HD
BRANCH  15  18
HETATM   18  N1  UNL     1      33.795  12.903  66.758  1.00  0.00    -0.326 N
HETATM   19  C1  UNL     1      34.950  13.778  66.805  1.00  0.00     0.169 C
ATOM     20  H1  UNL     1      33.394  12.671  65.849  1.00  0.00     0.181 HD
ENDBRANCH  15  18
ENDBRANCH   9  14
ENDBRANCH   4   6
ENDBRANCH   1   4
BRANCH   1  21
HETATM   21  C6  UNL     1      40.513  10.039  67.587  1.00  0.00     0.251 C
BRANCH  21  22
HETATM   22  N6  UNL     1      40.899  10.985  68.581  1.00  0.00    -0.093 N
HETATM   23  C7  UNL     1      40.249  11.188  69.742  1.00  0.00     0.701 A
HETATM   24  N7  UNL     1      39.181  10.552  69.999  1.00  0.00    -0.233 N
HETATM   25  N8  UNL     1      40.688  12.097  70.670  1.00  0.00    -0.022 N
ATOM     26  H72 UNL     1      38.855   9.876  69.308  1.00  0.00     0.174 HD
ATOM     27  H71 UNL     1      38.689  10.706  70.879  1.00  0.00     0.174 HD
HETATM   28  C8  UNL     1      41.789  12.824  70.452  1.00  0.00     0.694 A
ATOM     29  H8  UNL     1      40.166  12.221  71.538  1.00  0.00     0.203 HD
HETATM   30  N10 UNL     1      42.442  12.631  69.299  1.00  0.00    -0.140 N
HETATM   31  C9  UNL     1      42.020  11.754  68.403  1.00  0.00     0.359 A
ATOM     32  H10 UNL     1      43.285  13.172  69.107  1.00  0.00     0.189 HD
HETATM   33  O5  UNL     1      42.665  11.604  67.332  1.00  0.00    -0.245 OA
BRANCH  28  34
HETATM   34  N9  UNL     1      42.197  13.683  71.339  1.00  0.00    -0.234 N
ATOM     35  H92 UNL     1      42.527  13.393  72.260  1.00  0.00     0.174 HD
ATOM     36  H91 UNL     1      42.195  14.681  71.130  1.00  0.00     0.174 HD
ENDBRANCH  28  34
ENDBRANCH  21  22
ENDBRANCH   1  21
TORSDOF 8
ENDMDL