MODEL 3
REMARK VINA RESULT: -8.275768469      0.955      1.461
REMARK  11 active torsions:
REMARK  status: ('A' for Active; 'I' for Inactive)
REMARK    1  A    between atoms: C2_3  and  O1_4
REMARK    2  A    between atoms: C3_6  and  N2_7
REMARK    3  A    between atoms: N2_7  and  C4_8
REMARK    4  A    between atoms: C4_8  and  O2_9
REMARK    5  A    between atoms: C4_8  and  C5_11
REMARK    6  A    between atoms: C5_11  and  O3_12
REMARK    7  A    between atoms: O3_12  and  C6_13
REMARK    8  A    between atoms: C6_13  and  C7_14
REMARK       I    between atoms: C7_14  and  N3_16
REMARK    9  A    between atoms: N3_16  and  N4_18
REMARK   10  A    between atoms: C9_20  and  N5_21
REMARK   11  A    between atoms: C10_25  and  N6_26
ROOT
HETATM    1  O3  UNL     1      40.344  10.365  70.107  1.00  0.00    -0.373 OA
ENDROOT
BRANCH   1   2
HETATM    2  C5  UNL     1      41.559  10.326  69.676  1.00  0.00     0.268 C
BRANCH   2   3
HETATM    3  C4  UNL     1      41.967  11.087  68.486  1.00  0.00     0.216 C
BRANCH   3   4
HETATM    4  N2  UNL     1      41.934  10.756  67.199  1.00  0.00    -0.360 NA
BRANCH   4   5
HETATM    5  C3  UNL     1      41.899  10.414  65.875  1.00  0.00     0.237 A
HETATM    6  C2  UNL     1      42.862   9.523  65.285  1.00  0.00     0.206 A
HETATM    7  N1  UNL     1      42.590   9.338  64.011  1.00  0.00    -0.280 N
HETATM    8  C1  UNL     1      43.352   8.483  63.060  1.00  0.00     0.163 C
HETATM    9  C11 UNL     1      41.505  10.054  63.711  1.00  0.00     0.330 A
HETATM   10  N7  UNL     1      41.104  10.690  64.850  1.00  0.00    -0.279 N
HETATM   11  O7  UNL     1      40.949  10.128  62.582  1.00  0.00    -0.246 OA
ATOM     12  H7  UNL     1      40.292  11.304  64.906  1.00  0.00     0.173 HD
BRANCH   6  13
HETATM   13  O1  UNL     1      43.890   8.987  66.029  1.00  0.00    -0.342 OA
ATOM     14  H1  UNL     1      44.151   9.200  66.917  1.00  0.00     0.219 HD
ENDBRANCH   6  13
ENDBRANCH   4   5
ENDBRANCH   3   4
BRANCH   3  15
HETATM   15  O2  UNL     1      42.435  12.266  68.792  1.00  0.00    -0.337 OA
ATOM     16  H2  UNL     1      42.907  12.737  68.115  1.00  0.00     0.220 HD
ENDBRANCH   3  15
ENDBRANCH   2   3
ENDBRANCH   1   2
BRANCH   1  17
HETATM   17  C6  UNL     1      39.519  11.380  70.350  1.00  0.00     0.272 C
BRANCH  17  18
HETATM   18  C7  UNL     1      38.546  11.382  69.122  1.00  0.00     0.260 C
HETATM   19  O4  UNL     1      38.918  12.067  68.188  1.00  0.00    -0.269 OA
HETATM   20  N3  UNL     1      37.427  10.616  69.275  1.00  0.00    -0.260 N
ATOM     21  H3  UNL     1      37.358  10.166  70.187  1.00  0.00     0.190 HD
BRANCH  20  22
HETATM   22  N4  UNL     1      36.345  10.328  68.411  1.00  0.00    -0.240 N
HETATM   23  C8  UNL     1      36.458   9.286  67.567  1.00  0.00     0.162 A
HETATM   24  C9  UNL     1      35.470   9.032  66.690  1.00  0.00     0.164 A
HETATM   25  S1  UNL     1      34.350  10.245  67.026  1.00  0.00    -0.027 SA
HETATM   26  C10 UNL     1      35.243  11.055  68.321  1.00  0.00     0.165 A
BRANCH  24  27
HETATM   27  N5  UNL     1      35.434   7.953  65.716  1.00  0.00    -0.107 N
HETATM   28  O5  UNL     1      35.384   6.820  66.215  1.00  0.00    -0.531 OA
HETATM   29  O6  UNL     1      35.452   8.192  64.382  1.00  0.00    -0.531 OA
ENDBRANCH  24  27
BRANCH  26  30
HETATM   30  N6  UNL     1      34.776  12.116  68.851  1.00  0.00    -0.378 N
ATOM     31  H62 UNL     1      33.984  12.060  69.491  1.00  0.00     0.158 HD
ATOM     32  H61 UNL     1      34.941  13.120  68.786  1.00  0.00     0.158 HD
ENDBRANCH  26  30
ENDBRANCH  20  22
ENDBRANCH  17  18
ENDBRANCH   1  17
TORSDOF 11
ENDMDL