MODEL 1
REMARK VINA RESULT: -8.854811408      0.000      0.000
REMARK  9 active torsions:
REMARK  status: ('A' for Active; 'I' for Inactive)
REMARK    1  A    between atoms: N1_1  and  C1_4
REMARK    2  A    between atoms: C2_7  and  C3_8
REMARK    3  A    between atoms: N3_9  and  O1_11
REMARK    4  A    between atoms: O1_11  and  C4_12
REMARK    5  A    between atoms: C4_12  and  C5_14
REMARK    6  A    between atoms: C5_14  and  C6_15
REMARK    7  A    between atoms: C6_15  and  O3_16
REMARK    8  A    between atoms: O3_16  and  C7_17
REMARK    9  A    between atoms: C12_30  and  N6_31
ROOT
HETATM    1  C1  UNL     1      39.828  10.662  66.284  1.00  0.00     0.134 A
HETATM    2  N2  UNL     1      38.611  10.622  66.832  1.00  0.00    -0.338 N
ATOM      3  H2  UNL     1      37.834  10.301  66.253  1.00  0.00     0.167 HD
HETATM    4  C2  UNL     1      38.348  10.980  68.100  1.00  0.00     0.079 A
HETATM    5  C8  UNL     1      39.364  11.418  68.923  1.00  0.00     0.083 A
HETATM    6  N4  UNL     1      39.156  11.771  70.200  1.00  0.00    -0.305 N
ATOM      7  H4  UNL     1      38.213  11.732  70.589  1.00  0.00     0.171 HD
HETATM    8  C9  UNL     1      40.195  12.182  70.985  1.00  0.00     0.327 A
HETATM    9  O6  UNL     1      40.003  12.513  72.180  1.00  0.00    -0.247 OA
HETATM   10  N5  UNL     1      41.431  12.231  70.470  1.00  0.00    -0.275 N
ATOM     11  H5  UNL     1      42.200  12.538  71.065  1.00  0.00     0.173 HD
HETATM   12  C10 UNL     1      41.698  11.886  69.185  1.00  0.00     0.264 A
HETATM   13  O7  UNL     1      42.851  11.933  68.720  1.00  0.00    -0.267 OA
HETATM   14  C11 UNL     1      40.654  11.471  68.384  1.00  0.00     0.098 A
HETATM   15  C12 UNL     1      40.911  11.101  67.064  1.00  0.00     0.164 A
ENDROOT
BRANCH   4  16
HETATM   16  C3  UNL     1      36.981  10.939  68.625  1.00  0.00     0.146 C
HETATM   17  N3  UNL     1      36.167  11.917  68.255  1.00  0.00    -0.267 N
ATOM     18  H3  UNL     1      36.480  12.661  67.632  1.00  0.00     0.194 HD
BRANCH  17  19
HETATM   19  O1  UNL     1      34.864  11.886  68.754  1.00  0.00    -0.200 OA
BRANCH  19  20
HETATM   20  C4  UNL     1      33.904  11.029  68.241  1.00  0.00     0.283 C
HETATM   21  O2  UNL     1      32.802  10.937  68.871  1.00  0.00    -0.263 OA
BRANCH  20  22
HETATM   22  C5  UNL     1      34.153  10.252  67.014  1.00  0.00     0.140 C
BRANCH  22  23
HETATM   23  C6  UNL     1      34.437   8.808  67.202  1.00  0.00     0.192 C
BRANCH  23  24
HETATM   24  O3  UNL     1      35.699   8.376  66.753  1.00  0.00    -0.295 OA
BRANCH  24  25
HETATM   25  C7  UNL     1      35.975   8.478  65.401  1.00  0.00     0.332 C
HETATM   26  O4  UNL     1      37.060   9.070  65.084  1.00  0.00    -0.624 OA
HETATM   27  O5  UNL     1      35.172   7.991  64.410  1.00  0.00    -0.624 OA
ENDBRANCH  24  25
ENDBRANCH  23  24
ENDBRANCH  22  23
ENDBRANCH  20  22
ENDBRANCH  19  20
ENDBRANCH  17  19
ENDBRANCH   4  16
BRANCH   1  28
HETATM   28  N1  UNL     1      40.047  10.307  65.061  1.00  0.00    -0.383 N
ATOM     29  H12 UNL     1      39.325   9.782  64.567  1.00  0.00     0.157 HD
ATOM     30  H11 UNL     1      40.914  10.536  64.574  1.00  0.00     0.157 HD
ENDBRANCH   1  28
BRANCH  15  31
HETATM   31  N6  UNL     1      42.195  11.208  66.483  1.00  0.00    -0.111 N
HETATM   32  O8  UNL     1      42.609  12.301  66.100  1.00  0.00    -0.532 OA
HETATM   33  O9  UNL     1      42.994  10.102  66.347  1.00  0.00    -0.532 OA
ENDBRANCH  15  31
TORSDOF 9
ENDMDL