MODEL 3
REMARK VINA RESULT: -7.058535195      1.311      2.468
REMARK  9 active torsions:
REMARK  status: ('A' for Active; 'I' for Inactive)
REMARK    1  A    between atoms: N1_2  and  C2_4
REMARK    2  A    between atoms: C4_16  and  C5_17
REMARK    3  A    between atoms: C5_17  and  N7_18
REMARK    4  A    between atoms: C5_17  and  O4_34
REMARK    5  A    between atoms: N7_18  and  C6_20
REMARK    6  A    between atoms: C6_20  and  C7_21
REMARK    7  A    between atoms: C9_23  and  O1_24
REMARK    8  A    between atoms: C11_26  and  O2_27
REMARK    9  A    between atoms: C12_29  and  O3_30
ROOT
HETATM    1  C2  UNL     1      42.112   9.219  62.623  1.00  0.00     0.694 A
HETATM    2  N2  UNL     1      43.274   8.577  62.766  1.00  0.00    -0.021 N
ATOM      3  H2  UNL     1      43.693   8.139  61.946  1.00  0.00     0.203 HD
HETATM    4  C3  UNL     1      43.913   8.481  63.941  1.00  0.00     0.714 A
HETATM    5  N3  UNL     1      45.013   7.873  64.076  1.00  0.00    -0.232 N
ATOM      6  H31 UNL     1      45.499   7.801  64.970  1.00  0.00     0.174 HD
ATOM      7  H32 UNL     1      45.469   7.423  63.282  1.00  0.00     0.174 HD
HETATM    8  N4  UNL     1      43.296   9.091  65.014  1.00  0.00    -0.052 N
HETATM    9  N5  UNL     1      43.650   9.124  66.261  1.00  0.00    -0.219 N
ATOM     10  H5  UNL     1      44.493   8.699  66.645  1.00  0.00     0.209 HD
HETATM   11  N6  UNL     1      42.754   9.790  66.953  1.00  0.00    -0.281 N
ATOM     12  H6  UNL     1      42.798   9.960  67.957  1.00  0.00     0.188 HD
HETATM   13  C4  UNL     1      41.720  10.236  66.099  1.00  0.00     0.122 A
HETATM   14  C15 UNL     1      42.138   9.744  64.895  1.00  0.00     0.190 A
HETATM   15  N9  UNL     1      41.528   9.818  63.710  1.00  0.00    -0.172 N
ATOM     16  H9  UNL     1      40.642  10.313  63.615  1.00  0.00     0.186 HD
ENDROOT
BRANCH  13  17
HETATM   17  C5  UNL     1      40.773  11.163  66.619  1.00  0.00     0.272 C
BRANCH  17  18
HETATM   18  N7  UNL     1      39.572  10.998  67.265  1.00  0.00    -0.387 N
ATOM     19  H7  UNL     1      39.385  11.477  68.145  1.00  0.00     0.156 HD
BRANCH  18  20
HETATM   20  C6  UNL     1      38.571  10.128  66.669  1.00  0.00     0.174 C
BRANCH  20  21
HETATM   21  C7  UNL     1      37.215  10.551  67.031  1.00  0.00     0.031 A
HETATM   22  C8  UNL     1      37.017  11.894  67.227  1.00  0.00     0.066 A
HETATM   23  C9  UNL     1      35.761  12.374  67.459  1.00  0.00     0.107 A
HETATM   24  C11 UNL     1      34.729  11.494  67.492  1.00  0.00     0.150 A
HETATM   25  C12 UNL     1      34.921  10.105  67.296  1.00  0.00     0.179 A
HETATM   26  N8  UNL     1      36.182   9.722  67.075  1.00  0.00    -0.337 N
ATOM     27  H8  UNL     1      36.361   8.728  66.930  1.00  0.00     0.168 HD
BRANCH  23  28
HETATM   28  O1  UNL     1      35.572  13.762  67.657  1.00  0.00    -0.353 OA
HETATM   29  C10 UNL     1      35.294  14.528  66.480  1.00  0.00     0.210 C
ENDBRANCH  23  28
BRANCH  24  30
HETATM   30  O2  UNL     1      33.443  11.894  67.706  1.00  0.00    -0.355 OA
ATOM     31  H2  UNL     1      32.701  11.406  67.370  1.00  0.00     0.218 HD
ENDBRANCH  24  30
BRANCH  25  32
HETATM   32  O3  UNL     1      33.845   9.257  67.340  1.00  0.00    -0.339 OA
HETATM   33  C13 UNL     1      33.821   8.121  66.509  1.00  0.00     0.211 C
ENDBRANCH  25  32
ENDBRANCH  20  21
ENDBRANCH  18  20
ENDBRANCH  17  18
BRANCH  17  34
HETATM   34  O4  UNL     1      41.560  11.835  67.701  1.00  0.00    -0.366 OA
HETATM   35  C14 UNL     1      40.743  12.266  68.699  1.00  0.00     0.204 C
ENDBRANCH  17  34
ENDBRANCH  13  17
BRANCH   1  36
HETATM   36  N1  UNL     1      41.445   9.311  61.509  1.00  0.00    -0.230 N
HETATM   37  C1  UNL     1      42.217   9.528  60.269  1.00  0.00     0.165 C
ATOM     38  H1  UNL     1      40.427   9.236  61.493  1.00  0.00     0.177 HD
ENDBRANCH   1  36
TORSDOF 9
ENDMDL