MODEL 3
REMARK VINA RESULT: -5.519243913      4.881      8.045
REMARK  10 active torsions:
REMARK  status: ('A' for Active; 'I' for Inactive)
REMARK    1  A    between atoms: O1_2  and  C2_3
REMARK    2  A    between atoms: C4_5  and  C5_6
REMARK    3  A    between atoms: C5_6  and  N1_7
REMARK    4  A    between atoms: N1_7  and  C6_9
REMARK    5  A    between atoms: C7_12  and  N3_13
REMARK    6  A    between atoms: N6_21  and  N7_22
REMARK    7  A    between atoms: N7_22  and  N8_24
REMARK    8  A    between atoms: N8_24  and  N9_25
REMARK    9  A    between atoms: C12_32  and  O2_33
REMARK   10  A    between atoms: C14_35  and  O3_36
ROOT
HETATM    1  C6  UNL     1      39.616   9.921  66.929  1.00  0.00     0.681 A
HETATM    2  N2  UNL     1      40.383  10.013  65.828  1.00  0.00    -0.175 N
ATOM      3  H2  UNL     1      40.091   9.539  64.974  1.00  0.00     0.186 HD
HETATM    4  C7  UNL     1      41.526  10.718  65.833  1.00  0.00     0.147 A
HETATM    5  C8  UNL     1      41.878  11.342  67.011  1.00  0.00     0.142 A
HETATM    6  N4  UNL     1      42.926  12.107  67.361  1.00  0.00    -0.278 N
ATOM      7  H4  UNL     1      43.696  12.367  66.744  1.00  0.00     0.189 HD
HETATM    8  N5  UNL     1      42.809  12.469  68.618  1.00  0.00    -0.218 N
ATOM      9  H5  UNL     1      43.481  13.054  69.114  1.00  0.00     0.210 HD
HETATM   10  N6  UNL     1      41.682  11.966  69.169  1.00  0.00    -0.147 N
HETATM   11  C10 UNL     1      41.108  11.265  68.163  1.00  0.00     0.195 A
HETATM   12  N10 UNL     1      39.981  10.549  68.097  1.00  0.00    -0.171 N
ATOM     13  H10 UNL     1      39.386  10.468  68.921  1.00  0.00     0.186 HD
ENDROOT
BRANCH   1  14
HETATM   14  N1  UNL     1      38.517   9.269  67.000  1.00  0.00    -0.222 N
ATOM     15  H1  UNL     1      38.391   8.727  67.855  1.00  0.00     0.178 HD
BRANCH  14  16
HETATM   16  C5  UNL     1      37.448   9.186  66.072  1.00  0.00     0.176 C
BRANCH  16  17
HETATM   17  C4  UNL     1      36.218   9.862  66.630  1.00  0.00    -0.035 A
HETATM   18  C3  UNL     1      36.262  11.206  66.887  1.00  0.00     0.048 A
HETATM   19  C2  UNL     1      35.169  11.868  67.397  1.00  0.00     0.104 A
HETATM   20  C14 UNL     1      34.025  11.154  67.644  1.00  0.00     0.135 A
HETATM   21  C12 UNL     1      33.972   9.801  67.388  1.00  0.00     0.104 A
HETATM   22  C11 UNL     1      35.071   9.151  66.879  1.00  0.00     0.048 A
BRANCH  19  23
HETATM   23  O1  UNL     1      35.225  13.255  67.658  1.00  0.00    -0.353 OA
HETATM   24  C1  UNL     1      35.407  14.183  66.628  1.00  0.00     0.210 C
ENDBRANCH  19  23
BRANCH  20  25
HETATM   25  O3  UNL     1      32.911  11.817  68.161  1.00  0.00    -0.351 OA
HETATM   26  C15 UNL     1      32.743  11.843  69.563  1.00  0.00     0.210 C
ENDBRANCH  20  25
BRANCH  21  27
HETATM   27  O2  UNL     1      32.779   9.160  67.667  1.00  0.00    -0.353 OA
HETATM   28  C13 UNL     1      32.086   8.369  66.731  1.00  0.00     0.210 C
ENDBRANCH  21  27
ENDBRANCH  16  17
ENDBRANCH  14  16
ENDBRANCH   1  14
BRANCH   4  29
HETATM   29  N3  UNL     1      42.233  10.785  64.765  1.00  0.00    -0.383 N
ATOM     30  H32 UNL     1      42.691   9.976  64.346  1.00  0.00     0.157 HD
ATOM     31  H31 UNL     1      42.355  11.684  64.299  1.00  0.00     0.157 HD
ENDBRANCH   4  29
BRANCH  10  32
HETATM   32  N7  UNL     1      41.274  12.169  70.485  1.00  0.00    -0.199 N
HETATM   33  C9  UNL     1      40.023  11.598  70.937  1.00  0.00     0.199 C
BRANCH  32  34
HETATM   34  N8  UNL     1      42.014  12.895  71.390  1.00  0.00    -0.010 NA
BRANCH  34  35
HETATM   35  N9  UNL     1      41.651  14.225  71.479  1.00  0.00    -0.327 N
ATOM     36  H92 UNL     1      41.828  14.780  72.316  1.00  0.00     0.174 HD
ATOM     37  H91 UNL     1      41.198  14.590  70.641  1.00  0.00     0.174 HD
ENDBRANCH  34  35
ENDBRANCH  32  34
ENDBRANCH  10  32
TORSDOF 10
ENDMDL