MODEL 3
REMARK VINA RESULT: -8.174746641      2.370      7.020
REMARK  9 active torsions:
REMARK  status: ('A' for Active; 'I' for Inactive)
REMARK    1  A    between atoms: N1_2  and  C2_5
REMARK    2  A    between atoms: C2_5  and  O1_6
REMARK    3  A    between atoms: C2_5  and  C3_8
REMARK    4  A    between atoms: C4_13  and  C5_14
REMARK    5  A    between atoms: C5_14  and  N4_16
REMARK    6  A    between atoms: N4_16  and  N5_18
REMARK    7  A    between atoms: N5_18  and  C7_20
REMARK    8  A    between atoms: C8_21  and  N6_22
REMARK    9  A    between atoms: N8_31  and  C11_32
ROOT
HETATM    1  N4  UNL     1      38.673  10.182  66.523  1.00  0.00    -0.300 N
ATOM      2  H4  UNL     1      38.832  10.967  65.891  1.00  0.00     0.186 HD
ENDROOT
BRANCH   1   3
HETATM    3  C5  UNL     1      37.539   9.569  66.489  1.00  0.00     0.067 C
HETATM    4  C6  UNL     1      37.355   8.278  65.780  1.00  0.00     0.074 C
BRANCH   3   5
HETATM    5  C4  UNL     1      36.400  10.150  67.157  1.00  0.00     0.145 A
HETATM    6  N3  UNL     1      35.803   9.744  68.295  1.00  0.00    -0.282 N
HETATM    7  N2  UNL     1      34.790  10.543  68.588  1.00  0.00    -0.284 N
ATOM      8  H3  UNL     1      36.090   8.938  68.850  1.00  0.00     0.188 HD
HETATM    9  C3  UNL     1      34.707  11.486  67.644  1.00  0.00     0.155 A
ATOM     10  H2  UNL     1      34.176  10.454  69.398  1.00  0.00     0.188 HD
HETATM   11  N9  UNL     1      35.714  11.223  66.767  1.00  0.00    -0.325 N
ATOM     12  H9  UNL     1      35.914  11.769  65.929  1.00  0.00     0.169 HD
BRANCH   9  13
HETATM   13  C2  UNL     1      33.784  12.624  67.518  1.00  0.00     0.388 C
BRANCH  13  14
HETATM   14  N1  UNL     1      34.155  13.453  66.403  1.00  0.00    -0.046 N
HETATM   15  C1  UNL     1      35.184  14.383  66.798  1.00  0.00     0.270 C
ATOM     16  H12 UNL     1      33.349  13.926  65.994  1.00  0.00     0.280 HD
ATOM     17  H11 UNL     1      34.431  12.900  65.591  1.00  0.00     0.280 HD
ENDBRANCH  13  14
BRANCH  13  18
HETATM   18  O1  UNL     1      32.488  12.178  67.506  1.00  0.00    -0.364 OA
ATOM     19  H1  UNL     1      32.387  11.233  67.511  1.00  0.00     0.212 HD
ENDBRANCH  13  18
ENDBRANCH   9  13
ENDBRANCH   3   5
ENDBRANCH   1   3
BRANCH   1  20
HETATM   20  N5  UNL     1      39.696   9.800  67.407  1.00  0.00    -0.283 N
ATOM     21  H5  UNL     1      39.726   8.838  67.744  1.00  0.00     0.188 HD
BRANCH  20  22
HETATM   22  C7  UNL     1      40.659  10.688  67.831  1.00  0.00     0.166 A
HETATM   23  C8  UNL     1      40.495  11.238  69.106  1.00  0.00     0.216 A
HETATM   24  C9  UNL     1      41.486  12.106  69.580  1.00  0.00     0.286 A
HETATM   25  O4  UNL     1      41.361  12.610  70.717  1.00  0.00    -0.265 OA
HETATM   26  N7  UNL     1      42.519  12.355  68.792  1.00  0.00    -0.273 N
HETATM   27  C10 UNL     1      42.639  11.812  67.583  1.00  0.00     0.331 A
ATOM     28  H7  UNL     1      43.250  12.985  69.123  1.00  0.00     0.173 HD
HETATM   29  O5  UNL     1      43.684  12.145  66.946  1.00  0.00    -0.246 OA
HETATM   30  N8  UNL     1      41.708  10.945  67.038  1.00  0.00    -0.278 N
BRANCH  23  31
HETATM   31  N6  UNL     1      39.394  11.002  69.960  1.00  0.00    -0.106 N
HETATM   32  O2  UNL     1      38.242  11.167  69.550  1.00  0.00    -0.531 OA
HETATM   33  O3  UNL     1      39.618  10.631  71.250  1.00  0.00    -0.531 OA
ENDBRANCH  23  31
BRANCH  30  34
HETATM   34  C11 UNL     1      42.069  10.505  65.773  1.00  0.00     0.088 C
HETATM   35  C12 UNL     1      41.256  10.333  64.603  1.00  0.00     0.032 C
HETATM   36  C13 UNL     1      42.851   9.178  65.973  1.00  0.00     0.032 C
ENDBRANCH  30  34
ENDBRANCH  20  22
ENDBRANCH   1  20
TORSDOF 9
ENDMDL