MODEL 2
REMARK VINA RESULT: -8.619987708      1.535      1.984
REMARK  12 active torsions:
REMARK  status: ('A' for Active; 'I' for Inactive)
REMARK    1  A    between atoms: C2_2  and  O1_5
REMARK    2  A    between atoms: O1_5  and  S1_6
REMARK    3  A    between atoms: S1_6  and  O4_9
REMARK    4  A    between atoms: O4_9  and  C5_10
REMARK    5  A    between atoms: C6_11  and  C7_12
REMARK    6  A    between atoms: C7_12  and  O5_13
REMARK    7  A    between atoms: C7_12  and  C8_15
REMARK    8  A    between atoms: C8_15  and  O6_16
REMARK    9  A    between atoms: C8_15  and  C9_18
REMARK   10  A    between atoms: C9_18  and  O7_19
REMARK   11  A    between atoms: C10_22  and  O9_23
REMARK   12  A    between atoms: C11_25  and  N1_26
ROOT
HETATM    1  C5  UNL     1      39.525  10.941  68.130  1.00  0.00     0.176 A
HETATM    2  C6  UNL     1      40.531  11.425  68.933  1.00  0.00     0.126 A
HETATM    3  O8  UNL     1      41.730  11.497  68.392  1.00  0.00    -0.285 OA
HETATM    4  C10 UNL     1      42.004  11.140  67.159  1.00  0.00     0.222 A
HETATM    5  C11 UNL     1      41.045  10.648  66.300  1.00  0.00     0.213 A
HETATM    6  C12 UNL     1      39.771  10.553  66.821  1.00  0.00     0.246 A
HETATM    7  O12 UNL     1      38.870  10.106  66.065  1.00  0.00    -0.282 OA
ENDROOT
BRANCH   1   8
HETATM    8  O4  UNL     1      38.246  10.846  68.650  1.00  0.00    -0.204 OA
BRANCH   8   9
HETATM    9  S1  UNL     1      36.894  11.662  68.063  1.00  0.00     0.407 S
HETATM   10  O2  UNL     1      35.893  11.938  69.178  1.00  0.00    -0.168 OA
HETATM   11  O3  UNL     1      37.348  13.017  67.593  1.00  0.00    -0.168 OA
BRANCH   9  12
HETATM   12  O1  UNL     1      36.084  10.855  66.874  1.00  0.00    -0.243 OA
BRANCH  12  13
HETATM   13  C2  UNL     1      35.364   9.758  67.276  1.00  0.00     0.071 C
HETATM   14  C1  UNL     1      35.806   9.145  68.574  1.00  0.00     0.047 C
HETATM   15  C3  UNL     1      35.351   8.648  66.243  1.00  0.00     0.047 C
HETATM   16  C4  UNL     1      33.912  10.210  67.430  1.00  0.00     0.047 C
ENDBRANCH  12  13
ENDBRANCH   9  12
ENDBRANCH   8   9
ENDBRANCH   1   8
BRANCH   2  17
HETATM   17  C7  UNL     1      40.290  11.852  70.352  1.00  0.00     0.209 C
BRANCH  17  18
HETATM   18  O5  UNL     1      40.024  10.715  71.152  1.00  0.00    -0.386 OA
ATOM     19  H5  UNL     1      40.239   9.926  70.667  1.00  0.00     0.210 HD
ENDBRANCH  17  18
BRANCH  17  20
HETATM   20  C8  UNL     1      41.496  12.499  70.953  1.00  0.00     0.177 C
BRANCH  20  21
HETATM   21  O6  UNL     1      42.377  12.996  69.962  1.00  0.00    -0.390 OA
ATOM     22  H6  UNL     1      43.280  12.760  70.140  1.00  0.00     0.210 HD
ENDBRANCH  20  21
BRANCH  20  23
HETATM   23  C9  UNL     1      41.003  13.729  71.712  1.00  0.00     0.198 C
BRANCH  23  24
HETATM   24  O7  UNL     1      41.838  14.830  71.477  1.00  0.00    -0.398 OA
ATOM     25  H7  UNL     1      42.461  14.641  70.785  1.00  0.00     0.209 HD
ENDBRANCH  23  24
ENDBRANCH  20  23
ENDBRANCH  17  20
ENDBRANCH   2  17
BRANCH   5  26
HETATM   26  N1  UNL     1      41.353  10.263  64.966  1.00  0.00    -0.106 N
HETATM   27  O10 UNL     1      40.582  10.506  64.019  1.00  0.00    -0.531 OA
HETATM   28  O11 UNL     1      42.515   9.604  64.654  1.00  0.00    -0.531 OA
ENDBRANCH   5  26
BRANCH   4  29
HETATM   29  O9  UNL     1      43.307  11.243  66.645  1.00  0.00    -0.339 OA
ATOM     30  H9  UNL     1      43.468  11.242  65.709  1.00  0.00     0.220 HD
ENDBRANCH   4  29
TORSDOF 12
ENDMDL