MODEL 1
REMARK VINA RESULT: -7.640166855      0.000      0.000
REMARK  7 active torsions:
REMARK  status: ('A' for Active; 'I' for Inactive)
REMARK    1  A    between atoms: C2_9  and  N5_10
REMARK    2  A    between atoms: N5_10  and  N6_12
REMARK    3  A    between atoms: C3_14  and  C4_15
REMARK    4  A    between atoms: C4_15  and  C5_17
REMARK    5  A    between atoms: C6_19  and  N7_20
REMARK    6  A    between atoms: N7_20  and  C7_22
REMARK    7  A    between atoms: C12_32  and  O2_33
ROOT
HETATM    1  C5  UNL     1      25.706  46.016  45.542  1.00  0.00     0.110 A
HETATM    2  S1  UNL     1      26.886  44.802  45.884  1.00  0.00    -0.046 SA
HETATM    3  C6  UNL     1      27.066  45.097  47.557  1.00  0.00     0.147 A
HETATM    4  N9  UNL     1      26.223  46.100  47.770  1.00  0.00    -0.316 N
ATOM      5  H9  UNL     1      26.116  46.495  48.705  1.00  0.00     0.170 HD
HETATM    6  C12 UNL     1      25.530  46.575  46.767  1.00  0.00     0.163 A
ENDROOT
BRANCH   1   7
HETATM    7  C4  UNL     1      25.132  46.263  44.224  1.00  0.00     0.210 C
HETATM    8  O1  UNL     1      24.131  47.067  44.118  1.00  0.00    -0.285 OA
BRANCH   7   9
HETATM    9  C3  UNL     1      25.619  45.658  43.022  1.00  0.00     0.164 C
HETATM   10  N6  UNL     1      24.782  45.026  42.258  1.00  0.00    -0.294 N
ATOM     11  H6  UNL     1      23.798  44.971  42.522  1.00  0.00     0.186 HD
BRANCH  10  12
HETATM   12  N5  UNL     1      25.209  44.430  41.096  1.00  0.00    -0.129 N
ATOM     13  H5  UNL     1      26.189  44.159  41.006  1.00  0.00     0.205 HD
BRANCH  12  14
HETATM   14  C2  UNL     1      24.402  44.205  40.116  1.00  0.00     0.730 A
HETATM   15  N1  UNL     1      24.115  43.033  39.561  1.00  0.00    -0.110 N
HETATM   16  C1  UNL     1      24.628  41.715  39.910  1.00  0.00     0.199 C
HETATM   17  N2  UNL     1      23.237  43.208  38.571  1.00  0.00    -0.211 N
HETATM   18  N3  UNL     1      22.983  44.500  38.519  1.00  0.00    -0.213 N
ATOM     19  H2  UNL     1      22.840  42.484  37.973  1.00  0.00     0.210 HD
HETATM   20  N4  UNL     1      23.669  45.133  39.437  1.00  0.00    -0.114 N
ATOM     21  H3  UNL     1      22.344  44.942  37.858  1.00  0.00     0.210 HD
ATOM     22  H4  UNL     1      23.657  46.138  39.612  1.00  0.00     0.207 HD
ENDBRANCH  12  14
ENDBRANCH  10  12
ENDBRANCH   7   9
ENDBRANCH   1   7
BRANCH   6  23
HETATM   23  O2  UNL     1      24.598  47.655  46.903  1.00  0.00    -0.345 OA
ATOM     24  H2  UNL     1      23.678  47.450  47.023  1.00  0.00     0.219 HD
ENDBRANCH   6  23
BRANCH   3  25
HETATM   25  N7  UNL     1      27.843  44.493  48.435  1.00  0.00    -0.366 N
ATOM     26  H7  UNL     1      28.495  43.758  48.162  1.00  0.00     0.162 HD
BRANCH  25  27
HETATM   27  C7  UNL     1      27.717  44.932  49.805  1.00  0.00     0.086 C
HETATM   28  C8  UNL     1      28.667  46.090  50.020  1.00  0.00     0.052 C
HETATM   29  C9  UNL     1      30.033  45.602  50.462  1.00  0.00     0.234 C
HETATM   30  N8  UNL     1      30.349  44.340  49.835  1.00  0.00    -0.075 N
HETATM   31  C10 UNL     1      29.472  43.274  50.197  1.00  0.00     0.234 C
ATOM     32  H82 UNL     1      30.385  44.445  48.821  1.00  0.00     0.277 HD
ATOM     33  H81 UNL     1      31.319  44.083  50.017  1.00  0.00     0.277 HD
HETATM   34  C11 UNL     1      28.136  43.770  50.698  1.00  0.00     0.052 C
ENDBRANCH  25  27
ENDBRANCH   3  25
TORSDOF 7
ENDMDL