MODEL 1
REMARK VINA RESULT: -7.446070757      0.000      0.000
REMARK  8 active torsions:
REMARK  status: ('A' for Active; 'I' for Inactive)
REMARK    1  A    between atoms: C3_4  and  N2_5
REMARK    2  A    between atoms: N3_7  and  N4_9
REMARK    3  A    between atoms: N4_9  and  C4_11
REMARK    4  A    between atoms: C5_14  and  N6_15
REMARK    5  A    between atoms: C6_20  and  N8_21
REMARK    6  A    between atoms: N8_21  and  N9_23
REMARK    7  A    between atoms: C7_25  and  C8_27
REMARK    8  A    between atoms: N13_34  and  O2_35
ROOT
HETATM    1  N1  UNL     1      28.625  42.339  46.433  1.00  0.00    -0.190 NA
HETATM    2  C1  UNL     1      29.617  41.906  46.844  1.00  0.00     0.126 C
HETATM    3  C2  UNL     1      30.858  41.383  47.339  1.00  0.00     0.216 A
HETATM    4  C3  UNL     1      31.048  40.813  48.584  1.00  0.00     0.186 A
HETATM    5  N12 UNL     1      32.356  40.469  48.610  1.00  0.00    -0.219 N
ATOM      6  H12 UNL     1      32.835  40.020  49.390  1.00  0.00     0.198 HD
HETATM    7  O1  UNL     1      32.900  40.804  47.483  1.00  0.00    -0.126 OA
HETATM    8  N13 UNL     1      32.039  41.356  46.686  1.00  0.00    -0.087 N
ENDROOT
BRANCH   4   9
HETATM    9  N2  UNL     1      30.098  40.621  49.616  1.00  0.00    -0.267 N
HETATM   10  N3  UNL     1      29.842  41.579  50.391  1.00  0.00    -0.227 N
ATOM     11  H3  UNL     1      29.161  41.465  51.142  1.00  0.00     0.209 HD
ATOM     12  H2  UNL     1      29.629  39.723  49.730  1.00  0.00     0.190 HD
BRANCH  10  13
HETATM   13  N4  UNL     1      30.492  42.790  50.217  1.00  0.00    -0.116 N
ATOM     14  H4  UNL     1      31.511  42.832  50.191  1.00  0.00     0.207 HD
BRANCH  13  15
HETATM   15  C4  UNL     1      29.789  43.865  50.088  1.00  0.00     0.727 A
HETATM   16  N5  UNL     1      30.216  44.977  50.707  1.00  0.00    -0.020 N
HETATM   17  C5  UNL     1      29.496  46.100  50.583  1.00  0.00     0.705 A
ATOM     18  H5  UNL     1      31.071  44.966  51.262  1.00  0.00     0.203 HD
HETATM   19  N7  UNL     1      28.359  46.112  49.844  1.00  0.00    -0.020 N
HETATM   20  C6  UNL     1      27.929  45.001  49.222  1.00  0.00     0.726 A
ATOM     21  H7  UNL     1      27.823  46.976  49.760  1.00  0.00     0.203 HD
HETATM   22  N11 UNL     1      28.658  43.889  49.357  1.00  0.00    -0.018 N
ATOM     23  H11 UNL     1      28.349  43.035  48.892  1.00  0.00     0.203 HD
BRANCH  17  24
HETATM   24  N6  UNL     1      29.891  47.164  51.169  1.00  0.00    -0.234 N
ATOM     25  H62 UNL     1      29.860  47.230  52.186  1.00  0.00     0.174 HD
ATOM     26  H61 UNL     1      30.237  47.943  50.609  1.00  0.00     0.174 HD
ENDBRANCH  17  24
BRANCH  20  27
HETATM   27  N8  UNL     1      26.861  44.953  48.510  1.00  0.00    -0.130 N
ATOM     28  H8  UNL     1      25.969  44.866  48.997  1.00  0.00     0.205 HD
BRANCH  27  29
HETATM   29  N9  UNL     1      26.837  45.011  47.131  1.00  0.00    -0.276 N
HETATM   30  C7  UNL     1      26.847  46.116  46.495  1.00  0.00     0.118 C
HETATM   31  N10 UNL     1      26.882  47.325  47.228  1.00  0.00    -0.085 NA
ATOM     32  H9  UNL     1      26.810  44.139  46.602  1.00  0.00     0.188 HD
BRANCH  30  33
HETATM   33  C8  UNL     1      26.821  46.215  45.015  1.00  0.00     0.160 C
HETATM   34  S1  UNL     1      25.140  46.570  44.411  1.00  0.00    -0.090 SA
ENDBRANCH  30  33
ENDBRANCH  27  29
ENDBRANCH  20  27
ENDBRANCH  13  15
ENDBRANCH  10  13
ENDBRANCH   4   9
BRANCH   8  35
HETATM   35  O2  UNL     1      32.272  41.828  45.425  1.00  0.00    -0.260 OA
ATOM     36  H2  UNL     1      32.346  41.302  44.637  1.00  0.00     0.247 HD
ENDBRANCH   8  35
TORSDOF 8
ENDMDL