MODEL 2
REMARK VINA RESULT: -7.335291651      1.712      1.881
REMARK  8 active torsions:
REMARK  status: ('A' for Active; 'I' for Inactive)
REMARK       I    between atoms: C2_2  and  N1_4
REMARK    1  A    between atoms: N1_4  and  S1_6
REMARK    2  A    between atoms: S1_6  and  N2_9
REMARK    3  A    between atoms: N2_9  and  C3_11
REMARK    4  A    between atoms: C3_11  and  O6_23
REMARK    5  A    between atoms: N3_12  and  N4_14
REMARK    6  A    between atoms: O6_23  and  C7_24
REMARK    7  A    between atoms: C7_24  and  C9_26
REMARK    8  A    between atoms: C9_26  and  O7_30
ROOT
HETATM    1  C3  UNL     1      26.437  46.056  46.226  1.00  0.00     0.250 C
HETATM    2  N3  UNL     1      25.285  45.519  46.502  1.00  0.00    -0.263 N
ATOM      3  H3  UNL     1      24.791  45.722  47.371  1.00  0.00     0.190 HD
ENDROOT
BRANCH   1   4
HETATM    4  N2  UNL     1      27.124  45.775  45.018  1.00  0.00    -0.231 N
ATOM      5  H2  UNL     1      27.929  45.149  45.036  1.00  0.00     0.184 HD
BRANCH   4   6
HETATM    6  S1  UNL     1      26.632  46.462  43.531  1.00  0.00     0.328 S
HETATM    7  O2  UNL     1      26.932  47.938  43.500  1.00  0.00    -0.182 OA
HETATM    8  O3  UNL     1      25.160  46.234  43.265  1.00  0.00    -0.182 OA
BRANCH   6   9
HETATM    9  N1  UNL     1      27.595  45.734  42.285  1.00  0.00    -0.237 N
HETATM   10  C2  UNL     1      27.675  44.319  42.165  1.00  0.00     0.228 C
HETATM   11  C1  UNL     1      28.519  43.769  41.077  1.00  0.00     0.118 C
HETATM   12  O1  UNL     1      27.048  43.591  42.960  1.00  0.00    -0.273 OA
ATOM     13  H1  UNL     1      28.108  46.326  41.632  1.00  0.00     0.183 HD
ENDBRANCH   6   9
ENDBRANCH   4   6
ENDBRANCH   1   4
BRANCH   1  14
HETATM   14  O6  UNL     1      26.960  46.906  47.155  1.00  0.00    -0.307 OA
BRANCH  14  15
HETATM   15  C7  UNL     1      26.744  46.906  48.525  1.00  0.00     0.202 C
HETATM   16  C8  UNL     1      27.755  46.160  49.352  1.00  0.00     0.049 C
BRANCH  15  17
HETATM   17  C9  UNL     1      26.514  48.234  49.108  1.00  0.00     0.139 C
HETATM   18  N6  UNL     1      26.663  48.593  50.314  1.00  0.00    -0.382 N
ATOM     19  H62 UNL     1      26.979  47.868  50.959  1.00  0.00     0.158 HD
ATOM     20  H61 UNL     1      26.503  49.515  50.719  1.00  0.00     0.158 HD
BRANCH  17  21
HETATM   21  O7  UNL     1      26.076  49.236  48.215  1.00  0.00    -0.348 OA
ATOM     22  H7  UNL     1      25.966  50.104  48.584  1.00  0.00     0.219 HD
ENDBRANCH  17  21
ENDBRANCH  15  17
ENDBRANCH  14  15
ENDBRANCH   1  14
BRANCH   2  23
HETATM   23  N4  UNL     1      24.766  44.658  45.550  1.00  0.00    -0.284 N
HETATM   24  C4  UNL     1      24.755  43.377  45.620  1.00  0.00     0.125 C
HETATM   25  C5  UNL     1      24.227  42.391  44.660  1.00  0.00     0.258 C
HETATM   26  N5  UNL     1      25.284  42.638  46.710  1.00  0.00    -0.289 N
HETATM   27  O4  UNL     1      24.987  41.234  44.930  1.00  0.00    -0.296 OA
HETATM   28  C6  UNL     1      25.412  41.303  46.231  1.00  0.00     0.366 C
HETATM   29  O5  UNL     1      25.852  40.334  46.913  1.00  0.00    -0.238 OA
ATOM     30  H5  UNL     1      25.520  42.988  47.638  1.00  0.00     0.172 HD
ATOM     31  H4  UNL     1      24.354  45.080  44.717  1.00  0.00     0.188 HD
ENDBRANCH   2  23
TORSDOF 8
ENDMDL