MODEL 3
REMARK VINA RESULT: -6.952180976      1.664      2.808
REMARK  7 active torsions:
REMARK  status: ('A' for Active; 'I' for Inactive)
REMARK    1  A    between atoms: C4_6  and  C5_7
REMARK       I    between atoms: C5_7  and  N2_9
REMARK    2  A    between atoms: N2_9  and  N3_11
REMARK    3  A    between atoms: N4_13  and  C6_15
REMARK    4  A    between atoms: C7_18  and  C8_19
REMARK    5  A    between atoms: C8_19  and  N7_21
REMARK    6  A    between atoms: N7_21  and  N8_23
REMARK    7  A    between atoms: C9_26  and  O2_27
ROOT
HETATM    1  C6  UNL     1      25.349  43.629  43.189  1.00  0.00     0.703 A
HETATM    2  N5  UNL     1      24.530  42.565  43.104  1.00  0.00    -0.184 N
ATOM      3  H5  UNL     1      24.171  42.150  43.965  1.00  0.00     0.184 HD
HETATM    4  C7  UNL     1      24.166  42.028  41.927  1.00  0.00     0.130 A
HETATM    5  C9  UNL     1      24.681  42.631  40.786  1.00  0.00     0.166 A
HETATM    6  C10 UNL     1      25.522  43.721  40.850  1.00  0.00     0.297 A
HETATM    7  O3  UNL     1      26.004  44.289  39.837  1.00  0.00    -0.264 OA
HETATM    8  N9  UNL     1      25.846  44.209  42.079  1.00  0.00    -0.148 N
HETATM    9  C11 UNL     1      26.719  45.345  42.237  1.00  0.00     0.179 C
ENDROOT
BRANCH   1  10
HETATM   10  N4  UNL     1      25.714  44.172  44.473  1.00  0.00    -0.117 N
HETATM   11  N3  UNL     1      24.837  44.791  45.176  1.00  0.00    -0.226 N
ATOM     12  H3  UNL     1      23.881  44.906  44.839  1.00  0.00     0.209 HD
ATOM     13  H4  UNL     1      26.667  44.064  44.823  1.00  0.00     0.207 HD
BRANCH  11  14
HETATM   14  N2  UNL     1      25.227  45.303  46.414  1.00  0.00    -0.249 N
HETATM   15  C5  UNL     1      26.089  46.414  46.477  1.00  0.00     0.297 C
HETATM   16  O1  UNL     1      26.500  46.935  45.419  1.00  0.00    -0.264 OA
ATOM     17  H2  UNL     1      24.886  44.872  47.274  1.00  0.00     0.192 HD
BRANCH  15  18
HETATM   18  C4  UNL     1      26.503  46.957  47.763  1.00  0.00     0.171 A
HETATM   19  C3  UNL     1      25.824  47.969  48.452  1.00  0.00     0.095 A
HETATM   20  C2  UNL     1      26.542  48.176  49.604  1.00  0.00     0.124 A
HETATM   21  N1  UNL     1      26.267  49.027  50.530  1.00  0.00    -0.379 N
HETATM   22  N10 UNL     1      27.589  47.336  49.598  1.00  0.00    -0.245 N
HETATM   23  C1  UNL     1      27.112  49.140  51.691  1.00  0.00     0.147 C
ATOM     24  H1  UNL     1      25.445  49.625  50.442  1.00  0.00     0.160 HD
HETATM   25  O4  UNL     1      27.521  46.647  48.507  1.00  0.00    -0.231 OA
ATOM     26  H10 UNL     1      28.304  47.256  50.320  1.00  0.00     0.196 HD
ENDBRANCH  15  18
ENDBRANCH  11  14
ENDBRANCH   1  10
BRANCH   4  27
HETATM   27  C8  UNL     1      23.279  40.877  41.830  1.00  0.00     0.160 C
HETATM   28  N6  UNL     1      23.599  39.775  41.017  1.00  0.00    -0.079 NA
BRANCH  27  29
HETATM   29  N7  UNL     1      22.182  40.866  42.500  1.00  0.00    -0.292 N
ATOM     30  H7  UNL     1      21.326  41.131  42.013  1.00  0.00     0.187 HD
BRANCH  29  31
HETATM   31  N8  UNL     1      22.081  40.523  43.830  1.00  0.00    -0.344 N
ATOM     32  H82 UNL     1      21.292  40.912  44.345  1.00  0.00     0.176 HD
ATOM     33  H81 UNL     1      22.735  39.914  44.323  1.00  0.00     0.176 HD
ENDBRANCH  29  31
ENDBRANCH  27  29
ENDBRANCH   4  27
BRANCH   5  34
HETATM   34  O2  UNL     1      24.334  42.114  39.546  1.00  0.00    -0.354 OA
ATOM     35  H2  UNL     1      25.024  41.928  38.920  1.00  0.00     0.218 HD
ENDBRANCH   5  34
TORSDOF 7
ENDMDL