MODEL 5
REMARK VINA RESULT: -7.218666675      1.904      2.677
REMARK  7 active torsions:
REMARK  status: ('A' for Active; 'I' for Inactive)
REMARK    1  A    between atoms: C4_6  and  N2_7
REMARK    2  A    between atoms: C5_12  and  S1_13
REMARK    3  A    between atoms: S1_13  and  C6_14
REMARK    4  A    between atoms: C6_14  and  C7_15
REMARK    5  A    between atoms: C8_18  and  N5_19
REMARK    6  A    between atoms: C9_24  and  N7_25
REMARK    7  A    between atoms: N7_25  and  N8_27
ROOT
HETATM    1  C6  UNL     1      26.002  44.968  43.228  1.00  0.00     0.158 C
ENDROOT
BRANCH   1   2
HETATM    2  S1  UNL     1      24.977  45.736  44.463  1.00  0.00    -0.103 SA
BRANCH   2   3
HETATM    3  C5  UNL     1      25.823  45.993  45.999  1.00  0.00     0.089 A
HETATM    4  N3  UNL     1      25.803  47.182  46.611  1.00  0.00    -0.333 N
HETATM    5  C4  UNL     1      26.446  47.296  47.799  1.00  0.00     0.146 A
ATOM      6  H3  UNL     1      25.319  47.979  46.198  1.00  0.00     0.168 HD
HETATM    7  C3  UNL     1      27.119  46.261  48.409  1.00  0.00     0.172 A
HETATM    8  N1  UNL     1      27.820  46.125  49.557  1.00  0.00    -0.327 N
HETATM    9  N10 UNL     1      27.133  45.071  47.782  1.00  0.00    -0.244 N
HETATM   10  C2  UNL     1      28.267  44.853  49.640  1.00  0.00     0.094 A
ATOM     11  H1  UNL     1      27.984  46.859  50.245  1.00  0.00     0.169 HD
HETATM   12  C1  UNL     1      29.075  44.204  50.697  1.00  0.00     0.090 C
HETATM   13  N11 UNL     1      27.834  44.221  48.541  1.00  0.00    -0.281 N
ATOM     14  H11 UNL     1      28.012  43.242  48.316  1.00  0.00     0.189 HD
HETATM   15  C12 UNL     1      26.507  44.925  46.611  1.00  0.00     0.155 A
BRANCH   5  16
HETATM   16  N2  UNL     1      26.409  48.442  48.357  1.00  0.00    -0.382 N
ATOM     17  H22 UNL     1      26.186  48.455  49.353  1.00  0.00     0.157 HD
ATOM     18  H21 UNL     1      26.595  49.279  47.805  1.00  0.00     0.157 HD
ENDBRANCH   5  16
ENDBRANCH   2   3
ENDBRANCH   1   2
BRANCH   1  19
HETATM   19  C7  UNL     1      25.196  44.371  42.140  1.00  0.00     0.123 A
HETATM   20  N4  UNL     1      24.678  44.984  41.093  1.00  0.00    -0.179 N
HETATM   21  C8  UNL     1      23.955  44.374  40.145  1.00  0.00     0.691 A
ATOM     22  H4  UNL     1      24.838  45.986  41.000  1.00  0.00     0.185 HD
HETATM   23  N6  UNL     1      23.752  43.052  40.278  1.00  0.00    -0.021 N
HETATM   24  C9  UNL     1      24.249  42.372  41.315  1.00  0.00     0.712 A
ATOM     25  H6  UNL     1      23.207  42.558  39.572  1.00  0.00     0.203 HD
HETATM   26  N9  UNL     1      24.962  43.024  42.235  1.00  0.00    -0.177 N
ATOM     27  H9  UNL     1      25.344  42.507  43.028  1.00  0.00     0.185 HD
BRANCH  21  28
HETATM   28  N5  UNL     1      23.468  45.022  39.133  1.00  0.00    -0.234 N
ATOM     29  H52 UNL     1      23.798  45.960  38.906  1.00  0.00     0.174 HD
ATOM     30  H51 UNL     1      22.744  44.622  38.536  1.00  0.00     0.174 HD
ENDBRANCH  21  28
BRANCH  24  31
HETATM   31  N7  UNL     1      24.086  41.103  41.497  1.00  0.00    -0.134 N
ATOM     32  H7  UNL     1      24.273  40.499  40.696  1.00  0.00     0.205 HD
BRANCH  31  33
HETATM   33  N8  UNL     1      23.688  40.484  42.654  1.00  0.00    -0.322 N
HETATM   34  C10 UNL     1      24.438  39.329  43.174  1.00  0.00     0.171 C
HETATM   35  C11 UNL     1      22.543  40.887  43.450  1.00  0.00     0.171 C
ENDBRANCH  31  33
ENDBRANCH  24  31
ENDBRANCH   1  19
TORSDOF 7
ENDMDL