MODEL 4
REMARK VINA RESULT: -7.781418835      2.635      6.965
REMARK  5 active torsions:
REMARK  status: ('A' for Active; 'I' for Inactive)
REMARK    1  A    between atoms: C2_2  and  N1_3
REMARK    2  A    between atoms: C2_2  and  C10_19
REMARK       I    between atoms: N1_3  and  C3_5
REMARK    3  A    between atoms: C3_5  and  C4_7
REMARK    4  A    between atoms: C10_19  and  N6_20
REMARK    5  A    between atoms: C10_19  and  C11_24
ROOT
HETATM    1  C4  UNL     1      26.834  45.291  42.049  1.00  0.00     0.124 A
HETATM    2  C5  UNL     1      26.796  44.367  40.996  1.00  0.00     0.137 A
HETATM    3  N2  UNL     1      25.872  43.300  41.098  1.00  0.00    -0.081 NA
HETATM    4  N3  UNL     1      27.586  44.456  39.913  1.00  0.00    -0.331 N
ATOM      5  H3  UNL     1      27.513  43.754  39.177  1.00  0.00     0.168 HD
HETATM    6  C6  UNL     1      28.473  45.458  39.789  1.00  0.00     0.142 A
HETATM    7  N4  UNL     1      29.306  45.546  38.642  1.00  0.00    -0.081 NA
HETATM    8  C7  UNL     1      28.580  46.402  40.762  1.00  0.00     0.136 A
HETATM    9  C8  UNL     1      29.524  47.480  40.643  1.00  0.00     0.107 C
HETATM   10  N5  UNL     1      30.301  48.347  40.555  1.00  0.00    -0.191 NA
HETATM   11  C9  UNL     1      27.751  46.299  41.883  1.00  0.00     0.215 A
HETATM   12  O2  UNL     1      27.874  47.175  42.754  1.00  0.00    -0.285 OA
ENDROOT
BRANCH   1  13
HETATM   13  C3  UNL     1      25.958  45.130  43.170  1.00  0.00     0.259 C
HETATM   14  N1  UNL     1      25.936  44.126  44.150  1.00  0.00    -0.350 N
ATOM     15  H1  UNL     1      26.625  43.376  44.101  1.00  0.00     0.163 HD
HETATM   16  O1  UNL     1      25.046  46.030  43.324  1.00  0.00    -0.267 OA
BRANCH  14  17
HETATM   17  C2  UNL     1      24.955  44.118  45.243  1.00  0.00     0.117 C
HETATM   18  C1  UNL     1      24.049  42.952  45.039  1.00  0.00     0.034 C
BRANCH  17  19
HETATM   19  C10 UNL     1      25.670  44.068  46.565  1.00  0.00     0.257 C
BRANCH  19  20
HETATM   20  N6  UNL     1      27.000  43.511  46.432  1.00  0.00    -0.068 N
ATOM     21  H63 UNL     1      27.628  44.158  45.954  1.00  0.00     0.275 HD
ATOM     22  H62 UNL     1      27.475  43.464  47.333  1.00  0.00     0.275 HD
ATOM     23  H61 UNL     1      26.982  42.601  45.972  1.00  0.00     0.275 HD
ENDBRANCH  19  20
BRANCH  19  24
HETATM   24  C11 UNL     1      25.839  45.441  47.108  1.00  0.00     0.065 A
HETATM   25  C12 UNL     1      26.709  45.654  48.152  1.00  0.00     0.035 A
HETATM   26  C13 UNL     1      26.863  46.928  48.652  1.00  0.00     0.086 A
HETATM   27  C14 UNL     1      26.149  47.963  48.103  1.00  0.00     0.304 A
HETATM   28  O3  UNL     1      26.268  49.142  48.539  1.00  0.00    -0.258 OA
HETATM   29  O4  UNL     1      25.346  47.670  47.116  1.00  0.00    -0.195 OA
HETATM   30  N7  UNL     1      25.176  46.494  46.622  1.00  0.00    -0.259 N
ATOM     31  H7  UNL     1      24.524  46.363  45.848  1.00  0.00     0.194 HD
ENDBRANCH  19  24
ENDBRANCH  17  19
ENDBRANCH  14  17
ENDBRANCH   1  13
TORSDOF 5
ENDMDL