MODEL 1
REMARK VINA RESULT: -7.732669675      0.000      0.000
REMARK  6 active torsions:
REMARK  status: ('A' for Active; 'I' for Inactive)
REMARK       I    between atoms: C1_2  and  N1_3
REMARK    1  A    between atoms: C1_2  and  C8_19
REMARK    2  A    between atoms: N1_3  and  N2_5
REMARK    3  A    between atoms: C2_7  and  C3_8
REMARK    4  A    between atoms: C4_9  and  O2_10
REMARK    5  A    between atoms: C7_16  and  O5_17
REMARK    6  A    between atoms: C11_28  and  N5_29
ROOT
HETATM    1  O1  UNL     1      24.983  43.423  46.553  1.00  0.00    -0.264 OA
HETATM    2  C1  UNL     1      26.033  44.104  46.351  1.00  0.00     0.289 C
HETATM    3  N1  UNL     1      26.650  43.937  45.084  1.00  0.00    -0.265 N
ATOM      4  H1  UNL     1      27.499  44.451  44.848  1.00  0.00     0.190 HD
ENDROOT
BRANCH   3   5
HETATM    5  N2  UNL     1      26.074  43.058  44.168  1.00  0.00    -0.308 N
HETATM    6  C2  UNL     1      25.266  43.446  43.260  1.00  0.00     0.126 C
ATOM      7  H2  UNL     1      26.309  42.067  44.226  1.00  0.00     0.186 HD
BRANCH   6   8
HETATM    8  C3  UNL     1      24.680  42.514  42.317  1.00  0.00     0.072 A
HETATM    9  C4  UNL     1      24.899  42.472  40.962  1.00  0.00     0.087 A
HETATM   10  C5  UNL     1      24.242  41.491  40.180  1.00  0.00     0.120 A
HETATM   11  C6  UNL     1      23.411  40.616  40.787  1.00  0.00     0.292 A
HETATM   12  O3  UNL     1      22.805  39.720  40.098  1.00  0.00    -0.260 OA
HETATM   13  O4  UNL     1      23.202  40.657  42.087  1.00  0.00    -0.251 OA
HETATM   14  C7  UNL     1      23.795  41.552  42.836  1.00  0.00     0.201 A
BRANCH   9  15
HETATM   15  O2  UNL     1      25.726  43.341  40.342  1.00  0.00    -0.359 OA
ATOM     16  H2  UNL     1      26.459  43.050  39.812  1.00  0.00     0.217 HD
ENDBRANCH   9  15
BRANCH  14  17
HETATM   17  O5  UNL     1      23.571  41.594  44.219  1.00  0.00    -0.340 OA
ATOM     18  H5  UNL     1      23.514  40.757  44.663  1.00  0.00     0.220 HD
ENDBRANCH  14  17
ENDBRANCH   6   8
ENDBRANCH   3   5
BRANCH   2  19
HETATM   19  C8  UNL     1      26.572  45.000  47.352  1.00  0.00     0.145 A
HETATM   20  N3  UNL     1      27.173  44.526  48.444  1.00  0.00    -0.302 N
HETATM   21  C9  UNL     1      27.686  45.385  49.376  1.00  0.00     0.327 A
ATOM     22  H3  UNL     1      27.250  43.519  48.584  1.00  0.00     0.171 HD
HETATM   23  O6  UNL     1      28.240  44.887  50.384  1.00  0.00    -0.247 OA
HETATM   24  N4  UNL     1      27.597  46.711  49.214  1.00  0.00    -0.273 N
HETATM   25  C10 UNL     1      27.005  47.242  48.140  1.00  0.00     0.285 A
ATOM     26  H4  UNL     1      27.989  47.329  49.924  1.00  0.00     0.173 HD
HETATM   27  O7  UNL     1      26.930  48.490  48.004  1.00  0.00    -0.265 OA
HETATM   28  C11 UNL     1      26.481  46.355  47.190  1.00  0.00     0.203 A
BRANCH  28  29
HETATM   29  N5  UNL     1      25.857  46.943  46.067  1.00  0.00    -0.107 N
HETATM   30  O8  UNL     1      24.630  47.220  46.168  1.00  0.00    -0.531 OA
HETATM   31  O9  UNL     1      26.594  47.206  44.955  1.00  0.00    -0.531 OA
ENDBRANCH  28  29
ENDBRANCH   2  19
TORSDOF 6
ENDMDL