MODEL 2
REMARK VINA RESULT: -7.648807670      2.213      5.709
REMARK  7 active torsions:
REMARK  status: ('A' for Active; 'I' for Inactive)
REMARK    1  A    between atoms: O1_2  and  C2_3
REMARK    2  A    between atoms: C2_3  and  C3_5
REMARK    3  A    between atoms: N2_9  and  C5_11
REMARK    4  A    between atoms: N3_15  and  C9_16
REMARK    5  A    between atoms: N6_23  and  N7_24
REMARK    6  A    between atoms: N7_24  and  O3_26
REMARK    7  A    between atoms: C11_30  and  C12_31
ROOT
HETATM    1  C3  UNL     1      26.100  44.846  46.370  1.00  0.00     0.159 A
HETATM    2  N1  UNL     1      26.261  43.487  46.194  1.00  0.00    -0.182 N
ATOM      3  H1  UNL     1      26.404  42.800  46.934  1.00  0.00     0.184 HD
HETATM    4  C4  UNL     1      26.196  43.228  44.888  1.00  0.00     0.701 A
HETATM    5  N2  UNL     1      26.299  42.075  44.291  1.00  0.00    -0.217 N
ATOM      6  H2  UNL     1      26.228  42.037  43.274  1.00  0.00     0.178 HD
HETATM    7  N3  UNL     1      25.999  44.354  44.195  1.00  0.00     0.034 N
HETATM    8  C11 UNL     1      25.938  45.377  45.122  1.00  0.00     0.184 A
ENDROOT
BRANCH   7   9
HETATM    9  C9  UNL     1      25.877  44.480  42.787  1.00  0.00     0.735 A
HETATM   10  N4  UNL     1      26.908  44.663  41.911  1.00  0.00    -0.017 N
HETATM   11  C10 UNL     1      26.438  44.741  40.659  1.00  0.00     0.729 A
ATOM     12  H4  UNL     1      27.892  44.732  42.171  1.00  0.00     0.203 HD
HETATM   13  N5  UNL     1      27.097  44.911  39.550  1.00  0.00    -0.231 N
HETATM   14  N6  UNL     1      25.099  44.605  40.732  1.00  0.00     0.014 N
ATOM     15  H52 UNL     1      28.111  45.013  39.494  1.00  0.00     0.174 HD
ATOM     16  H51 UNL     1      26.739  44.970  38.597  1.00  0.00     0.174 HD
HETATM   17  N8  UNL     1      24.787  44.451  42.005  1.00  0.00    -0.092 N
ATOM     18  H8  UNL     1      23.836  44.326  42.351  1.00  0.00     0.208 HD
BRANCH  14  19
HETATM   19  N7  UNL     1      24.215  44.630  39.624  1.00  0.00    -0.173 N
ATOM     20  H7  UNL     1      23.739  43.790  39.294  1.00  0.00     0.218 HD
BRANCH  19  21
HETATM   21  O3  UNL     1      24.055  45.748  39.072  1.00  0.00    -0.272 OA
ATOM     22  H3  UNL     1      23.157  45.993  38.882  1.00  0.00     0.246 HD
ENDBRANCH  19  21
ENDBRANCH  14  19
ENDBRANCH   7   9
BRANCH   8  23
HETATM   23  C12 UNL     1      25.736  46.738  44.756  1.00  0.00     0.231 C
HETATM   24  O4  UNL     1      24.581  47.261  44.946  1.00  0.00    -0.643 OA
HETATM   25  O5  UNL     1      26.660  47.566  44.210  1.00  0.00    -0.643 OA
ENDBRANCH   8  23
BRANCH   5  26
HETATM   26  C5  UNL     1      26.509  40.863  45.014  1.00  0.00     0.036 C
HETATM   27  C6  UNL     1      25.447  40.626  46.089  1.00  0.00     0.038 C
HETATM   28  C7  UNL     1      26.383  39.685  44.058  1.00  0.00     0.038 C
HETATM   29  C8  UNL     1      27.884  40.836  45.606  1.00  0.00     0.038 C
ENDBRANCH   5  26
BRANCH   1  30
HETATM   30  C2  UNL     1      26.124  45.433  47.690  1.00  0.00     0.312 C
HETATM   31  O2  UNL     1      26.632  44.767  48.648  1.00  0.00    -0.258 OA
BRANCH  30  32
HETATM   32  O1  UNL     1      25.639  46.666  48.007  1.00  0.00    -0.321 OA
HETATM   33  C1  UNL     1      26.472  47.779  48.361  1.00  0.00     0.213 C
ENDBRANCH  30  32
ENDBRANCH   1  30
TORSDOF 7
ENDMDL