MODEL 5
REMARK VINA RESULT: -7.712604547      1.983      3.882
REMARK  8 active torsions:
REMARK  status: ('A' for Active; 'I' for Inactive)
REMARK    1  A    between atoms: O1_2  and  N1_3
REMARK    2  A    between atoms: N1_3  and  C2_5
REMARK    3  A    between atoms: C2_5  and  N2_6
REMARK    4  A    between atoms: C2_5  and  C10_28
REMARK    5  A    between atoms: N2_6  and  N3_8
REMARK    6  A    between atoms: N3_8  and  C3_10
REMARK    7  A    between atoms: N6_17  and  N7_18
REMARK    8  A    between atoms: C5_20  and  C6_22
ROOT
HETATM    1  C3  UNL     1      25.486  43.625  46.149  1.00  0.00     0.728 A
HETATM    2  N4  UNL     1      24.486  42.728  46.067  1.00  0.00    -0.017 N
ATOM      3  H4  UNL     1      23.975  42.332  46.856  1.00  0.00     0.203 HD
HETATM    4  C4  UNL     1      24.274  42.441  44.766  1.00  0.00     0.727 A
HETATM    5  N5  UNL     1      23.395  41.622  44.294  1.00  0.00    -0.231 N
ATOM      6  H51 UNL     1      23.234  41.405  43.310  1.00  0.00     0.174 HD
ATOM      7  H52 UNL     1      22.734  41.076  44.847  1.00  0.00     0.174 HD
HETATM    8  N6  UNL     1      25.145  43.162  44.036  1.00  0.00    -0.004 N
HETATM    9  N9  UNL     1      25.875  43.877  44.890  1.00  0.00    -0.094 N
ATOM     10  H9  UNL     1      26.620  44.522  44.626  1.00  0.00     0.208 HD
ENDROOT
BRANCH   1  11
HETATM   11  N3  UNL     1      25.916  44.094  47.271  1.00  0.00    -0.128 N
ATOM     12  H3  UNL     1      25.242  44.559  47.880  1.00  0.00     0.205 HD
BRANCH  11  13
HETATM   13  N2  UNL     1      27.222  44.012  47.707  1.00  0.00    -0.266 N
ATOM     14  H2  UNL     1      27.911  43.443  47.214  1.00  0.00     0.189 HD
BRANCH  13  15
HETATM   15  C2  UNL     1      27.574  44.758  48.881  1.00  0.00     0.194 C
BRANCH  15  16
HETATM   16  N1  UNL     1      28.176  44.211  49.883  1.00  0.00    -0.246 N
ATOM     17  H1  UNL     1      27.649  43.565  50.469  1.00  0.00     0.196 HD
BRANCH  16  18
HETATM   18  O1  UNL     1      29.482  44.454  50.199  1.00  0.00    -0.284 OA
HETATM   19  C1  UNL     1      30.439  43.483  49.832  1.00  0.00     0.237 C
ENDBRANCH  16  18
ENDBRANCH  15  16
BRANCH  15  20
HETATM   20  C10 UNL     1      27.267  46.187  48.995  1.00  0.00     0.215 A
HETATM   21  N10 UNL     1      27.709  47.030  49.964  1.00  0.00    -0.272 N
HETATM   22  N11 UNL     1      27.210  48.230  49.709  1.00  0.00    -0.243 N
ATOM     23  H10 UNL     1      28.316  46.784  50.746  1.00  0.00     0.189 HD
HETATM   24  C11 UNL     1      26.459  48.147  48.593  1.00  0.00     0.386 A
ATOM     25  H11 UNL     1      27.367  49.072  50.263  1.00  0.00     0.192 HD
HETATM   26  O2  UNL     1      25.858  49.139  48.112  1.00  0.00    -0.236 OA
HETATM   27  O3  UNL     1      26.524  46.909  48.204  1.00  0.00    -0.237 OA
ENDBRANCH  15  20
ENDBRANCH  13  15
ENDBRANCH  11  13
ENDBRANCH   1  11
BRANCH   8  28
HETATM   28  N7  UNL     1      25.320  43.215  42.657  1.00  0.00    -0.254 N
HETATM   29  C5  UNL     1      25.243  44.251  41.944  1.00  0.00     0.117 C
HETATM   30  N8  UNL     1      24.955  45.491  42.561  1.00  0.00    -0.085 NA
ATOM     31  H7  UNL     1      25.529  42.337  42.181  1.00  0.00     0.190 HD
BRANCH  29  32
HETATM   32  C6  UNL     1      25.455  44.150  40.483  1.00  0.00     0.006 C
HETATM   33  C7  UNL     1      26.740  44.822  40.050  1.00  0.00     0.022 C
HETATM   34  C8  UNL     1      24.248  44.827  39.822  1.00  0.00     0.022 C
HETATM   35  C9  UNL     1      25.416  42.699  40.090  1.00  0.00     0.022 C
ENDBRANCH  29  32
ENDBRANCH   8  28
TORSDOF 8
ENDMDL