MODEL 5
REMARK VINA RESULT: -7.987426570      1.271      1.695
REMARK  9 active torsions:
REMARK  status: ('A' for Active; 'I' for Inactive)
REMARK    1  A    between atoms: C2_2  and  O1_3
REMARK    2  A    between atoms: C2_2  and  N1_5
REMARK    3  A    between atoms: N1_5  and  C3_7
REMARK    4  A    between atoms: C3_7  and  O2_8
REMARK    5  A    between atoms: C3_7  and  C4_10
REMARK    6  A    between atoms: C4_10  and  S1_11
REMARK    7  A    between atoms: S1_11  and  C5_12
REMARK    8  A    between atoms: N5_17  and  C6_18
REMARK    9  A    between atoms: C9_26  and  N8_27
ROOT
HETATM    1  C5  UNL     1      25.423  46.536  46.727  1.00  0.00     0.195 A
HETATM    2  N2  UNL     1      24.594  47.588  46.562  1.00  0.00    -0.264 N
ATOM      3  H2  UNL     1      24.010  47.785  45.750  1.00  0.00     0.186 HD
HETATM    4  N3  UNL     1      24.690  48.314  47.667  1.00  0.00    -0.006 NA
HETATM    5  N4  UNL     1      25.553  47.725  48.484  1.00  0.00     0.016 NA
HETATM    6  N5  UNL     1      26.025  46.620  47.932  1.00  0.00    -0.049 N
ENDROOT
BRANCH   6   7
HETATM    7  C6  UNL     1      26.964  45.697  48.462  1.00  0.00     0.706 A
HETATM    8  N6  UNL     1      27.920  45.973  49.366  1.00  0.00    -0.181 N
HETATM    9  C7  UNL     1      28.632  44.865  49.642  1.00  0.00     0.162 A
ATOM     10  H6  UNL     1      28.082  46.889  49.783  1.00  0.00     0.184 HD
HETATM   11  C8  UNL     1      29.694  44.552  50.457  1.00  0.00     0.290 A
HETATM   12  C10 UNL     1      28.108  43.838  48.882  1.00  0.00     0.169 A
HETATM   13  O3  UNL     1      30.174  45.485  51.152  1.00  0.00    -0.265 OA
HETATM   14  N7  UNL     1      30.206  43.309  50.521  1.00  0.00    -0.154 N
HETATM   15  C9  UNL     1      29.691  42.314  49.777  1.00  0.00     0.680 A
ATOM     16  H7  UNL     1      30.993  43.120  51.140  1.00  0.00     0.187 HD
HETATM   17  N9  UNL     1      28.654  42.605  48.976  1.00  0.00    -0.174 N
ATOM     18  H9  UNL     1      28.258  41.856  48.408  1.00  0.00     0.186 HD
HETATM   19  N10 UNL     1      27.102  44.380  48.180  1.00  0.00    -0.172 N
ATOM     20  H10 UNL     1      26.517  43.867  47.521  1.00  0.00     0.186 HD
BRANCH  15  21
HETATM   21  N8  UNL     1      30.185  41.100  49.834  1.00  0.00    -0.234 N
ATOM     22  H82 UNL     1      30.326  40.628  50.727  1.00  0.00     0.174 HD
ATOM     23  H81 UNL     1      30.444  40.595  48.987  1.00  0.00     0.174 HD
ENDBRANCH  15  21
ENDBRANCH   6   7
BRANCH   1  24
HETATM   24  S1  UNL     1      25.729  45.205  45.583  1.00  0.00    -0.083 SA
BRANCH  24  25
HETATM   25  C4  UNL     1      27.366  45.566  44.792  1.00  0.00     0.166 C
BRANCH  25  26
HETATM   26  C3  UNL     1      27.142  46.335  43.562  1.00  0.00     0.127 C
BRANCH  26  27
HETATM   27  N1  UNL     1      27.091  45.759  42.286  1.00  0.00    -0.325 N
ATOM     28  H1  UNL     1      27.906  45.942  41.701  1.00  0.00     0.169 HD
BRANCH  27  29
HETATM   29  C2  UNL     1      26.109  44.981  41.693  1.00  0.00     0.112 C
HETATM   30  C1  UNL     1      26.323  43.808  40.850  1.00  0.00     0.097 C
BRANCH  29  31
HETATM   31  O1  UNL     1      24.848  45.286  41.875  1.00  0.00    -0.350 OA
ATOM     32  H1  UNL     1      24.701  46.189  42.127  1.00  0.00     0.219 HD
ENDBRANCH  29  31
ENDBRANCH  27  29
ENDBRANCH  26  27
BRANCH  26  33
HETATM   33  O2  UNL     1      26.980  47.624  43.651  1.00  0.00    -0.349 OA
ATOM     34  H2  UNL     1      27.393  48.071  44.380  1.00  0.00     0.219 HD
ENDBRANCH  26  33
ENDBRANCH  25  26
ENDBRANCH  24  25
ENDBRANCH   1  24
TORSDOF 9
ENDMDL