MODEL 2
REMARK VINA RESULT: -9.519694118      1.192      1.667
REMARK  5 active torsions:
REMARK  status: ('A' for Active; 'I' for Inactive)
REMARK    1  A    between atoms: N1_2  and  C2_4
REMARK    2  A    between atoms: C3_9  and  N4_10
REMARK    3  A    between atoms: N4_10  and  C4_12
REMARK    4  A    between atoms: C12_23  and  N7_24
REMARK    5  A    between atoms: N7_24  and  C13_26
ROOT
HETATM    1  C4  UNL     1      50.014 -14.836   8.719  1.00  0.00     0.035 A
HETATM    2  C5  UNL     1      50.201 -13.590   8.160  1.00  0.00     0.029 A
HETATM    3  C6  UNL     1      51.432 -13.242   7.626  1.00  0.00     0.004 A
HETATM    4  C7  UNL     1      52.481 -14.158   7.658  1.00  0.00     0.023 A
HETATM    5  C8  UNL     1      52.315 -15.410   8.213  1.00  0.00     0.046 A
HETATM    6  C9  UNL     1      53.412 -16.363   8.244  1.00  0.00     0.099 C
HETATM    7  N5  UNL     1      54.286 -17.123   8.253  1.00  0.00    -0.191 NA
HETATM    8  C10 UNL     1      51.079 -15.712   8.729  1.00  0.00     0.052 A
ENDROOT
BRANCH   1   9
HETATM    9  N4  UNL     1      48.749 -15.162   9.254  1.00  0.00    -0.340 N
ATOM     10  H4  UNL     1      47.976 -15.297   8.603  1.00  0.00     0.167 HD
BRANCH   9  11
HETATM   11  C3  UNL     1      48.509 -15.301  10.504  1.00  0.00     0.149 A
HETATM   12  N3  UNL     1      48.610 -16.473  11.149  1.00  0.00    -0.282 N
HETATM   13  N2  UNL     1      48.363 -16.612  12.425  1.00  0.00    -0.283 N
ATOM     14  H3  UNL     1      48.893 -17.295  10.617  1.00  0.00     0.188 HD
HETATM   15  C2  UNL     1      47.974 -15.521  13.196  1.00  0.00     0.133 A
ATOM     16  H2  UNL     1      48.457 -17.531  12.859  1.00  0.00     0.188 HD
HETATM   17  C20 UNL     1      47.862 -14.294  12.551  1.00  0.00     0.056 A
HETATM   18  C11 UNL     1      48.127 -14.179  11.210  1.00  0.00     0.110 A
HETATM   19  C19 UNL     1      47.483 -13.151  13.220  1.00  0.00     0.123 A
HETATM   20  N6  UNL     1      48.020 -12.975  10.561  1.00  0.00    -0.187 N
HETATM   21  C12 UNL     1      47.652 -11.868  11.218  1.00  0.00     0.683 A
ATOM     22  H6  UNL     1      48.225 -12.923   9.563  1.00  0.00     0.184 HD
HETATM   23  N8  UNL     1      47.394 -11.980  12.524  1.00  0.00    -0.201 N
ATOM     24  H8  UNL     1      47.113 -11.140  13.030  1.00  0.00     0.183 HD
BRANCH  15  25
HETATM   25  N1  UNL     1      47.754 -15.687  14.380  1.00  0.00    -0.360 N
HETATM   26  C1  UNL     1      48.035 -16.079  15.640  1.00  0.00     0.120 C
ATOM     27  H1  UNL     1      46.810 -15.313  14.477  1.00  0.00     0.165 HD
ENDBRANCH  15  25
BRANCH  21  28
HETATM   28  N7  UNL     1      47.544 -10.720  10.627  1.00  0.00    -0.192 N
ATOM     29  H7  UNL     1      47.010  -9.982  11.087  1.00  0.00     0.184 HD
BRANCH  28  30
HETATM   30  C13 UNL     1      48.135 -10.445   9.370  1.00  0.00     0.049 A
HETATM   31  C14 UNL     1      47.413 -10.769   8.236  1.00  0.00     0.030 A
HETATM   32  C15 UNL     1      47.983 -10.502   6.999  1.00  0.00     0.002 A
HETATM   33  C16 UNL     1      49.231  -9.931   6.917  1.00  0.00     0.000 A
HETATM   34  C17 UNL     1      49.925  -9.620   8.068  1.00  0.00     0.002 A
HETATM   35  C18 UNL     1      49.383  -9.874   9.310  1.00  0.00     0.030 A
ENDBRANCH  28  30
ENDBRANCH  21  28
ENDBRANCH   9  11
ENDBRANCH   1   9
TORSDOF 5
ENDMDL