MODEL 2
REMARK VINA RESULT: -9.445842834      2.302      8.409
REMARK  4 active torsions:
REMARK  status: ('A' for Active; 'I' for Inactive)
REMARK    1  A    between atoms: C6_6  and  C7_7
REMARK       I    between atoms: C7_7  and  N1_9
REMARK    2  A    between atoms: N1_9  and  C8_11
REMARK    3  A    between atoms: C11_14  and  N2_15
REMARK    4  A    between atoms: C12_20  and  C13_21
ROOT
HETATM    1  C1  UNL     1      50.930 -13.017   3.661  1.00  0.00     0.103 C
HETATM    2  C2  UNL     1      50.561 -12.473   4.692  1.00  0.00    -0.147 C
HETATM    3  C3  UNL     1      50.132 -11.853   5.914  1.00  0.00     0.020 A
HETATM    4  C4  UNL     1      48.785 -11.526   6.104  1.00  0.00     0.023 A
HETATM    5  C5  UNL     1      48.420 -10.941   7.275  1.00  0.00     0.037 A
HETATM    6  C6  UNL     1      49.336 -10.666   8.264  1.00  0.00     0.101 A
HETATM    7  N7  UNL     1      50.604 -10.992   8.042  1.00  0.00    -0.360 N
ATOM      8  H7  UNL     1      51.285 -10.789   8.773  1.00  0.00     0.165 HD
HETATM    9  C20 UNL     1      51.044 -11.574   6.912  1.00  0.00     0.108 A
ENDROOT
BRANCH   6  10
HETATM   10  C7  UNL     1      48.857 -10.037   9.485  1.00  0.00     0.273 C
HETATM   11  O1  UNL     1      49.436  -9.041   9.987  1.00  0.00    -0.266 OA
HETATM   12  N1  UNL     1      47.721 -10.562  10.108  1.00  0.00    -0.308 N
ATOM     13  H1  UNL     1      46.839 -10.065   9.981  1.00  0.00     0.170 HD
BRANCH  12  14
HETATM   14  C8  UNL     1      47.708 -11.631  10.831  1.00  0.00     0.108 A
HETATM   15  C9  UNL     1      48.254 -12.824  10.401  1.00  0.00     0.066 A
HETATM   16  C10 UNL     1      48.239 -13.972  11.185  1.00  0.00     0.039 A
HETATM   17  C11 UNL     1      48.787 -15.156  10.743  1.00  0.00     0.113 A
HETATM   18  C18 UNL     1      47.652 -13.911  12.440  1.00  0.00     0.063 A
HETATM   19  N3  UNL     1      48.736 -16.250  11.568  1.00  0.00    -0.328 N
HETATM   20  C12 UNL     1      48.174 -16.193  12.771  1.00  0.00     0.117 A
ATOM     21  H3  UNL     1      49.140 -17.130  11.249  1.00  0.00     0.169 HD
HETATM   22  N5  UNL     1      47.636 -15.016  13.195  1.00  0.00    -0.340 N
ATOM     23  H5  UNL     1      47.205 -14.975  14.118  1.00  0.00     0.167 HD
HETATM   24  C19 UNL     1      47.117 -12.722  12.846  1.00  0.00     0.120 A
HETATM   25  N6  UNL     1      47.149 -11.614  12.052  1.00  0.00    -0.350 N
ATOM     26  H6  UNL     1      46.738 -10.746  12.396  1.00  0.00     0.166 HD
BRANCH  17  27
HETATM   27  N2  UNL     1      49.323 -15.238   9.613  1.00  0.00    -0.385 N
ATOM     28  H22 UNL     1      50.229 -15.693   9.504  1.00  0.00     0.157 HD
ATOM     29  H21 UNL     1      48.868 -14.854   8.784  1.00  0.00     0.157 HD
ENDBRANCH  17  27
BRANCH  20  30
HETATM   30  C13 UNL     1      48.099 -17.326  13.676  1.00  0.00     0.011 A
HETATM   31  C14 UNL     1      47.613 -18.541  13.266  1.00  0.00     0.032 A
HETATM   32  C15 UNL     1      47.544 -19.627  14.145  1.00  0.00     0.088 A
HETATM   33  N4  UNL     1      47.963 -19.470  15.418  1.00  0.00    -0.375 N
HETATM   34  C16 UNL     1      48.445 -18.299  15.862  1.00  0.00     0.088 A
ATOM     35  H4  UNL     1      47.911 -20.262  16.059  1.00  0.00     0.164 HD
HETATM   36  C17 UNL     1      48.510 -17.240  14.997  1.00  0.00     0.032 A
ENDBRANCH  20  30
ENDBRANCH  12  14
ENDBRANCH   6  10
TORSDOF 4
ENDMDL