MODEL 4
REMARK VINA RESULT: -9.650950020      0.823      1.025
REMARK  5 active torsions:
REMARK  status: ('A' for Active; 'I' for Inactive)
REMARK    1  A    between atoms: N1_8  and  O1_9
REMARK    2  A    between atoms: C8_11  and  N2_12
REMARK    3  A    between atoms: N2_12  and  C9_14
REMARK    4  A    between atoms: C11_21  and  N6_22
REMARK    5  A    between atoms: N6_22  and  C12_24
ROOT
HETATM    1  C9  UNL     1      49.916 -15.243   8.892  1.00  0.00     0.701 A
HETATM    2  N3  UNL     1      50.427 -16.477   9.059  1.00  0.00    -0.162 N
ATOM      3  H3  UNL     1      49.868 -17.220   9.479  1.00  0.00     0.187 HD
HETATM    4  C10 UNL     1      51.690 -16.710   8.659  1.00  0.00     0.221 A
HETATM    5  N4  UNL     1      52.305 -17.984   8.799  1.00  0.00    -0.062 NA
HETATM    6  N5  UNL     1      52.417 -15.722   8.106  1.00  0.00    -0.162 N
ATOM      7  H5  UNL     1      53.374 -15.912   7.808  1.00  0.00     0.187 HD
HETATM    8  C11 UNL     1      51.906 -14.481   7.936  1.00  0.00     0.699 A
HETATM    9  N7  UNL     1      50.643 -14.246   8.335  1.00  0.00    -0.022 N
ATOM     10  H7  UNL     1      50.234 -13.318   8.219  1.00  0.00     0.203 HD
ENDROOT
BRANCH   1  11
HETATM   11  N2  UNL     1      48.715 -15.040   9.277  1.00  0.00    -0.173 N
ATOM     12  H2  UNL     1      48.150 -15.858   9.505  1.00  0.00     0.186 HD
BRANCH  11  13
HETATM   13  C8  UNL     1      48.107 -13.772   9.413  1.00  0.00     0.158 A
HETATM   14  N1  UNL     1      47.898 -12.985   8.323  1.00  0.00    -0.218 N
HETATM   15  C7  UNL     1      47.318 -11.780   8.470  1.00  0.00     0.126 A
HETATM   16  C6  UNL     1      46.942 -11.358   9.726  1.00  0.00     0.032 A
HETATM   17  C5  UNL     1      47.145 -12.142  10.854  1.00  0.00    -0.021 A
HETATM   18  C4  UNL     1      46.778 -11.738  12.117  1.00  0.00     0.013 A
HETATM   19  C18 UNL     1      47.740 -13.374  10.688  1.00  0.00     0.021 A
HETATM   20  C3  UNL     1      46.997 -12.553  13.230  1.00  0.00     0.007 A
HETATM   21  C2  UNL     1      47.591 -13.787  13.077  1.00  0.00    -0.061 A
HETATM   22  C1  UNL     1      47.844 -14.692  14.248  1.00  0.00     0.048 C
HETATM   23  C19 UNL     1      47.952 -14.174  11.802  1.00  0.00     0.023 A
BRANCH  14  24
HETATM   24  O1  UNL     1      48.272 -13.402   7.057  1.00  0.00    -0.282 OA
ATOM     25  H1  UNL     1      49.067 -13.053   6.671  1.00  0.00     0.245 HD
ENDBRANCH  14  24
ENDBRANCH  11  13
ENDBRANCH   1  11
BRANCH   8  26
HETATM   26  N6  UNL     1      52.589 -13.515   7.406  1.00  0.00    -0.191 N
ATOM     27  H6  UNL     1      53.608 -13.503   7.449  1.00  0.00     0.184 HD
BRANCH  26  28
HETATM   28  C12 UNL     1      51.867 -12.468   6.760  1.00  0.00     0.049 A
HETATM   29  C13 UNL     1      51.621 -12.517   5.403  1.00  0.00     0.030 A
HETATM   30  C14 UNL     1      50.924 -11.519   4.744  1.00  0.00     0.002 A
HETATM   31  C15 UNL     1      50.449 -10.425   5.452  1.00  0.00     0.000 A
HETATM   32  C16 UNL     1      50.683 -10.358   6.805  1.00  0.00     0.002 A
HETATM   33  C17 UNL     1      51.389 -11.374   7.451  1.00  0.00     0.030 A
ENDBRANCH  26  28
ENDBRANCH   8  26
TORSDOF 5
ENDMDL