MODEL 5
REMARK VINA RESULT: -10.171021296      3.018      4.566
REMARK  2 active torsions:
REMARK  status: ('A' for Active; 'I' for Inactive)
REMARK    1  A    between atoms: C5_12  and  C6_13
REMARK    2  A    between atoms: C10_17  and  C11_18
ROOT
HETATM    1  C6  UNL     1      50.910 -11.468   6.303  1.00  0.00    -0.034 A
HETATM    2  C7  UNL     1      50.148 -10.341   6.128  1.00  0.00     0.011 A
HETATM    3  C8  UNL     1      49.066 -10.071   6.974  1.00  0.00     0.002 A
HETATM    4  C9  UNL     1      48.764 -10.951   7.992  1.00  0.00     0.012 A
HETATM    5  C10 UNL     1      49.511 -12.105   8.201  1.00  0.00    -0.025 A
HETATM    6  C18 UNL     1      50.567 -12.338   7.352  1.00  0.00     0.023 A
ENDROOT
BRANCH   1   7
HETATM    7  C5  UNL     1      52.043 -11.785   5.475  1.00  0.00     0.034 C
HETATM    8  C4  UNL     1      52.140 -12.262   4.274  1.00  0.00     0.101 A
HETATM    9  C1  UNL     1      53.510 -12.474   3.734  1.00  0.00     0.263 A
HETATM   10  C3  UNL     1      50.997 -12.556   3.431  1.00  0.00     0.263 A
HETATM   11  O1  UNL     1      54.545 -12.238   4.411  1.00  0.00    -0.267 OA
HETATM   12  N1  UNL     1      53.623 -12.958   2.409  1.00  0.00    -0.299 N
HETATM   13  C2  UNL     1      52.477 -13.237   1.609  1.00  0.00     0.181 A
ATOM     14  H1  UNL     1      54.551 -13.112   2.015  1.00  0.00     0.171 HD
HETATM   15  S1  UNL     1      52.702 -13.798   0.078  1.00  0.00    -0.040 SA
HETATM   16  N2  UNL     1      51.165 -13.045   2.098  1.00  0.00    -0.299 N
ATOM     17  H2  UNL     1      50.355 -13.251   1.512  1.00  0.00     0.171 HD
HETATM   18  O2  UNL     1      49.789 -12.393   3.826  1.00  0.00    -0.267 OA
ENDBRANCH   1   7
BRANCH   5  19
HETATM   19  C11 UNL     1      49.155 -13.008   9.289  1.00  0.00    -0.025 A
HETATM   20  C12 UNL     1      49.538 -14.329   9.270  1.00  0.00     0.014 A
HETATM   21  C13 UNL     1      49.181 -15.177  10.329  1.00  0.00     0.033 A
HETATM   22  C14 UNL     1      48.451 -14.706  11.391  1.00  0.00     0.071 A
HETATM   23  N3  UNL     1      47.989 -15.291  12.505  1.00  0.00    -0.257 N
HETATM   24  C16 UNL     1      48.054 -13.382  11.435  1.00  0.00     0.070 A
HETATM   25  O3  UNL     1      47.341 -14.400  13.210  1.00  0.00    -0.194 OA
ATOM     26  H3  UNL     1      48.121 -16.269  12.761  1.00  0.00     0.195 HD
HETATM   27  C15 UNL     1      47.353 -13.248  12.612  1.00  0.00     0.317 A
HETATM   28  O4  UNL     1      46.825 -12.197  13.024  1.00  0.00    -0.257 OA
HETATM   29  C17 UNL     1      48.414 -12.566  10.386  1.00  0.00     0.032 A
ENDBRANCH   5  19
TORSDOF 2
ENDMDL