MODEL 1
REMARK VINA RESULT: -9.873653562      0.000      0.000
REMARK  3 active torsions:
REMARK  status: ('A' for Active; 'I' for Inactive)
REMARK    1  A    between atoms: C4_7  and  N3_8
REMARK    2  A    between atoms: N3_8  and  C5_10
REMARK    3  A    between atoms: N5_19  and  C12_21
ROOT
HETATM    1  N1  UNL     1      47.688 -14.699  14.748  1.00  0.00    -0.191 NA
HETATM    2  C1  UNL     1      47.515 -14.111  13.773  1.00  0.00     0.104 C
HETATM    3  C2  UNL     1      47.294 -13.332  12.566  1.00  0.00     0.105 A
HETATM    4  C3  UNL     1      47.101 -11.957  12.725  1.00  0.00     0.132 A
HETATM    5  N2  UNL     1      46.898 -11.238  11.622  1.00  0.00    -0.200 N
ATOM      6  H2  UNL     1      46.754 -10.231  11.697  1.00  0.00     0.183 HD
HETATM    7  C4  UNL     1      46.881 -11.833  10.394  1.00  0.00     0.684 A
HETATM    8  N4  UNL     1      47.063 -13.134  10.247  1.00  0.00    -0.175 N
ATOM      9  H4  UNL     1      47.043 -13.539   9.311  1.00  0.00     0.186 HD
HETATM   10  C11 UNL     1      47.282 -13.961  11.342  1.00  0.00     0.143 A
HETATM   11  N5  UNL     1      47.445 -15.177  11.108  1.00  0.00    -0.341 N
ATOM     12  H5  UNL     1      47.384 -15.343  10.104  1.00  0.00     0.167 HD
ENDROOT
BRANCH  11  13
HETATM   13  C12 UNL     1      47.675 -16.340  11.744  1.00  0.00     0.034 A
HETATM   14  C13 UNL     1      48.974 -16.825  11.889  1.00  0.00     0.030 A
HETATM   15  C14 UNL     1      49.229 -18.019  12.510  1.00  0.00     0.020 A
HETATM   16  C15 UNL     1      48.214 -18.798  13.021  1.00  0.00     0.048 A
HETATM   17  C16 UNL     1      46.924 -18.325  12.881  1.00  0.00     0.050 A
HETATM   18  C19 UNL     1      48.143 -20.077  13.716  1.00  0.00     0.259 A
HETATM   19  C17 UNL     1      46.655 -17.128  12.260  1.00  0.00     0.047 A
HETATM   20  C18 UNL     1      46.012 -19.288  13.483  1.00  0.00     0.259 A
HETATM   21  O1  UNL     1      44.757 -19.167  13.530  1.00  0.00    -0.267 OA
HETATM   22  N6  UNL     1      46.784 -20.372  13.997  1.00  0.00    -0.289 N
ATOM     23  H6  UNL     1      46.427 -21.199  14.475  1.00  0.00     0.172 HD
HETATM   24  O2  UNL     1      49.099 -20.820  14.031  1.00  0.00    -0.267 OA
ENDBRANCH  11  13
BRANCH   7  25
HETATM   25  N3  UNL     1      46.684 -11.137   9.327  1.00  0.00    -0.192 N
ATOM     26  H3  UNL     1      45.741 -10.928   9.000  1.00  0.00     0.184 HD
BRANCH  25  27
HETATM   27  C5  UNL     1      47.824 -10.669   8.620  1.00  0.00     0.049 A
HETATM   28  C6  UNL     1      48.949 -10.175   9.288  1.00  0.00     0.030 A
HETATM   29  C7  UNL     1      50.057  -9.718   8.603  1.00  0.00     0.002 A
HETATM   30  C8  UNL     1      50.060  -9.749   7.210  1.00  0.00     0.000 A
HETATM   31  C9  UNL     1      48.951 -10.236   6.553  1.00  0.00     0.002 A
HETATM   32  C10 UNL     1      47.831 -10.697   7.237  1.00  0.00     0.030 A
ENDBRANCH  25  27
ENDBRANCH   7  25
TORSDOF 3
ENDMDL