MODEL 2
REMARK VINA RESULT: -9.274615961      1.378      1.628
REMARK  6 active torsions:
REMARK  status: ('A' for Active; 'I' for Inactive)
REMARK    1  A    between atoms: C4_4  and  N1_5
REMARK    2  A    between atoms: N1_5  and  C5_7
REMARK    3  A    between atoms: C6_10  and  N3_11
REMARK    4  A    between atoms: N3_11  and  C7_13
REMARK    5  A    between atoms: C11_20  and  N5_21
REMARK    6  A    between atoms: N5_21  and  C12_23
ROOT
HETATM    1  C5  UNL     1      49.260 -15.167  10.372  1.00  0.00     0.134 A
HETATM    2  N2  UNL     1      49.003 -16.393  10.822  1.00  0.00    -0.175 N
ATOM      3  H2  UNL     1      49.581 -17.163  10.485  1.00  0.00     0.186 HD
HETATM    4  C6  UNL     1      48.018 -16.669  11.701  1.00  0.00     0.686 A
HETATM    5  N4  UNL     1      47.268 -15.645  12.136  1.00  0.00    -0.191 N
ATOM      6  H4  UNL     1      46.520 -15.844  12.801  1.00  0.00     0.184 HD
HETATM    7  C8  UNL     1      47.449 -14.367  11.741  1.00  0.00     0.063 A
HETATM    8  C9  UNL     1      46.660 -13.339  12.208  1.00  0.00     0.033 A
HETATM    9  C10 UNL     1      46.864 -12.045  11.791  1.00  0.00     0.032 A
HETATM   10  C11 UNL     1      47.858 -11.779  10.906  1.00  0.00     0.034 A
HETATM   11  C17 UNL     1      48.640 -12.821  10.447  1.00  0.00     0.047 A
HETATM   12  C18 UNL     1      48.476 -14.129  10.834  1.00  0.00     0.038 A
ENDROOT
BRANCH   1  13
HETATM   13  N1  UNL     1      50.216 -14.905   9.521  1.00  0.00    -0.341 N
ATOM     14  H1  UNL     1      51.189 -15.014   9.807  1.00  0.00     0.167 HD
BRANCH  13  15
HETATM   15  C4  UNL     1      49.916 -14.471   8.204  1.00  0.00     0.036 A
HETATM   16  C3  UNL     1      50.791 -13.689   7.495  1.00  0.00     0.054 A
HETATM   17  C2  UNL     1      50.484 -13.277   6.219  1.00  0.00     0.007 A
HETATM   18  C1  UNL     1      51.414 -12.432   5.435  1.00  0.00     0.068 C
HETATM   19  N7  UNL     1      49.321 -13.638   5.650  1.00  0.00    -0.369 N
HETATM   20  C20 UNL     1      48.449 -14.410   6.340  1.00  0.00     0.090 A
ATOM     21  H7  UNL     1      49.096 -13.331   4.704  1.00  0.00     0.165 HD
HETATM   22  C19 UNL     1      48.722 -14.848   7.636  1.00  0.00     0.046 A
ENDBRANCH  13  15
ENDBRANCH   1  13
BRANCH   4  23
HETATM   23  N3  UNL     1      47.856 -17.895  12.070  1.00  0.00    -0.167 N
ATOM     24  H3  UNL     1      48.677 -18.497  12.137  1.00  0.00     0.186 HD
BRANCH  23  25
HETATM   25  C7  UNL     1      46.589 -18.438  12.386  1.00  0.00     0.368 C
HETATM   26  O1  UNL     1      45.937 -18.044  13.376  1.00  0.00    -0.283 OA
ENDBRANCH  23  25
ENDBRANCH   4  23
BRANCH  10  27
HETATM   27  N5  UNL     1      48.170 -10.499  10.401  1.00  0.00    -0.342 N
ATOM     28  H5  UNL     1      47.974  -9.710  11.016  1.00  0.00     0.167 HD
BRANCH  27  29
HETATM   29  C12 UNL     1      48.666 -10.220   9.273  1.00  0.00     0.105 A
HETATM   30  C13 UNL     1      47.943 -10.563   8.147  1.00  0.00     0.048 A
HETATM   31  C14 UNL     1      48.380 -10.310   6.864  1.00  0.00     0.005 A
HETATM   32  C15 UNL     1      49.602  -9.682   6.733  1.00  0.00     0.017 A
HETATM   33  C16 UNL     1      50.302  -9.350   7.873  1.00  0.00     0.089 A
HETATM   34  N6  UNL     1      49.853  -9.608   9.114  1.00  0.00    -0.352 N
ATOM     35  H6  UNL     1      50.408  -9.342   9.928  1.00  0.00     0.166 HD
ENDBRANCH  27  29
ENDBRANCH  10  27
TORSDOF 6
ENDMDL