MODEL 2
REMARK VINA RESULT: -8.965273365      0.074      1.067
REMARK  4 active torsions:
REMARK  status: ('A' for Active; 'I' for Inactive)
REMARK    1  A    between atoms: N3_8  and  C4_10
REMARK    2  A    between atoms: C8_14  and  N4_15
REMARK    3  A    between atoms: C10_19  and  C11_20
REMARK    4  A    between atoms: C11_20  and  C13_23
ROOT
HETATM    1  C11 UNL     1      49.114 -13.322   7.825  1.00  0.00     0.104 C
HETATM    2  C12 UNL     1      48.834 -14.436   6.916  1.00  0.00     0.104 C
HETATM    3  N5  UNL     1      48.599 -15.347   6.221  1.00  0.00    -0.191 NA
ENDROOT
BRANCH   1   4
HETATM    4  C10 UNL     1      49.609 -12.212   7.347  1.00  0.00     0.061 A
HETATM    5  C2  UNL     1      49.007 -11.013   7.066  1.00  0.00     0.054 A
HETATM    6  C1  UNL     1      47.743 -10.672   7.213  1.00  0.00     0.045 C
HETATM    7  N1  UNL     1      49.980 -10.181   6.582  1.00  0.00    -0.299 N
HETATM    8  N2  UNL     1      51.128 -10.794   6.552  1.00  0.00    -0.284 N
ATOM      9  H1  UNL     1      49.828  -9.217   6.287  1.00  0.00     0.187 HD
HETATM   10  C3  UNL     1      50.964 -12.040   7.008  1.00  0.00     0.134 A
ATOM     11  H2  UNL     1      52.009 -10.390   6.233  1.00  0.00     0.188 HD
HETATM   12  N3  UNL     1      51.874 -12.953   7.128  1.00  0.00    -0.341 N
ATOM     13  H3  UNL     1      51.629 -13.875   7.490  1.00  0.00     0.167 HD
BRANCH  12  14
HETATM   14  C4  UNL     1      53.221 -12.669   6.751  1.00  0.00     0.035 A
HETATM   15  C5  UNL     1      54.148 -12.194   7.671  1.00  0.00     0.029 A
HETATM   16  C6  UNL     1      55.442 -11.923   7.300  1.00  0.00     0.005 A
HETATM   17  C7  UNL     1      55.860 -12.111   6.012  1.00  0.00     0.036 A
HETATM   18  C8  UNL     1      54.967 -12.585   5.055  1.00  0.00     0.105 A
HETATM   19  C9  UNL     1      53.675 -12.847   5.462  1.00  0.00     0.065 A
BRANCH  18  20
HETATM   20  N4  UNL     1      55.354 -12.795   3.712  1.00  0.00    -0.116 N
HETATM   21  O1  UNL     1      56.323 -13.515   3.448  1.00  0.00    -0.532 OA
HETATM   22  O2  UNL     1      54.651 -12.200   2.709  1.00  0.00    -0.532 OA
ENDBRANCH  18  20
ENDBRANCH  12  14
ENDBRANCH   1   4
BRANCH   1  23
HETATM   23  C13 UNL     1      48.780 -13.630   9.196  1.00  0.00     0.128 A
HETATM   24  N6  UNL     1      48.795 -14.857   9.788  1.00  0.00    -0.339 N
HETATM   25  C14 UNL     1      48.381 -14.738  11.055  1.00  0.00     0.060 A
ATOM     26  H6  UNL     1      49.077 -15.727   9.336  1.00  0.00     0.167 HD
HETATM   27  C15 UNL     1      48.222 -15.676  12.059  1.00  0.00     0.032 A
HETATM   28  C19 UNL     1      48.092 -13.422  11.299  1.00  0.00     0.060 A
HETATM   29  C16 UNL     1      47.775 -15.339  13.319  1.00  0.00     0.002 A
HETATM   30  C17 UNL     1      47.478 -14.001  13.572  1.00  0.00     0.002 A
HETATM   31  C18 UNL     1      47.645 -13.084  12.559  1.00  0.00     0.032 A
HETATM   32  N7  UNL     1      48.339 -12.761  10.157  1.00  0.00    -0.339 N
ATOM     33  H7  UNL     1      48.216 -11.757  10.025  1.00  0.00     0.167 HD
ENDBRANCH   1  23
TORSDOF 4
ENDMDL