MODEL 4
REMARK VINA RESULT: -9.365405169      1.084      1.470
REMARK  3 active torsions:
REMARK  status: ('A' for Active; 'I' for Inactive)
REMARK    1  A    between atoms: C2_3  and  C3_4
REMARK    2  A    between atoms: C4_5  and  N1_6
REMARK    3  A    between atoms: N1_6  and  C5_7
ROOT
HETATM    1  C3  UNL     1      50.147 -11.674   6.455  1.00  0.00     0.123 A
HETATM    2  C4  UNL     1      49.445 -11.554   7.681  1.00  0.00     0.214 A
HETATM    3  N4  UNL     1      49.036 -10.268   7.712  1.00  0.00    -0.270 N
ATOM      4  H4  UNL     1      48.497  -9.846   8.468  1.00  0.00     0.189 HD
HETATM    5  N5  UNL     1      49.429  -9.638   6.634  1.00  0.00    -0.263 N
ATOM      6  H5  UNL     1      49.239  -8.657   6.432  1.00  0.00     0.190 HD
HETATM    7  C13 UNL     1      50.119 -10.465   5.828  1.00  0.00     0.277 A
HETATM    8  O2  UNL     1      50.604 -10.107   4.730  1.00  0.00    -0.266 OA
ENDROOT
BRANCH   2   9
HETATM    9  N1  UNL     1      49.218 -12.474   8.599  1.00  0.00    -0.366 NA
BRANCH   9  10
HETATM   10  C5  UNL     1      49.054 -13.274   9.445  1.00  0.00     0.195 A
HETATM   11  N2  UNL     1      49.596 -14.531   9.386  1.00  0.00    -0.327 N
HETATM   12  C6  UNL     1      49.405 -15.444  10.356  1.00  0.00     0.183 A
ATOM     13  H2  UNL     1      50.164 -14.783   8.578  1.00  0.00     0.169 HD
HETATM   14  N3  UNL     1      48.678 -15.180  11.430  1.00  0.00    -0.351 N
HETATM   15  C7  UNL     1      48.109 -13.992  11.584  1.00  0.00     0.048 A
ATOM     16  H3  UNL     1      48.554 -15.897  12.145  1.00  0.00     0.166 HD
HETATM   17  C8  UNL     1      47.361 -13.753  12.716  1.00  0.00     0.030 A
HETATM   18  C12 UNL     1      48.293 -13.043  10.601  1.00  0.00     0.049 A
HETATM   19  C9  UNL     1      46.781 -12.518  12.863  1.00  0.00     0.002 A
HETATM   20  C10 UNL     1      46.951 -11.552  11.892  1.00  0.00     0.001 A
HETATM   21  C11 UNL     1      47.701 -11.802  10.765  1.00  0.00     0.018 A
ENDBRANCH   9  10
ENDBRANCH   2   9
BRANCH   1  22
HETATM   22  C2  UNL     1      50.784 -12.899   5.986  1.00  0.00     0.105 A
HETATM   23  C1  UNL     1      50.871 -13.447   4.647  1.00  0.00     0.212 A
HETATM   24  O1  UNL     1      50.427 -13.015   3.579  1.00  0.00    -0.285 OA
HETATM   25  C19 UNL     1      51.634 -14.712   4.735  1.00  0.00     0.043 A
HETATM   26  C14 UNL     1      51.937 -14.827   6.072  1.00  0.00     0.047 A
HETATM   27  C18 UNL     1      52.054 -15.683   3.864  1.00  0.00     0.018 A
HETATM   28  N6  UNL     1      51.404 -13.713   6.772  1.00  0.00    -0.351 N
HETATM   29  C15 UNL     1      52.658 -15.900   6.557  1.00  0.00     0.030 A
ATOM     30  H6  UNL     1      51.499 -13.573   7.778  1.00  0.00     0.166 HD
HETATM   31  C16 UNL     1      53.062 -16.853   5.648  1.00  0.00     0.002 A
HETATM   32  C17 UNL     1      52.783 -16.784   4.307  1.00  0.00     0.001 A
ENDBRANCH   1  22
TORSDOF 3
ENDMDL