MODEL 2
REMARK VINA RESULT: -8.554496568      1.773      2.074
REMARK  5 active torsions:
REMARK  status: ('A' for Active; 'I' for Inactive)
REMARK    1  A    between atoms: N1_2  and  C2_4
REMARK    2  A    between atoms: C7_11  and  N3_12
REMARK    3  A    between atoms: N3_12  and  C8_14
REMARK    4  A    between atoms: C11_17  and  S1_18
REMARK    5  A    between atoms: S1_18  and  N4_19
ROOT
HETATM    1  C2  UNL     1      50.740 -13.025   3.704  1.00  0.00     0.225 A
HETATM    2  N2  UNL     1      51.309 -13.862   4.606  1.00  0.00    -0.320 N
ATOM      3  H2  UNL     1      52.038 -14.548   4.410  1.00  0.00     0.169 HD
HETATM    4  C3  UNL     1      50.750 -13.633   5.793  1.00  0.00     0.071 A
HETATM    5  C4  UNL     1      50.948 -14.189   7.038  1.00  0.00     0.033 A
HETATM    6  C5  UNL     1      50.204 -13.741   8.113  1.00  0.00     0.018 A
HETATM    7  C6  UNL     1      49.261 -12.741   7.981  1.00  0.00     0.020 A
HETATM    8  C7  UNL     1      48.522 -12.295   9.052  1.00  0.00     0.046 A
HETATM    9  C14 UNL     1      47.602 -11.295   8.832  1.00  0.00     0.047 A
HETATM   10  C15 UNL     1      47.469 -10.793   7.550  1.00  0.00     0.090 A
HETATM   11  N5  UNL     1      48.191 -11.236   6.526  1.00  0.00    -0.363 N
ATOM     12  H5  UNL     1      48.057 -10.833   5.599  1.00  0.00     0.165 HD
HETATM   13  C16 UNL     1      49.087 -12.199   6.704  1.00  0.00     0.081 A
HETATM   14  C17 UNL     1      49.822 -12.640   5.623  1.00  0.00     0.133 A
HETATM   15  O3  UNL     1      49.858 -12.313   4.353  1.00  0.00    -0.275 OA
ENDROOT
BRANCH   8  16
HETATM   16  N3  UNL     1      48.694 -12.802  10.211  1.00  0.00    -0.355 N
ATOM     17  H3  UNL     1      49.277 -12.277  10.861  1.00  0.00     0.166 HD
BRANCH  16  18
HETATM   18  C8  UNL     1      48.162 -14.003  10.671  1.00  0.00     0.032 A
HETATM   19  C9  UNL     1      48.986 -15.012  11.106  1.00  0.00     0.031 A
HETATM   20  C10 UNL     1      48.490 -16.220  11.571  1.00  0.00     0.027 A
HETATM   21  C11 UNL     1      47.136 -16.431  11.605  1.00  0.00     0.079 A
HETATM   22  C12 UNL     1      46.307 -15.422  11.171  1.00  0.00     0.027 A
HETATM   23  C13 UNL     1      46.802 -14.204  10.702  1.00  0.00     0.031 A
BRANCH  21  24
HETATM   24  S1  UNL     1      46.454 -17.941  12.185  1.00  0.00     0.256 S
HETATM   25  O1  UNL     1      46.373 -17.922  13.690  1.00  0.00    -0.201 OA
HETATM   26  O2  UNL     1      47.384 -19.092  11.836  1.00  0.00    -0.201 OA
BRANCH  24  27
HETATM   27  N4  UNL     1      44.914 -18.200  11.486  1.00  0.00    -0.324 N
ATOM     28  H42 UNL     1      44.078 -17.673  11.736  1.00  0.00     0.169 HD
ATOM     29  H41 UNL     1      44.962 -18.948  10.796  1.00  0.00     0.169 HD
ENDBRANCH  24  27
ENDBRANCH  21  24
ENDBRANCH  16  18
ENDBRANCH   8  16
BRANCH   1  30
HETATM   30  N1  UNL     1      51.045 -12.973   2.432  1.00  0.00    -0.360 N
HETATM   31  C1  UNL     1      52.448 -13.020   2.066  1.00  0.00     0.150 C
ATOM     32  H1  UNL     1      50.318 -12.901   1.720  1.00  0.00     0.162 HD
ENDBRANCH   1  30
TORSDOF 5
ENDMDL