MODEL 3
REMARK VINA RESULT: -9.030887868      1.433      2.322
REMARK  5 active torsions:
REMARK  status: ('A' for Active; 'I' for Inactive)
REMARK    1  A    between atoms: N1_1  and  C1_4
REMARK    2  A    between atoms: N4_16  and  C9_17
REMARK    3  A    between atoms: C9_17  and  C10_18
REMARK    4  A    between atoms: C13_21  and  C14_22
REMARK    5  A    between atoms: C15_23  and  C16_24
ROOT
HETATM    1  C1  UNL     1      47.939 -11.168   9.623  1.00  0.00     0.117 A
HETATM    2  C2  UNL     1      48.681 -11.063   8.440  1.00  0.00     0.035 A
HETATM    3  C3  UNL     1      49.549 -10.019   8.211  1.00  0.00     0.019 A
HETATM    4  C4  UNL     1      50.283  -9.929   7.029  1.00  0.00     0.027 A
HETATM    5  C5  UNL     1      50.156 -10.894   6.047  1.00  0.00     0.048 A
HETATM    6  N2  UNL     1      50.906 -10.791   4.852  1.00  0.00    -0.102 NA
HETATM    7  C6  UNL     1      49.285 -11.931   6.291  1.00  0.00     0.057 A
HETATM    8  C7  UNL     1      48.558 -12.024   7.460  1.00  0.00     0.052 A
HETATM    9  N3  UNL     1      47.707 -13.020   7.719  1.00  0.00    -0.307 N
ATOM     10  H3  UNL     1      47.589 -13.750   7.016  1.00  0.00     0.170 HD
HETATM   11  C8  UNL     1      46.991 -13.114   8.867  1.00  0.00     0.329 A
HETATM   12  O1  UNL     1      46.230 -14.111   8.959  1.00  0.00    -0.246 OA
HETATM   13  N4  UNL     1      47.090 -12.180   9.858  1.00  0.00    -0.281 N
ENDROOT
BRANCH  13  14
HETATM   14  C9  UNL     1      46.343 -12.316  11.083  1.00  0.00     0.174 C
BRANCH  14  15
HETATM   15  C10 UNL     1      46.850 -13.295  12.052  1.00  0.00    -0.040 A
HETATM   16  C11 UNL     1      47.219 -14.570  11.730  1.00  0.00     0.010 A
HETATM   17  C12 UNL     1      47.710 -15.468  12.688  1.00  0.00     0.021 A
HETATM   18  C13 UNL     1      47.836 -15.081  14.002  1.00  0.00     0.018 A
HETATM   19  C21 UNL     1      47.457 -13.783  14.306  1.00  0.00     0.021 A
HETATM   20  C22 UNL     1      46.981 -12.901  13.390  1.00  0.00     0.010 A
BRANCH  18  21
HETATM   21  C14 UNL     1      48.336 -15.984  14.997  1.00  0.00    -0.061 C
HETATM   22  C15 UNL     1      48.772 -16.733  15.837  1.00  0.00    -0.060 C
BRANCH  22  23
HETATM   23  C16 UNL     1      49.314 -17.618  16.855  1.00  0.00     0.033 A
HETATM   24  C17 UNL     1      48.510 -18.470  17.563  1.00  0.00     0.023 A
HETATM   25  C18 UNL     1      49.117 -19.286  18.525  1.00  0.00     0.019 A
HETATM   26  C19 UNL     1      50.477 -19.232  18.749  1.00  0.00     0.087 A
HETATM   27  N5  UNL     1      51.247 -18.387  18.041  1.00  0.00    -0.374 N
HETATM   28  C20 UNL     1      50.680 -17.604  17.121  1.00  0.00     0.108 A
ATOM     29  H5  UNL     1      52.253 -18.345  18.206  1.00  0.00     0.164 HD
ENDBRANCH  22  23
ENDBRANCH  18  21
ENDBRANCH  14  15
ENDBRANCH  13  14
BRANCH   1  30
HETATM   30  N1  UNL     1      48.111 -10.194  10.441  1.00  0.00    -0.384 N
ATOM     31  H12 UNL     1      48.185 -10.322  11.450  1.00  0.00     0.157 HD
ATOM     32  H11 UNL     1      48.137  -9.275   9.998  1.00  0.00     0.157 HD
ENDBRANCH   1  30
TORSDOF 5
ENDMDL