MODEL 2
REMARK VINA RESULT: -7.925491954      1.502      2.487
REMARK  2 active torsions:
REMARK  status: ('A' for Active; 'I' for Inactive)
REMARK    1  A    between atoms: N2_3  and  C2_4
REMARK    2  A    between atoms: N2_3  and  C8_11
ROOT
HETATM    1  N1  UNL     1      37.342  74.765  59.574  1.00  0.00    -0.172 NA
HETATM    2  C1  UNL     1      38.058  73.849  59.651  1.00  0.00     0.185 C
HETATM    3  N2  UNL     1      38.922  72.754  59.768  1.00  0.00    -0.278 N
ENDROOT
BRANCH   3   4
HETATM    4  C2  UNL     1      39.148  72.286  61.114  1.00  0.00     0.069 A
HETATM    5  C3  UNL     1      38.557  71.142  61.569  1.00  0.00     0.032 A
HETATM    6  C4  UNL     1      38.781  70.719  62.852  1.00  0.00     0.002 A
HETATM    7  C5  UNL     1      39.607  71.457  63.670  1.00  0.00     0.002 A
HETATM    8  C6  UNL     1      40.208  72.607  63.227  1.00  0.00     0.029 A
HETATM    9  C7  UNL     1      39.965  73.022  61.914  1.00  0.00     0.073 A
HETATM   10  N3  UNL     1      40.603  74.220  61.495  1.00  0.00    -0.100 NA
ENDBRANCH   3   4
BRANCH   3  11
HETATM   11  C8  UNL     1      39.545  72.115  58.618  1.00  0.00     0.101 C
HETATM   12  C9  UNL     1      40.987  71.759  58.897  1.00  0.00     0.026 C
HETATM   13  C10 UNL     1      41.103  70.291  59.266  1.00  0.00     0.002 C
HETATM   14  C11 UNL     1      40.800  69.492  58.047  1.00  0.00     0.000 C
HETATM   15  C12 UNL     1      39.460  69.845  57.513  1.00  0.00     0.002 C
HETATM   16  C13 UNL     1      38.728  70.936  58.209  1.00  0.00     0.026 C
ENDBRANCH   3  11
TORSDOF 2
ENDMDL