MODEL 5
REMARK VINA RESULT: -6.717191841      3.653      5.465
REMARK  2 active torsions:
REMARK  status: ('A' for Active; 'I' for Inactive)
REMARK    1  A    between atoms: C2_6  and  C3_7
REMARK    2  A    between atoms: C3_7  and  C4_8
ROOT
HETATM    1  N1  UNL     1      39.524  72.632  63.841  1.00  0.00    -0.374 N
ATOM      2  H11 UNL     1      39.862  73.100  64.682  1.00  0.00     0.158 HD
ATOM      3  H12 UNL     1      38.603  72.197  63.898  1.00  0.00     0.158 HD
HETATM    4  C1  UNL     1      40.208  72.581  62.750  1.00  0.00     0.175 C
HETATM    5  O1  UNL     1      39.744  71.941  61.598  1.00  0.00    -0.325 OA
HETATM    6  C2  UNL     1      40.401  72.093  60.352  1.00  0.00     0.132 C
HETATM    7  C10 UNL     1      40.956  73.447  60.101  1.00  0.00     0.043 C
HETATM    8  C11 UNL     1      42.257  73.578  60.904  1.00  0.00     0.085 C
HETATM    9  S1  UNL     1      41.820  73.342  62.650  1.00  0.00    -0.087 SA
ENDROOT
BRANCH   6  10
HETATM   10  C3  UNL     1      39.534  71.630  59.235  1.00  0.00     0.037 C
BRANCH  10  11
HETATM   11  C4  UNL     1      40.127  70.719  58.234  1.00  0.00    -0.012 C
HETATM   12  C5  UNL     1      41.485  70.191  58.460  1.00  0.00     0.005 C
HETATM   13  C6  UNL     1      41.664  68.762  57.985  1.00  0.00     0.000 C
HETATM   14  C7  UNL     1      40.902  68.435  56.757  1.00  0.00     0.000 C
HETATM   15  C8  UNL     1      39.516  68.966  56.677  1.00  0.00     0.000 C
HETATM   16  C9  UNL     1      39.116  69.592  57.993  1.00  0.00     0.005 C
ENDBRANCH  10  11
ENDBRANCH   6  10
TORSDOF 2
ENDMDL