MODEL 3
REMARK VINA RESULT: -7.556590999      1.408      2.112
REMARK  2 active torsions:
REMARK  status: ('A' for Active; 'I' for Inactive)
REMARK    1  A    between atoms: C6_6  and  N1_7
REMARK    2  A    between atoms: N1_7  and  C7_9
ROOT
HETATM    1  C1  UNL     1      35.826  75.514  58.574  1.00  0.00     0.022 A
HETATM    2  C2  UNL     1      36.100  74.417  57.782  1.00  0.00     0.033 A
HETATM    3  C3  UNL     1      37.281  73.902  58.279  1.00  0.00     0.056 A
HETATM    4  C4  UNL     1      38.024  72.810  57.880  1.00  0.00     0.035 A
HETATM    5  C5  UNL     1      39.200  72.463  58.532  1.00  0.00     0.052 A
HETATM    6  C6  UNL     1      39.618  73.227  59.587  1.00  0.00     0.116 A
HETATM    7  N2  UNL     1      38.836  74.280  59.917  1.00  0.00    -0.279 N
ATOM      8  H2  UNL     1      39.137  74.857  60.702  1.00  0.00     0.189 HD
HETATM    9  N3  UNL     1      37.732  74.619  59.319  1.00  0.00    -0.266 N
HETATM   10  C13 UNL     1      36.826  75.622  59.500  1.00  0.00     0.117 A
ENDROOT
BRANCH   6  11
HETATM   11  N1  UNL     1      40.805  72.922  60.276  1.00  0.00    -0.371 N
ATOM     12  H1  UNL     1      41.679  73.294  59.903  1.00  0.00     0.161 HD
BRANCH  11  13
HETATM   13  C7  UNL     1      40.875  72.123  61.472  1.00  0.00     0.083 C
HETATM   14  C8  UNL     1      41.193  73.003  62.635  1.00  0.00     0.025 C
HETATM   15  C9  UNL     1      39.919  73.171  63.459  1.00  0.00     0.002 C
HETATM   16  C10 UNL     1      39.685  71.818  64.103  1.00  0.00     0.000 C
HETATM   17  C11 UNL     1      39.367  70.821  63.022  1.00  0.00     0.002 C
HETATM   18  C12 UNL     1      39.635  71.302  61.640  1.00  0.00     0.025 C
ENDBRANCH  11  13
ENDBRANCH   6  11
TORSDOF 2
ENDMDL