MODEL 2
REMARK VINA RESULT: -7.355341986      0.129      1.226
REMARK  4 active torsions:
REMARK  status: ('A' for Active; 'I' for Inactive)
REMARK    1  A    between atoms: C2_3  and  C3_4
REMARK    2  A    between atoms: C2_3  and  C10_15
REMARK    3  A    between atoms: C3_4  and  S1_8
REMARK    4  A    between atoms: S1_8  and  C4_9
ROOT
HETATM    1  N1  UNL     1      42.600  74.613  63.846  1.00  0.00    -0.196 NA
HETATM    2  C1  UNL     1      41.935  73.838  63.293  1.00  0.00     0.071 C
HETATM    3  C2  UNL     1      41.126  72.870  62.589  1.00  0.00     0.153 C
ENDROOT
BRANCH   3   4
HETATM    4  C3  UNL     1      40.853  73.377  61.208  1.00  0.00     0.063 C
HETATM    5  N2  UNL     1      40.046  74.329  61.060  1.00  0.00    -0.396 N
ATOM      6  H22 UNL     1      39.565  74.781  61.837  1.00  0.00     0.156 HD
ATOM      7  H21 UNL     1      39.860  74.675  60.119  1.00  0.00     0.156 HD
BRANCH   4   8
HETATM    8  S1  UNL     1      41.681  72.600  59.872  1.00  0.00    -0.076 SA
BRANCH   8   9
HETATM    9  C4  UNL     1      40.797  71.391  58.959  1.00  0.00     0.006 A
HETATM   10  C5  UNL     1      41.506  70.255  58.581  1.00  0.00     0.019 A
HETATM   11  C6  UNL     1      40.944  69.238  57.869  1.00  0.00     0.001 A
HETATM   12  C7  UNL     1      39.627  69.326  57.504  1.00  0.00     0.000 A
HETATM   13  C8  UNL     1      38.901  70.442  57.866  1.00  0.00     0.001 A
HETATM   14  C9  UNL     1      39.490  71.482  58.599  1.00  0.00     0.019 A
ENDBRANCH   8   9
ENDBRANCH   4   8
ENDBRANCH   3   4
BRANCH   3  15
HETATM   15  C10 UNL     1      39.875  72.643  63.367  1.00  0.00     0.010 A
HETATM   16  C11 UNL     1      39.906  71.304  64.126  1.00  0.00     0.007 A
HETATM   17  C12 UNL     1      38.901  71.580  63.045  1.00  0.00     0.007 A
ENDBRANCH   3  15
TORSDOF 4
ENDMDL