MODEL 3
REMARK VINA RESULT: -6.461837003      1.650      2.759
REMARK  4 active torsions:
REMARK  status: ('A' for Active; 'I' for Inactive)
REMARK    1  A    between atoms: N2_3  and  C2_5
REMARK    2  A    between atoms: C2_5  and  S2_7
REMARK    3  A    between atoms: S2_7  and  C3_8
REMARK    4  A    between atoms: C3_8  and  C4_9
ROOT
HETATM    1  N1  UNL     1      36.110  76.026  59.327  1.00  0.00    -0.172 NA
HETATM    2  C1  UNL     1      36.930  75.183  59.363  1.00  0.00     0.183 C
HETATM    3  N2  UNL     1      37.887  74.176  59.419  1.00  0.00    -0.279 N
ATOM      4  H2  UNL     1      38.503  74.096  60.228  1.00  0.00     0.179 HD
ENDROOT
BRANCH   3   5
HETATM    5  C2  UNL     1      38.001  73.253  58.329  1.00  0.00     0.147 C
HETATM    6  S1  UNL     1      37.300  73.711  56.921  1.00  0.00    -0.052 SA
BRANCH   5   7
HETATM    7  S2  UNL     1      38.803  71.732  58.626  1.00  0.00    -0.096 SA
BRANCH   7   8
HETATM    8  C3  UNL     1      38.536  70.912  60.171  1.00  0.00     0.115 C
BRANCH   8   9
HETATM    9  C4  UNL     1      39.313  71.495  61.316  1.00  0.00    -0.074 C
HETATM   10  C5  UNL     1      40.359  72.255  60.939  1.00  0.00    -0.023 C
HETATM   11  C6  UNL     1      41.197  72.880  61.961  1.00  0.00     0.027 C
HETATM   12  C7  UNL     1      40.363  73.281  63.133  1.00  0.00     0.004 C
HETATM   13  C8  UNL     1      39.617  72.119  63.732  1.00  0.00     0.005 C
HETATM   14  C9  UNL     1      38.939  71.262  62.699  1.00  0.00     0.034 C
ENDBRANCH   8   9
ENDBRANCH   7   8
ENDBRANCH   5   7
ENDBRANCH   3   5
TORSDOF 4
ENDMDL