MODEL 3
REMARK VINA RESULT: -7.966234765      3.199      4.487
REMARK  2 active torsions:
REMARK  status: ('A' for Active; 'I' for Inactive)
REMARK    1  A    between atoms: C2_2  and  C3_3
REMARK    2  A    between atoms: C2_2  and  C5_11
ROOT
HETATM    1  C1  UNL     1      38.745  71.611  58.338  1.00  0.00     0.017 C
HETATM    2  C2  UNL     1      39.035  73.099  58.581  1.00  0.00     0.039 C
ENDROOT
BRANCH   2   3
HETATM    3  C3  UNL     1      37.850  73.903  58.369  1.00  0.00     0.048 A
HETATM    4  C4  UNL     1      37.246  74.698  59.312  1.00  0.00     0.135 A
HETATM    5  N1  UNL     1      36.177  75.280  58.731  1.00  0.00    -0.296 N
HETATM    6  N2  UNL     1      36.111  74.873  57.488  1.00  0.00    -0.243 N
ATOM      7  H1  UNL     1      35.531  75.927  59.182  1.00  0.00     0.187 HD
HETATM    8  N3  UNL     1      37.116  74.039  57.254  1.00  0.00    -0.289 N
ATOM      9  H2  UNL     1      35.402  75.153  56.810  1.00  0.00     0.208 HD
ATOM     10  H3  UNL     1      37.301  73.574  56.366  1.00  0.00     0.188 HD
ENDBRANCH   2   3
BRANCH   2  11
HETATM   11  C5  UNL     1      39.661  73.199  59.922  1.00  0.00    -0.000 C
HETATM   12  C6  UNL     1      41.023  73.792  59.970  1.00  0.00     0.006 C
HETATM   13  C7  UNL     1      41.353  73.606  61.461  1.00  0.00     0.005 C
HETATM   14  C8  UNL     1      40.648  72.348  61.855  1.00  0.00    -0.010 C
HETATM   15  C9  UNL     1      39.547  72.598  62.867  1.00  0.00     0.005 C
HETATM   16  C12 UNL     1      39.832  71.899  60.642  1.00  0.00    -0.006 C
HETATM   17  C10 UNL     1      38.709  71.341  62.694  1.00  0.00     0.001 C
HETATM   18  C11 UNL     1      38.559  71.320  61.173  1.00  0.00     0.005 C
ENDBRANCH   2  11
TORSDOF 2
ENDMDL