MODEL 1
REMARK VINA RESULT: -7.212785073      0.000      0.000
REMARK  3 active torsions:
REMARK  status: ('A' for Active; 'I' for Inactive)
REMARK    1  A    between atoms: C4_4  and  C5_5
REMARK    2  A    between atoms: C5_5  and  S1_6
REMARK    3  A    between atoms: S1_6  and  C6_7
ROOT
HETATM    1  S1  UNL     1      40.073  72.514  59.694  1.00  0.00    -0.112 SA
ENDROOT
BRANCH   1   2
HETATM    2  C5  UNL     1      39.946  70.767  60.058  1.00  0.00     0.119 C
BRANCH   2   3
HETATM    3  C4  UNL     1      40.200  69.942  58.847  1.00  0.00    -0.049 A
HETATM    4  C3  UNL     1      39.227  69.689  57.919  1.00  0.00     0.008 A
HETATM    5  C2  UNL     1      39.542  68.930  56.801  1.00  0.00     0.001 A
HETATM    6  C1  UNL     1      40.801  68.426  56.597  1.00  0.00     0.000 A
HETATM    7  C12 UNL     1      41.768  68.694  57.549  1.00  0.00     0.001 A
HETATM    8  C11 UNL     1      41.465  69.441  58.653  1.00  0.00     0.008 A
ENDBRANCH   2   3
ENDBRANCH   1   2
BRANCH   1   9
HETATM    9  C6  UNL     1      38.529  73.282  59.287  1.00  0.00     0.042 C
HETATM   10  N1  UNL     1      38.096  74.388  59.728  1.00  0.00    -0.388 N
HETATM   11  C7  UNL     1      36.844  74.980  59.379  1.00  0.00     0.120 C
ATOM     12  H1  UNL     1      38.689  74.897  60.383  1.00  0.00     0.159 HD
HETATM   13  C8  UNL     1      36.441  74.730  57.965  1.00  0.00     0.020 C
HETATM   14  C9  UNL     1      37.284  73.693  57.263  1.00  0.00     0.008 C
HETATM   15  C10 UNL     1      37.571  72.612  58.307  1.00  0.00     0.064 C
ENDBRANCH   1   9
TORSDOF 3
ENDMDL