MODEL 3
REMARK VINA RESULT: -7.184854839      2.751      5.505
REMARK  1 active torsions:
REMARK  status: ('A' for Active; 'I' for Inactive)
REMARK    1  A    between atoms: N2_5  and  C4_6
ROOT
HETATM    1  N1  UNL     1      41.555  68.019  56.647  1.00  0.00    -0.190 NA
HETATM    2  C1  UNL     1      41.054  68.851  57.275  1.00  0.00     0.119 C
HETATM    3  C2  UNL     1      40.444  69.908  58.061  1.00  0.00     0.131 A
HETATM    4  C3  UNL     1      40.870  70.335  59.294  1.00  0.00     0.135 A
HETATM    5  N2  UNL     1      40.073  71.329  59.727  1.00  0.00    -0.326 N
HETATM    6  C10 UNL     1      39.157  71.512  58.761  1.00  0.00     0.179 A
HETATM    7  S1  UNL     1      37.916  72.593  58.727  1.00  0.00    -0.040 SA
HETATM    8  N3  UNL     1      39.374  70.655  57.748  1.00  0.00    -0.323 N
ATOM      9  H3  UNL     1      38.823  70.585  56.893  1.00  0.00     0.169 HD
ENDROOT
BRANCH   5  10
HETATM   10  C4  UNL     1      40.172  72.047  60.959  1.00  0.00     0.092 C
HETATM   11  C5  UNL     1      39.797  71.211  62.163  1.00  0.00     0.026 C
HETATM   12  C6  UNL     1      39.378  72.192  63.257  1.00  0.00     0.002 C
HETATM   13  C7  UNL     1      40.128  73.505  63.122  1.00  0.00     0.000 C
HETATM   14  C8  UNL     1      41.517  73.302  62.568  1.00  0.00     0.002 C
HETATM   15  C9  UNL     1      41.523  72.645  61.218  1.00  0.00     0.026 C
ENDBRANCH   5  10
TORSDOF 1
ENDMDL