MODEL 3
REMARK VINA RESULT: -7.273100991      1.740      3.229
REMARK  2 active torsions:
REMARK  status: ('A' for Active; 'I' for Inactive)
REMARK    1  A    between atoms: C4_5  and  N2_6
REMARK    2  A    between atoms: N2_6  and  C5_8
ROOT
HETATM    1  C1  UNL     1      44.398  73.599  61.764  1.00  0.00     0.005 A
HETATM    2  C2  UNL     1      43.957  73.934  60.515  1.00  0.00     0.018 A
HETATM    3  C3  UNL     1      42.626  73.969  60.218  1.00  0.00     0.100 A
HETATM    4  N1  UNL     1      41.710  73.672  61.156  1.00  0.00    -0.293 N
HETATM    5  C4  UNL     1      40.360  73.634  61.119  1.00  0.00     0.125 A
HETATM    6  C11 UNL     1      39.981  73.264  62.386  1.00  0.00     0.138 A
HETATM    7  N3  UNL     1      41.068  73.083  63.167  1.00  0.00    -0.348 N
ATOM      8  H3  UNL     1      41.078  72.806  64.149  1.00  0.00     0.167 HD
HETATM    9  C12 UNL     1      42.150  73.344  62.379  1.00  0.00     0.113 A
HETATM   10  C13 UNL     1      43.478  73.291  62.740  1.00  0.00     0.049 A
ENDROOT
BRANCH   5  11
HETATM   11  N2  UNL     1      39.519  73.905  60.037  1.00  0.00    -0.370 N
ATOM     12  H2  UNL     1      39.936  74.362  59.227  1.00  0.00     0.161 HD
BRANCH  11  13
HETATM   13  C5  UNL     1      38.104  73.595  59.963  1.00  0.00     0.083 C
HETATM   14  C6  UNL     1      37.904  72.262  59.290  1.00  0.00     0.025 C
HETATM   15  C7  UNL     1      38.110  72.328  57.798  1.00  0.00     0.002 C
HETATM   16  C8  UNL     1      37.605  73.647  57.235  1.00  0.00     0.000 C
HETATM   17  C9  UNL     1      36.553  74.236  58.170  1.00  0.00     0.002 C
HETATM   18  C10 UNL     1      37.293  74.704  59.402  1.00  0.00     0.025 C
ENDBRANCH  11  13
ENDBRANCH   5  11
TORSDOF 2
ENDMDL