MODEL 3
REMARK VINA RESULT: -7.017795403      1.467      1.571
REMARK  2 active torsions:
REMARK  status: ('A' for Active; 'I' for Inactive)
REMARK    1  A    between atoms: C1_2  and  C2_3
REMARK    2  A    between atoms: C4_8  and  C5_9
ROOT
HETATM    1  C2  UNL     1      39.380  71.380  58.697  1.00  0.00     0.028 C
HETATM    2  C3  UNL     1      38.038  71.600  59.305  1.00  0.00     0.207 C
HETATM    3  O1  UNL     1      38.013  72.018  60.626  1.00  0.00    -0.280 OA
HETATM    4  N1  UNL     1      39.158  72.440  61.227  1.00  0.00    -0.270 N
ATOM      5  H1  UNL     1      39.091  72.709  62.208  1.00  0.00     0.194 HD
HETATM    6  C4  UNL     1      40.315  72.532  60.678  1.00  0.00     0.043 C
HETATM    7  C11 UNL     1      40.500  72.167  59.279  1.00  0.00     0.067 C
ENDROOT
BRANCH   6   8
HETATM    8  C5  UNL     1      41.449  73.006  61.468  1.00  0.00    -0.012 A
HETATM    9  C6  UNL     1      42.693  73.157  60.876  1.00  0.00     0.013 A
HETATM   10  C7  UNL     1      43.790  73.601  61.586  1.00  0.00     0.001 A
HETATM   11  C8  UNL     1      43.688  73.912  62.925  1.00  0.00     0.000 A
HETATM   12  C9  UNL     1      42.459  73.768  63.528  1.00  0.00     0.001 A
HETATM   13  C10 UNL     1      41.350  73.318  62.806  1.00  0.00     0.013 A
ENDBRANCH   6   8
BRANCH   1  14
HETATM   14  C1  UNL     1      39.668  69.873  58.786  1.00  0.00     0.093 C
HETATM   15  S1  UNL     1      41.341  69.487  58.206  1.00  0.00    -0.097 SA
ENDBRANCH   1  14
TORSDOF 2
ENDMDL