MODEL 1
REMARK VINA RESULT: -7.028959065      0.000      0.000
REMARK  3 active torsions:
REMARK  status: ('A' for Active; 'I' for Inactive)
REMARK    1  A    between atoms: C2_7  and  C3_8
REMARK    2  A    between atoms: C3_8  and  S2_9
REMARK    3  A    between atoms: S2_9  and  C4_10
ROOT
HETATM    1  S1  UNL     1      41.872  69.333  57.446  1.00  0.00    -0.031 SA
HETATM    2  C1  UNL     1      40.903  70.513  58.064  1.00  0.00     0.235 A
HETATM    3  N1  UNL     1      39.609  70.727  57.755  1.00  0.00    -0.268 N
ATOM      4  H1  UNL     1      39.057  70.181  57.094  1.00  0.00     0.190 HD
HETATM    5  N2  UNL     1      39.175  71.761  58.453  1.00  0.00    -0.280 N
ATOM      6  H2  UNL     1      38.234  72.153  58.427  1.00  0.00     0.189 HD
HETATM    7  C2  UNL     1      40.197  72.200  59.203  1.00  0.00     0.150 A
HETATM    8  O1  UNL     1      41.217  71.430  58.944  1.00  0.00    -0.268 OA
ENDROOT
BRANCH   7   9
HETATM    9  C3  UNL     1      40.200  73.353  60.162  1.00  0.00     0.160 C
BRANCH   9  10
HETATM   10  S2  UNL     1      39.588  72.795  61.775  1.00  0.00    -0.156 SA
BRANCH  10  11
HETATM   11  C4  UNL     1      40.886  71.776  62.505  1.00  0.00     0.047 C
HETATM   12  C5  UNL     1      42.208  72.482  62.485  1.00  0.00     0.015 C
HETATM   13  C6  UNL     1      43.322  71.735  63.105  1.00  0.00     0.001 C
HETATM   14  C7  UNL     1      42.999  70.905  64.298  1.00  0.00     0.000 C
HETATM   15  C8  UNL     1      41.605  70.349  64.315  1.00  0.00     0.001 C
HETATM   16  C9  UNL     1      40.596  71.450  63.960  1.00  0.00     0.015 C
ENDBRANCH  10  11
ENDBRANCH   9  10
ENDBRANCH   7   9
TORSDOF 3
ENDMDL