MODEL 1
REMARK VINA RESULT: -6.485409811      0.000      0.000
REMARK  5 active torsions:
REMARK  status: ('A' for Active; 'I' for Inactive)
REMARK    1  A    between atoms: C4_4  and  C5_5
REMARK    2  A    between atoms: C5_5  and  C6_6
REMARK    3  A    between atoms: C6_6  and  C7_7
REMARK    4  A    between atoms: C10_10  and  O1_11
REMARK    5  A    between atoms: O1_11  and  O2_12
ROOT
HETATM    1  C7  UNL     1      40.413  73.067  61.294  1.00  0.00     0.007 C
HETATM    2  C8  UNL     1      39.370  72.785  62.354  1.00  0.00     0.027 C
HETATM    3  C9  UNL     1      39.769  73.899  60.221  1.00  0.00     0.056 C
HETATM    4  C10 UNL     1      39.807  73.269  58.910  1.00  0.00     0.171 C
HETATM    5  C11 UNL     1      39.713  71.774  59.026  1.00  0.00     0.109 C
HETATM    6  S1  UNL     1      40.776  71.489  60.473  1.00  0.00    -0.157 SA
ENDROOT
BRANCH   1   7
HETATM    7  C6  UNL     1      41.647  73.690  61.846  1.00  0.00     0.024 C
BRANCH   7   8
HETATM    8  C5  UNL     1      41.936  73.436  63.276  1.00  0.00     0.029 C
BRANCH   8   9
HETATM    9  C4  UNL     1      43.007  72.452  63.548  1.00  0.00    -0.025 C
HETATM   10  C2  UNL     1      42.745  71.257  64.047  1.00  0.00    -0.091 C
HETATM   11  C1  UNL     1      41.382  70.772  64.389  1.00  0.00     0.042 C
HETATM   12  C3  UNL     1      43.857  70.268  64.317  1.00  0.00     0.042 C
ENDBRANCH   8   9
ENDBRANCH   7   8
ENDBRANCH   1   7
BRANCH   4  13
HETATM   13  O1  UNL     1      38.716  73.692  58.149  1.00  0.00    -0.237 OA
BRANCH  13  14
HETATM   14  O2  UNL     1      38.013  72.675  57.699  1.00  0.00    -0.250 OA
ATOM     15  H2  UNL     1      37.081  72.811  57.822  1.00  0.00     0.253 HD
ENDBRANCH  13  14
ENDBRANCH   4  13
TORSDOF 5
ENDMDL