MODEL 4
REMARK VINA RESULT: -6.807632566      1.139      1.361
REMARK  4 active torsions:
REMARK  status: ('A' for Active; 'I' for Inactive)
REMARK    1  A    between atoms: C4_4  and  N1_5
REMARK    2  A    between atoms: C5_7  and  C6_8
REMARK    3  A    between atoms: C6_8  and  C7_9
REMARK    4  A    between atoms: C12_15  and  O2_16
ROOT
HETATM    1  N1  UNL     1      41.942  74.526  60.345  1.00  0.00    -0.366 N
ATOM      2  H1  UNL     1      41.792  75.504  60.096  1.00  0.00     0.165 HD
HETATM    3  C5  UNL     1      42.915  74.256  61.125  1.00  0.00     0.064 C
ENDROOT
BRANCH   1   4
HETATM    4  C4  UNL     1      41.058  73.569  59.802  1.00  0.00     0.093 A
HETATM    5  C3  UNL     1      41.408  72.427  59.097  1.00  0.00     0.067 A
HETATM    6  C2  UNL     1      40.229  71.799  58.767  1.00  0.00     0.054 A
HETATM    7  C1  UNL     1      40.159  70.511  57.990  1.00  0.00     0.077 C
HETATM    8  O3  UNL     1      39.237  72.505  59.233  1.00  0.00    -0.291 OA
HETATM    9  C12 UNL     1      39.665  73.575  59.863  1.00  0.00     0.211 A
BRANCH   9  10
HETATM   10  O2  UNL     1      38.895  74.565  60.493  1.00  0.00    -0.339 OA
ATOM     11  H2  UNL     1      37.955  74.665  60.395  1.00  0.00     0.220 HD
ENDBRANCH   9  10
ENDBRANCH   1   4
BRANCH   3  12
HETATM   12  C6  UNL     1      43.195  72.876  61.527  1.00  0.00     0.076 C
BRANCH  12  13
HETATM   13  C7  UNL     1      42.904  72.635  63.001  1.00  0.00     0.126 C
HETATM   14  C8  UNL     1      43.314  71.248  63.432  1.00  0.00     0.032 C
HETATM   15  C9  UNL     1      42.371  70.843  64.564  1.00  0.00     0.004 C
HETATM   16  C10 UNL     1      40.991  70.644  63.966  1.00  0.00     0.026 C
HETATM   17  C11 UNL     1      40.785  71.721  62.935  1.00  0.00     0.168 C
HETATM   18  O1  UNL     1      41.546  72.837  63.228  1.00  0.00    -0.386 OA
ENDBRANCH  12  13
ENDBRANCH   3  12
TORSDOF 4
ENDMDL