MODEL 2
REMARK VINA RESULT: -5.397139220      1.822      4.639
REMARK  4 active torsions:
REMARK  status: ('A' for Active; 'I' for Inactive)
REMARK    1  A    between atoms: C2_2  and  C3_3
REMARK    2  A    between atoms: C3_3  and  S1_4
REMARK    3  A    between atoms: C3_3  and  C5_6
REMARK    4  A    between atoms: N3_13  and  C7_14
ROOT
HETATM    1  C5  UNL     1      42.151  73.057  60.104  1.00  0.00     0.114 A
HETATM    2  N1  UNL     1      43.019  73.448  59.174  1.00  0.00    -0.286 N
ATOM      3  H1  UNL     1      42.880  73.321  58.172  1.00  0.00     0.188 HD
HETATM    4  N2  UNL     1      44.084  74.023  59.711  1.00  0.00    -0.275 N
ATOM      5  H2  UNL     1      44.893  74.409  59.222  1.00  0.00     0.189 HD
HETATM    6  C6  UNL     1      43.871  73.989  61.042  1.00  0.00     0.194 A
HETATM    7  S2  UNL     1      44.953  74.602  62.118  1.00  0.00    -0.039 SA
HETATM    8  N3  UNL     1      42.688  73.399  61.289  1.00  0.00    -0.306 N
ENDROOT
BRANCH   1   9
HETATM    9  C3  UNL     1      40.850  72.379  59.862  1.00  0.00     0.115 C
BRANCH   9  10
HETATM   10  C2  UNL     1      39.990  73.290  59.003  1.00  0.00     0.018 C
HETATM   11  C1  UNL     1      39.542  74.523  59.712  1.00  0.00     0.006 C
ENDBRANCH   9  10
BRANCH   9  12
HETATM   12  S1  UNL     1      41.154  70.872  58.942  1.00  0.00    -0.161 SA
HETATM   13  C4  UNL     1      39.930  70.554  57.669  1.00  0.00     0.090 C
ENDBRANCH   9  12
ENDBRANCH   1   9
BRANCH   8  14
HETATM   14  C7  UNL     1      42.142  73.195  62.597  1.00  0.00     0.085 C
HETATM   15  C8  UNL     1      41.995  71.699  62.800  1.00  0.00     0.032 C
HETATM   16  C9  UNL     1      40.817  73.821  62.834  1.00  0.00     0.032 C
ENDBRANCH   8  14
TORSDOF 4
ENDMDL