MODEL 4
REMARK VINA RESULT: -6.557715793      1.223      1.223
REMARK  3 active torsions:
REMARK  status: ('A' for Active; 'I' for Inactive)
REMARK    1  A    between atoms: C2_7  and  S2_8
REMARK    2  A    between atoms: S2_8  and  C3_9
REMARK    3  A    between atoms: C3_9  and  C4_10
ROOT
HETATM    1  S1  UNL     1      40.609  69.340  56.735  1.00  0.00    -0.031 SA
HETATM    2  C1  UNL     1      40.982  70.332  57.975  1.00  0.00     0.236 A
HETATM    3  N1  UNL     1      42.203  70.825  58.284  1.00  0.00    -0.268 N
ATOM      4  H1  UNL     1      43.072  70.647  57.781  1.00  0.00     0.190 HD
HETATM    5  N2  UNL     1      42.058  71.585  59.364  1.00  0.00    -0.271 N
ATOM      6  H2  UNL     1      42.807  72.093  59.834  1.00  0.00     0.189 HD
HETATM    7  C2  UNL     1      40.779  71.577  59.735  1.00  0.00     0.204 A
HETATM    8  O1  UNL     1      40.158  70.810  58.873  1.00  0.00    -0.258 OA
ENDROOT
BRANCH   7   9
HETATM    9  S2  UNL     1      39.982  72.402  61.096  1.00  0.00    -0.084 SA
BRANCH   9  10
HETATM   10  C3  UNL     1      41.144  73.405  62.020  1.00  0.00     0.087 C
BRANCH  10  11
HETATM   11  C4  UNL     1      41.896  72.556  63.011  1.00  0.00    -0.005 C
HETATM   12  C5  UNL     1      41.161  71.260  63.310  1.00  0.00     0.005 C
HETATM   13  C6  UNL     1      41.852  70.455  64.337  1.00  0.00     0.000 C
HETATM   14  C7  UNL     1      43.327  70.503  64.366  1.00  0.00     0.000 C
HETATM   15  C8  UNL     1      43.993  71.634  63.702  1.00  0.00     0.000 C
HETATM   16  C9  UNL     1      43.240  72.107  62.471  1.00  0.00     0.005 C
ENDBRANCH  10  11
ENDBRANCH   9  10
ENDBRANCH   7   9
TORSDOF 3
ENDMDL