MODEL 2
REMARK VINA RESULT: -6.219067973      0.379      1.578
REMARK  4 active torsions:
REMARK  status: ('A' for Active; 'I' for Inactive)
REMARK    1  A    between atoms: C2_2  and  C3_3
REMARK    2  A    between atoms: C3_3  and  S1_6
REMARK    3  A    between atoms: S1_6  and  C6_7
REMARK    4  A    between atoms: N1_14  and  O2_16
ROOT
HETATM    1  C6  UNL     1      41.243  72.186  60.361  1.00  0.00     0.231 C
HETATM    2  O1  UNL     1      40.744  73.454  60.301  1.00  0.00    -0.365 OA
HETATM    3  C7  UNL     1      40.055  73.768  59.153  1.00  0.00     0.119 C
HETATM    4  C8  UNL     1      39.108  74.911  59.461  1.00  0.00     0.039 C
HETATM    5  C9  UNL     1      39.197  72.635  58.634  1.00  0.00     0.037 C
HETATM    6  C10 UNL     1      40.027  71.423  58.256  1.00  0.00     0.060 C
HETATM    7  C11 UNL     1      41.206  71.402  59.127  1.00  0.00     0.048 C
HETATM    8  N1  UNL     1      42.215  70.682  58.786  1.00  0.00    -0.274 N
ATOM      9  H1  UNL     1      43.030  70.677  59.399  1.00  0.00     0.193 HD
ENDROOT
BRANCH   1  10
HETATM   10  S1  UNL     1      42.947  72.310  61.033  1.00  0.00    -0.118 SA
BRANCH  10  11
HETATM   11  C3  UNL     1      42.787  72.303  62.837  1.00  0.00     0.021 C
HETATM   12  C4  UNL     1      41.552  71.520  63.221  1.00  0.00     0.031 C
HETATM   13  C5  UNL     1      44.046  71.603  63.373  1.00  0.00     0.031 C
BRANCH  11  14
HETATM   14  C2  UNL     1      42.727  73.689  63.384  1.00  0.00    -0.017 C
HETATM   15  C1  UNL     1      43.469  74.606  62.810  1.00  0.00     0.008 C
ENDBRANCH  11  14
ENDBRANCH  10  11
ENDBRANCH   1  10
BRANCH   8  16
HETATM   16  O2  UNL     1      42.258  69.918  57.645  1.00  0.00    -0.290 OA
ATOM     17  H2  UNL     1      43.064  69.646  57.222  1.00  0.00     0.244 HD
ENDBRANCH   8  16
TORSDOF 4
ENDMDL