MODEL 4
REMARK VINA RESULT: -6.341367470      1.015      1.249
REMARK  3 active torsions:
REMARK  status: ('A' for Active; 'I' for Inactive)
REMARK    1  A    between atoms: C3_5  and  C4_6
REMARK    2  A    between atoms: C4_6  and  N2_7
REMARK    3  A    between atoms: N2_7  and  N3_9
ROOT
HETATM    1  N2  UNL     1      42.295  74.604  61.927  1.00  0.00    -0.333 N
ATOM      2  H2  UNL     1      41.747  75.380  62.297  1.00  0.00     0.180 HD
ENDROOT
BRANCH   1   3
HETATM    3  C4  UNL     1      42.473  74.450  60.505  1.00  0.00     0.169 C
BRANCH   3   4
HETATM    4  C3  UNL     1      41.180  74.199  59.810  1.00  0.00     0.032 C
HETATM    5  C2  UNL     1      40.860  72.974  59.446  1.00  0.00     0.078 C
HETATM    6  N1  UNL     1      41.606  71.839  59.636  1.00  0.00    -0.354 N
HETATM    7  S1  UNL     1      39.313  72.614  58.603  1.00  0.00    -0.034 SA
HETATM    8  C1  UNL     1      41.453  70.763  59.064  1.00  0.00     0.146 C
ATOM      9  H1  UNL     1      42.362  71.893  60.319  1.00  0.00     0.166 HD
HETATM   10  S2  UNL     1      40.109  70.728  57.877  1.00  0.00    -0.046 SA
ENDBRANCH   3   4
ENDBRANCH   1   3
BRANCH   1  11
HETATM   11  N3  UNL     1      42.876  73.688  62.785  1.00  0.00    -0.313 N
HETATM   12  C5  UNL     1      42.296  72.705  63.345  1.00  0.00     0.003 C
HETATM   13  C6  UNL     1      40.872  72.442  63.113  1.00  0.00     0.054 C
HETATM   14  C10 UNL     1      43.062  71.813  64.240  1.00  0.00     0.054 C
HETATM   15  C7  UNL     1      40.240  71.604  64.191  1.00  0.00     0.006 C
HETATM   16  C8  UNL     1      41.056  70.429  64.615  1.00  0.00     0.001 C
HETATM   17  C9  UNL     1      42.462  70.424  64.092  1.00  0.00     0.006 C
ATOM     18  H3  UNL     1      43.867  73.814  62.989  1.00  0.00     0.185 HD
ENDBRANCH   1  11
TORSDOF 3
ENDMDL