MODEL 2
REMARK VINA RESULT: -6.086633993      1.993      2.651
REMARK  4 active torsions:
REMARK  status: ('A' for Active; 'I' for Inactive)
REMARK    1  A    between atoms: C2_2  and  C5_5
REMARK    2  A    between atoms: C6_11  and  O1_12
REMARK    3  A    between atoms: O1_12  and  C7_13
REMARK    4  A    between atoms: C7_13  and  C8_14
ROOT
HETATM    1  C5  UNL     1      41.825  74.156  60.643  1.00  0.00     0.076 A
HETATM    2  N1  UNL     1      41.402  74.622  59.479  1.00  0.00    -0.311 N
ATOM      3  H1  UNL     1      41.969  74.867  58.666  1.00  0.00     0.175 HD
HETATM    4  S1  UNL     1      39.734  74.724  59.624  1.00  0.00     0.069 SA
HETATM    5  N2  UNL     1      39.607  74.163  61.192  1.00  0.00    -0.291 N
ATOM      6  H2  UNL     1      38.752  74.043  61.736  1.00  0.00     0.177 HD
HETATM    7  C6  UNL     1      40.854  73.904  61.584  1.00  0.00     0.174 A
ENDROOT
BRANCH   7   8
HETATM    8  O1  UNL     1      41.128  73.410  62.849  1.00  0.00    -0.334 OA
BRANCH   8   9
HETATM    9  C7  UNL     1      40.983  72.213  63.431  1.00  0.00     0.182 C
BRANCH   9  10
HETATM   10  C8  UNL     1      42.014  71.225  63.644  1.00  0.00     0.010 C
HETATM   11  C9  UNL     1      41.936  70.068  64.564  1.00  0.00     0.007 C
HETATM   12  C10 UNL     1      43.500  70.060  64.435  1.00  0.00     0.001 C
HETATM   13  C11 UNL     1      43.304  71.597  64.362  1.00  0.00     0.007 C
ENDBRANCH   9  10
ENDBRANCH   8   9
ENDBRANCH   7   8
BRANCH   1  14
HETATM   14  C2  UNL     1      43.300  73.930  60.890  1.00  0.00    -0.004 C
HETATM   15  C1  UNL     1      44.133  74.591  59.815  1.00  0.00     0.021 C
HETATM   16  C3  UNL     1      43.719  74.572  62.205  1.00  0.00     0.021 C
HETATM   17  C4  UNL     1      43.646  72.472  60.855  1.00  0.00     0.021 C
ENDBRANCH   1  14
TORSDOF 4
ENDMDL