MODEL 4
REMARK VINA RESULT: -7.707169827      2.572      3.920
REMARK  4 active torsions:
REMARK  status: ('A' for Active; 'I' for Inactive)
REMARK    1  A    between atoms: C2_2  and  C3_3
REMARK    2  A    between atoms: C2_2  and  C7_14
REMARK    3  A    between atoms: C3_3  and  N1_4
REMARK    4  A    between atoms: N3_10  and  O1_12
ROOT
HETATM    1  N1  UNL     1      40.065  73.293  61.408  1.00  0.00    -0.279 N
HETATM    2  N2  UNL     1      39.968  74.655  60.981  1.00  0.00    -0.312 N
ATOM      3  H2  UNL     1      40.102  75.451  61.603  1.00  0.00     0.185 HD
HETATM    4  C4  UNL     1      39.702  74.768  59.761  1.00  0.00     0.088 A
HETATM    5  C5  UNL     1      39.573  73.459  59.106  1.00  0.00     0.126 A
HETATM    6  C6  UNL     1      39.802  72.517  60.268  1.00  0.00     0.122 A
HETATM    7  N3  UNL     1      39.702  71.226  60.199  1.00  0.00    -0.255 N
ATOM      8  H3  UNL     1      39.815  70.657  61.038  1.00  0.00     0.195 HD
ENDROOT
BRANCH   1   9
HETATM    9  C3  UNL     1      40.436  72.909  62.738  1.00  0.00     0.155 C
BRANCH   9  10
HETATM   10  C2  UNL     1      41.487  71.873  62.927  1.00  0.00     0.010 C
HETATM   11  C1  UNL     1      41.062  70.841  63.904  1.00  0.00     0.012 C
BRANCH  10  12
HETATM   12  C7  UNL     1      42.725  72.560  63.436  1.00  0.00     0.023 C
HETATM   13  C8  UNL     1      42.660  74.103  63.309  1.00  0.00     0.088 C
HETATM   14  C9  UNL     1      43.805  74.476  62.561  1.00  0.00    -0.182 C
HETATM   15  C10 UNL     1      44.944  74.754  61.794  1.00  0.00     0.083 C
HETATM   16  C11 UNL     1      45.611  73.375  61.481  1.00  0.00     0.038 C
HETATM   17  C12 UNL     1      44.653  72.207  61.723  1.00  0.00    -0.029 C
HETATM   18  C13 UNL     1      44.026  71.983  63.002  1.00  0.00    -0.025 C
ENDBRANCH  10  12
ENDBRANCH   9  10
ENDBRANCH   1   9
BRANCH   7  19
HETATM   19  O1  UNL     1      39.441  70.630  58.987  1.00  0.00    -0.288 OA
ATOM     20  H1  UNL     1      40.161  70.418  58.404  1.00  0.00     0.244 HD
ENDBRANCH   7  19
TORSDOF 4
ENDMDL