MODEL 4
REMARK VINA RESULT: -6.443586636      3.537      4.575
REMARK  3 active torsions:
REMARK  status: ('A' for Active; 'I' for Inactive)
REMARK    1  A    between atoms: N1_4  and  N2_6
REMARK    2  A    between atoms: C6_15  and  C7_16
REMARK    3  A    between atoms: N5_17  and  N6_19
ROOT
HETATM    1  C1  UNL     1      16.387   0.171  11.116  1.00  0.00     0.027 C
HETATM    2  C2  UNL     1      16.019  -0.874  11.848  1.00  0.00     0.003 A
HETATM    3  C3  UNL     1      15.757  -0.739  13.276  1.00  0.00     0.126 A
HETATM    4  N1  UNL     1      15.843   0.305  13.933  1.00  0.00    -0.301 N
ATOM      5  H1  UNL     1      15.611   0.141  14.912  1.00  0.00     0.186 HD
HETATM    6  C4  UNL     1      15.350  -2.004  13.977  1.00  0.00     0.275 A
HETATM    7  O1  UNL     1      15.125  -1.885  15.211  1.00  0.00    -0.266 OA
HETATM    8  N3  UNL     1      15.226  -3.236  13.314  1.00  0.00    -0.309 N
ATOM      9  H3  UNL     1      14.947  -4.076  13.821  1.00  0.00     0.170 HD
HETATM   10  C5  UNL     1      15.497  -3.284  11.932  1.00  0.00     0.131 A
HETATM   11  N4  UNL     1      15.361  -4.553  11.298  1.00  0.00    -0.082 NA
HETATM   12  C6  UNL     1      15.865  -2.203  11.231  1.00  0.00     0.034 A
ENDROOT
BRANCH  12  13
HETATM   13  C7  UNL     1      16.116  -2.375   9.817  1.00  0.00     0.124 C
HETATM   14  N5  UNL     1      17.206  -2.994   9.431  1.00  0.00    -0.297 N
ATOM     15  H5  UNL     1      17.871  -3.351  10.117  1.00  0.00     0.187 HD
BRANCH  14  16
HETATM   16  N6  UNL     1      17.439  -3.156   8.071  1.00  0.00    -0.250 N
HETATM   17  N7  UNL     1      17.457  -4.312   7.554  1.00  0.00    -0.331 N
ATOM     18  H72 UNL     1      17.297  -5.120   8.156  1.00  0.00     0.178 HD
ATOM     19  H71 UNL     1      17.628  -4.431   6.556  1.00  0.00     0.178 HD
ATOM     20  H6  UNL     1      17.596  -2.337   7.484  1.00  0.00     0.207 HD
ENDBRANCH  14  16
ENDBRANCH  12  13
BRANCH   4  21
HETATM   21  N2  UNL     1      16.154   1.585  13.726  1.00  0.00    -0.344 N
ATOM     22  H22 UNL     1      16.628   1.677  12.827  1.00  0.00     0.176 HD
ATOM     23  H21 UNL     1      16.052   2.479  14.206  1.00  0.00     0.176 HD
ENDBRANCH   4  21
TORSDOF 3
ENDMDL