MODEL 2
REMARK VINA RESULT: -6.589385084      1.810      4.653
REMARK  3 active torsions:
REMARK  status: ('A' for Active; 'I' for Inactive)
REMARK    1  A    between atoms: N1_1  and  C1_5
REMARK    2  A    between atoms: C1_5  and  N2_6
REMARK    3  A    between atoms: C1_5  and  C2_10
ROOT
HETATM    1  C2  UNL     1      15.778  -3.025   9.971  1.00  0.00     0.234 A
HETATM    2  N3  UNL     1      16.790  -4.034  10.075  1.00  0.00    -0.356 N
ATOM      3  H3  UNL     1      16.563  -4.873  10.609  1.00  0.00     0.162 HD
HETATM    4  C3  UNL     1      17.956  -3.967   9.551  1.00  0.00     0.151 A
HETATM    5  N4  UNL     1      19.011  -4.855   9.574  1.00  0.00    -0.292 N
ATOM      6  H4  UNL     1      19.031  -5.761  10.041  1.00  0.00     0.172 HD
HETATM    7  C4  UNL     1      20.000  -4.304   8.871  1.00  0.00     0.327 A
HETATM    8  O1  UNL     1      21.129  -4.879   8.698  1.00  0.00    -0.247 OA
HETATM    9  N5  UNL     1      19.620  -3.105   8.400  1.00  0.00    -0.291 N
ATOM     10  H5  UNL     1      20.187  -2.475   7.831  1.00  0.00     0.172 HD
HETATM   11  C5  UNL     1      18.336  -2.877   8.820  1.00  0.00     0.156 A
HETATM   12  N6  UNL     1      17.523  -1.904   8.651  1.00  0.00    -0.308 N
ATOM     13  H6  UNL     1      17.843  -1.108   8.101  1.00  0.00     0.170 HD
HETATM   14  C6  UNL     1      16.211  -1.858   9.177  1.00  0.00     0.250 A
HETATM   15  O2  UNL     1      15.434  -0.895   8.998  1.00  0.00    -0.271 OA
ENDROOT
BRANCH   1  16
HETATM   16  C1  UNL     1      15.388  -2.642  11.382  1.00  0.00     0.409 C
BRANCH  16  17
HETATM   17  N1  UNL     1      15.526  -3.735  12.305  1.00  0.00    -0.048 N
ATOM     18  H13 UNL     1      15.943  -4.554  11.862  1.00  0.00     0.276 HD
ATOM     19  H12 UNL     1      16.248  -3.553  13.002  1.00  0.00     0.276 HD
ATOM     20  H11 UNL     1      14.629  -3.955  12.738  1.00  0.00     0.276 HD
ENDBRANCH  16  17
BRANCH  16  21
HETATM   21  N2  UNL     1      16.132  -1.482  11.848  1.00  0.00    -0.048 N
ATOM     22  H23 UNL     1      16.060  -0.700  11.197  1.00  0.00     0.276 HD
ATOM     23  H22 UNL     1      15.687  -1.048  12.658  1.00  0.00     0.276 HD
ATOM     24  H21 UNL     1      17.103  -1.730  12.038  1.00  0.00     0.276 HD
ENDBRANCH  16  21
ENDBRANCH   1  16
TORSDOF 3
ENDMDL