MODEL 1
REMARK VINA RESULT: -5.894698802      0.000      0.000
REMARK  2 active torsions:
REMARK  status: ('A' for Active; 'I' for Inactive)
REMARK    1  A    between atoms: C1_4  and  C2_6
REMARK    2  A    between atoms: C2_6  and  N3_7
ROOT
HETATM    1  C2  UNL     1      17.893  -3.702   9.064  1.00  0.00     0.174 C
HETATM    2  C4  UNL     1      17.385  -4.291   7.784  1.00  0.00     0.176 C
HETATM    3  S1  UNL     1      16.407  -5.645   8.465  1.00  0.00     0.059 S
HETATM    4  O1  UNL     1      14.987  -4.945   9.031  1.00  0.00    -0.252 OA
HETATM    5  C5  UNL     1      17.495  -5.896   9.847  1.00  0.00     0.165 C
HETATM    6  N6  UNL     1      18.123  -4.660  10.034  1.00  0.00    -0.359 N
ATOM      7  H6  UNL     1      18.717  -4.476  10.841  1.00  0.00     0.162 HD
ENDROOT
BRANCH   1   8
HETATM    8  C1  UNL     1      16.872  -2.678   9.493  1.00  0.00     0.137 C
HETATM    9  N1  UNL     1      16.348  -2.827  10.670  1.00  0.00    -0.387 N
ATOM     10  H12 UNL     1      15.658  -2.134  10.960  1.00  0.00     0.157 HD
ATOM     11  H11 UNL     1      16.615  -3.602  11.277  1.00  0.00     0.157 HD
HETATM   12  N2  UNL     1      16.499  -1.595   8.647  1.00  0.00    -0.083 NA
ENDBRANCH   1   8
BRANCH   1  13
HETATM   13  N3  UNL     1      19.099  -2.950   8.781  1.00  0.00    -0.334 N
HETATM   14  C3  UNL     1      20.281  -3.459   8.814  1.00  0.00     0.199 C
HETATM   15  N4  UNL     1      20.569  -4.800   9.125  1.00  0.00    -0.067 NA
HETATM   16  N5  UNL     1      21.391  -2.596   8.511  1.00  0.00    -0.067 NA
ATOM     17  H3  UNL     1      19.006  -1.962   8.542  1.00  0.00     0.164 HD
ENDBRANCH   1  13
TORSDOF 2
ENDMDL