MODEL 4
REMARK VINA RESULT: -6.413185079      1.933      3.741
REMARK  5 active torsions:
REMARK  status: ('A' for Active; 'I' for Inactive)
REMARK    1  A    between atoms: C1_4  and  N2_5
REMARK    2  A    between atoms: C4_14  and  C5_15
REMARK    3  A    between atoms: C4_14  and  C6_18
REMARK    4  A    between atoms: C6_18  and  N6_19
REMARK    5  A    between atoms: C6_18  and  N7_23
ROOT
HETATM    1  N2  UNL     1      16.010  -3.845  11.230  1.00  0.00    -0.340 N
ATOM      2  H2  UNL     1      16.190  -4.839  11.373  1.00  0.00     0.168 HD
HETATM    3  C2  UNL     1      16.412  -3.331  10.136  1.00  0.00     0.128 C
HETATM    4  N3  UNL     1      16.281  -1.996   9.696  1.00  0.00    -0.295 N
ATOM      5  H3  UNL     1      15.727  -1.269  10.149  1.00  0.00     0.172 HD
HETATM    6  C3  UNL     1      17.067  -1.837   8.491  1.00  0.00     0.323 C
HETATM    7  O1  UNL     1      17.093  -0.727   7.926  1.00  0.00    -0.247 OA
HETATM    8  N4  UNL     1      17.696  -3.068   8.172  1.00  0.00    -0.315 N
ATOM      9  H4  UNL     1      18.397  -3.229   7.448  1.00  0.00     0.166 HD
HETATM   10  C4  UNL     1      17.131  -4.076   9.102  1.00  0.00     0.225 C
ENDROOT
BRANCH  10  11
HETATM   11  C5  UNL     1      16.354  -5.082   8.405  1.00  0.00     0.271 C
HETATM   12  N5  UNL     1      16.862  -5.797   7.267  1.00  0.00    -0.059 NA
HETATM   13  O2  UNL     1      15.174  -5.370   8.835  1.00  0.00    -0.273 OA
ENDBRANCH  10  11
BRANCH  10  14
HETATM   14  C6  UNL     1      18.344  -4.814   9.693  1.00  0.00     0.422 C
BRANCH  14  15
HETATM   15  N6  UNL     1      19.495  -4.797   8.778  1.00  0.00    -0.047 N
ATOM     16  H63 UNL     1      19.410  -4.052   8.088  1.00  0.00     0.276 HD
ATOM     17  H62 UNL     1      20.342  -4.481   9.252  1.00  0.00     0.276 HD
ATOM     18  H61 UNL     1      19.638  -5.703   8.330  1.00  0.00     0.276 HD
ENDBRANCH  14  15
BRANCH  14  19
HETATM   19  N7  UNL     1      18.024  -6.087  10.178  1.00  0.00    -0.047 N
ATOM     20  H73 UNL     1      18.192  -6.148  11.182  1.00  0.00     0.276 HD
ATOM     21  H72 UNL     1      17.015  -6.237  10.169  1.00  0.00     0.276 HD
ATOM     22  H71 UNL     1      18.508  -6.834   9.680  1.00  0.00     0.276 HD
ENDBRANCH  14  19
ENDBRANCH  10  14
BRANCH   1  23
HETATM   23  C1  UNL     1      15.341  -3.162  12.250  1.00  0.00     0.174 C
HETATM   24  N1  UNL     1      15.593  -3.244  13.503  1.00  0.00    -0.395 N
ATOM     25  H12 UNL     1      16.355  -3.871  13.764  1.00  0.00     0.156 HD
ATOM     26  H11 UNL     1      15.105  -2.746  14.248  1.00  0.00     0.156 HD
ENDBRANCH   1  23
TORSDOF 5
ENDMDL