MODEL 3
REMARK VINA RESULT: -7.883981027      3.283      5.242
REMARK  2 active torsions:
REMARK  status: ('A' for Active; 'I' for Inactive)
REMARK    1  A    between atoms: C2_7  and  N3_8
REMARK    2  A    between atoms: N3_8  and  C3_10
ROOT
HETATM    1  C3  UNL     1      15.438  -2.691  11.614  1.00  0.00     0.131 A
HETATM    2  C4  UNL     1      15.651  -1.454  11.195  1.00  0.00     0.053 A
HETATM    3  C5  UNL     1      15.634  -0.865   9.949  1.00  0.00     0.124 A
HETATM    4  N4  UNL     1      15.927   0.442  10.104  1.00  0.00    -0.310 N
ATOM      5  H4  UNL     1      15.985   1.119   9.343  1.00  0.00     0.186 HD
HETATM    6  N5  UNL     1      16.128   0.722  11.373  1.00  0.00    -0.300 N
ATOM      7  H5  UNL     1      16.364   1.636  11.760  1.00  0.00     0.187 HD
HETATM    8  C6  UNL     1      15.964  -0.435  12.075  1.00  0.00     0.061 A
HETATM    9  C7  UNL     1      16.064  -0.647  13.362  1.00  0.00     0.024 A
HETATM   10  C8  UNL     1      15.850  -1.979  13.948  1.00  0.00     0.151 A
HETATM   11  N6  UNL     1      15.531  -2.980  12.985  1.00  0.00    -0.371 N
ATOM     12  H6  UNL     1      15.366  -3.936  13.301  1.00  0.00     0.161 HD
ENDROOT
BRANCH   1  13
HETATM   13  N3  UNL     1      15.123  -3.704  10.702  1.00  0.00    -0.174 N
ATOM     14  H3  UNL     1      14.145  -3.989  10.651  1.00  0.00     0.186 HD
BRANCH  13  15
HETATM   15  C2  UNL     1      15.933  -4.303   9.932  1.00  0.00     0.702 A
HETATM   16  N2  UNL     1      17.273  -4.401   9.983  1.00  0.00    -0.128 N
HETATM   17  N1  UNL     1      17.682  -5.130   8.961  1.00  0.00    -0.237 N
ATOM     18  H2  UNL     1      17.874  -3.982  10.693  1.00  0.00     0.205 HD
HETATM   19  C1  UNL     1      16.599  -5.518   8.228  1.00  0.00     0.353 A
ATOM     20  H1  UNL     1      18.652  -5.367   8.753  1.00  0.00     0.192 HD
HETATM   21  O1  UNL     1      16.666  -6.227   7.187  1.00  0.00    -0.245 OA
HETATM   22  N7  UNL     1      15.514  -5.001   8.836  1.00  0.00    -0.139 N
ATOM     23  H7  UNL     1      14.548  -5.112   8.530  1.00  0.00     0.189 HD
ENDBRANCH  13  15
ENDBRANCH   1  13
TORSDOF 2
ENDMDL