MODEL 4
REMARK VINA RESULT: -7.255359402      2.545      4.726
REMARK  2 active torsions:
REMARK  status: ('A' for Active; 'I' for Inactive)
REMARK    1  A    between atoms: C6_12  and  N3_13
REMARK    2  A    between atoms: N3_13  and  N4_15
ROOT
HETATM    1  C1  UNL     1      18.022  -2.282   8.753  1.00  0.00     0.045 C
HETATM    2  C2  UNL     1      17.268  -3.358   8.742  1.00  0.00     0.054 A
HETATM    3  N1  UNL     1      17.459  -4.293   7.749  1.00  0.00    -0.318 N
ATOM      4  H1  UNL     1      18.180  -4.130   7.046  1.00  0.00     0.169 HD
HETATM    5  C3  UNL     1      16.733  -5.396   7.681  1.00  0.00     0.314 A
HETATM    6  O1  UNL     1      16.932  -6.225   6.767  1.00  0.00    -0.262 OA
HETATM    7  C4  UNL     1      15.766  -5.591   8.643  1.00  0.00     0.314 A
HETATM    8  O2  UNL     1      15.076  -6.656   8.566  1.00  0.00    -0.262 OA
HETATM    9  N2  UNL     1      15.569  -4.690   9.614  1.00  0.00    -0.316 N
ATOM     10  H2  UNL     1      14.845  -4.864  10.311  1.00  0.00     0.169 HD
HETATM   11  C5  UNL     1      16.311  -3.545   9.698  1.00  0.00     0.078 A
HETATM   12  C6  UNL     1      16.060  -2.697  10.688  1.00  0.00     0.139 C
ENDROOT
BRANCH  12  13
HETATM   13  N3  UNL     1      15.063  -2.926  11.658  1.00  0.00    -0.308 N
ATOM     14  H3  UNL     1      14.094  -2.646  11.502  1.00  0.00     0.186 HD
BRANCH  13  15
HETATM   15  N4  UNL     1      15.456  -3.549  12.836  1.00  0.00    -0.276 N
HETATM   16  C7  UNL     1      15.619  -2.845  13.902  1.00  0.00     0.215 C
HETATM   17  N5  UNL     1      15.427  -1.440  13.982  1.00  0.00    -0.065 NA
HETATM   18  N6  UNL     1      16.022  -3.549  15.070  1.00  0.00    -0.065 NA
ATOM     19  H4  UNL     1      15.615  -4.557  12.855  1.00  0.00     0.189 HD
ENDBRANCH  13  15
ENDBRANCH  12  13
TORSDOF 2
ENDMDL