MODEL 3
REMARK VINA RESULT: -6.930695113      2.799      4.776
REMARK  4 active torsions:
REMARK  status: ('A' for Active; 'I' for Inactive)
REMARK    1  A    between atoms: O1_2  and  C2_3
REMARK    2  A    between atoms: C3_6  and  N2_7
REMARK    3  A    between atoms: N2_7  and  N3_9
REMARK    4  A    between atoms: C4_14  and  N5_15
REMARK       I    between atoms: N5_15  and  C5_17
ROOT
HETATM    1  C2  UNL     1      16.004  -2.075  10.792  1.00  0.00     0.254 A
HETATM    2  N1  UNL     1      16.791  -1.483   9.878  1.00  0.00    -0.152 N
ATOM      3  H1  UNL     1      16.995  -0.487   9.953  1.00  0.00     0.188 HD
HETATM    4  C3  UNL     1      17.313  -2.202   8.864  1.00  0.00     0.714 A
HETATM    5  N4  UNL     1      17.056  -3.517   8.752  1.00  0.00    -0.020 N
ATOM      6  H4  UNL     1      17.459  -4.046   7.979  1.00  0.00     0.203 HD
HETATM    7  C4  UNL     1      16.268  -4.145   9.654  1.00  0.00     0.704 A
HETATM    8  N8  UNL     1      15.767  -3.392  10.650  1.00  0.00    -0.149 N
HETATM    9  C6  UNL     1      14.921  -4.061  11.619  1.00  0.00     0.179 C
ENDROOT
BRANCH   7  10
HETATM   10  N5  UNL     1      15.994  -5.393   9.590  1.00  0.00    -0.163 N
HETATM   11  C5  UNL     1      15.730  -6.119   8.425  1.00  0.00     0.200 C
HETATM   12  N6  UNL     1      14.707  -6.878   8.349  1.00  0.00    -0.373 N
HETATM   13  N7  UNL     1      16.603  -6.012   7.323  1.00  0.00    -0.063 NA
ATOM     14  H62 UNL     1      14.075  -6.956   9.146  1.00  0.00     0.158 HD
ATOM     15  H61 UNL     1      14.514  -7.409   7.500  1.00  0.00     0.158 HD
ATOM     16  H5  UNL     1      15.965  -5.906  10.471  1.00  0.00     0.187 HD
ENDBRANCH   7  10
BRANCH   4  17
HETATM   17  N2  UNL     1      18.061  -1.574   8.020  1.00  0.00    -0.138 N
ATOM     18  H2  UNL     1      17.619  -0.925   7.369  1.00  0.00     0.205 HD
BRANCH  17  19
HETATM   19  N3  UNL     1      19.427  -1.736   7.955  1.00  0.00    -0.331 N
ATOM     20  H32 UNL     1      19.887  -2.162   8.760  1.00  0.00     0.177 HD
ATOM     21  H31 UNL     1      19.986  -1.454   7.150  1.00  0.00     0.177 HD
ENDBRANCH  17  19
ENDBRANCH   4  17
BRANCH   1  22
HETATM   22  O1  UNL     1      15.448  -1.344  11.858  1.00  0.00    -0.326 OA
HETATM   23  C1  UNL     1      16.050  -0.082  12.169  1.00  0.00     0.213 C
ENDBRANCH   1  22
TORSDOF 4
ENDMDL