MODEL 4
REMARK VINA RESULT: -7.051534393      2.718      3.873
REMARK  4 active torsions:
REMARK  status: ('A' for Active; 'I' for Inactive)
REMARK    1  A    between atoms: N1_1  and  C1_5
REMARK    2  A    between atoms: C1_5  and  C2_6
REMARK    3  A    between atoms: C1_5  and  C3_8
REMARK       I    between atoms: C3_8  and  N2_10
REMARK    4  A    between atoms: N2_10  and  C4_12
ROOT
HETATM    1  C4  UNL     1      18.427  -3.857   8.744  1.00  0.00     0.693 A
HETATM    2  N3  UNL     1      19.506  -3.573   7.992  1.00  0.00    -0.141 N
ATOM      3  H3  UNL     1      19.440  -2.844   7.282  1.00  0.00     0.189 HD
HETATM    4  C5  UNL     1      20.679  -4.231   8.155  1.00  0.00     0.342 A
HETATM    5  O3  UNL     1      21.700  -3.973   7.454  1.00  0.00    -0.246 OA
HETATM    6  N4  UNL     1      20.724  -5.180   9.099  1.00  0.00    -0.260 N
ATOM      7  H4  UNL     1      21.601  -5.683   9.234  1.00  0.00     0.175 HD
HETATM    8  C6  UNL     1      19.677  -5.508   9.881  1.00  0.00     0.342 A
HETATM    9  O4  UNL     1      19.776  -6.411  10.756  1.00  0.00    -0.246 OA
HETATM   10  N5  UNL     1      18.538  -4.824   9.678  1.00  0.00    -0.141 N
ATOM     11  H5  UNL     1      17.724  -5.045  10.252  1.00  0.00     0.189 HD
ENDROOT
BRANCH   1  12
HETATM   12  N2  UNL     1      17.295  -3.252   8.616  1.00  0.00    -0.157 N
HETATM   13  C3  UNL     1      17.104  -1.882   8.833  1.00  0.00     0.273 C
HETATM   14  O2  UNL     1      17.646  -1.053   8.054  1.00  0.00    -0.270 OA
ATOM     15  H2  UNL     1      16.486  -3.808   8.340  1.00  0.00     0.187 HD
BRANCH  13  16
HETATM   16  C1  UNL     1      16.288  -1.321   9.940  1.00  0.00     0.336 C
BRANCH  16  17
HETATM   17  N1  UNL     1      15.592  -0.125   9.576  1.00  0.00    -0.060 N
ATOM     18  H13 UNL     1      14.878  -0.322   8.874  1.00  0.00     0.275 HD
ATOM     19  H12 UNL     1      14.995   0.192  10.340  1.00  0.00     0.275 HD
ATOM     20  H11 UNL     1      16.208   0.624   9.265  1.00  0.00     0.275 HD
ENDBRANCH  16  17
BRANCH  16  21
HETATM   21  C2  UNL     1      15.399  -2.389  10.448  1.00  0.00     0.273 C
HETATM   22  O1  UNL     1      15.885  -3.302  11.071  1.00  0.00    -0.304 OA
ENDBRANCH  16  21
ENDBRANCH  13  16
ENDBRANCH   1  12
TORSDOF 4
ENDMDL