MODEL 5
REMARK VINA RESULT: -7.169693292      2.647      3.488
REMARK  3 active torsions:
REMARK  status: ('A' for Active; 'I' for Inactive)
REMARK    1  A    between atoms: C3_6  and  C4_7
REMARK    2  A    between atoms: C4_7  and  C5_9
REMARK    3  A    between atoms: C5_9  and  O1_11
ROOT
HETATM    1  N1  UNL     1      15.094  -3.583  12.670  1.00  0.00    -0.113 NA
HETATM    2  C1  UNL     1      15.274  -2.492  11.778  1.00  0.00     0.133 C
HETATM    3  C2  UNL     1      16.052  -2.596  10.705  1.00  0.00     0.103 A
HETATM    4  N2  UNL     1      16.708  -3.715  10.399  1.00  0.00    -0.337 N
ATOM      5  H2  UNL     1      16.608  -4.523  11.014  1.00  0.00     0.167 HD
HETATM    6  C3  UNL     1      17.514  -3.829   9.291  1.00  0.00     0.137 A
HETATM    7  N5  UNL     1      17.673  -2.792   8.460  1.00  0.00    -0.304 N
ATOM      8  H5  UNL     1      18.270  -2.869   7.636  1.00  0.00     0.171 HD
HETATM    9  C6  UNL     1      17.015  -1.627   8.744  1.00  0.00     0.299 A
HETATM   10  O2  UNL     1      17.164  -0.656   7.964  1.00  0.00    -0.264 OA
HETATM   11  C7  UNL     1      16.215  -1.530   9.852  1.00  0.00     0.267 A
HETATM   12  O3  UNL     1      15.591  -0.459  10.140  1.00  0.00    -0.280 OA
ENDROOT
BRANCH   6  13
HETATM   13  C4  UNL     1      18.116  -4.984   9.083  1.00  0.00     0.138 C
HETATM   14  N3  UNL     1      17.406  -5.895   8.193  1.00  0.00    -0.094 NA
BRANCH  13  15
HETATM   15  C5  UNL     1      19.352  -5.493   9.585  1.00  0.00     0.178 C
HETATM   16  N4  UNL     1      20.671  -5.184   9.181  1.00  0.00    -0.073 NA
BRANCH  15  17
HETATM   17  O1  UNL     1      19.264  -6.361  10.549  1.00  0.00    -0.347 OA
ATOM     18  H1  UNL     1      19.339  -6.015  11.431  1.00  0.00     0.219 HD
ENDBRANCH  15  17
ENDBRANCH  13  15
ENDBRANCH   6  13
TORSDOF 3
ENDMDL