MODEL 2
REMARK VINA RESULT: -6.475598948      2.196      4.435
REMARK  2 active torsions:
REMARK  status: ('A' for Active; 'I' for Inactive)
REMARK    1  A    between atoms: C1_4  and  C2_6
REMARK    2  A    between atoms: C3_7  and  C4_8
ROOT
HETATM    1  C2  UNL     1      15.740  -2.179  10.796  1.00  0.00     0.104 A
HETATM    2  C3  UNL     1      15.641  -3.511  10.981  1.00  0.00     0.121 A
HETATM    3  N4  UNL     1      15.526  -3.976  12.283  1.00  0.00    -0.303 N
ATOM      4  H4  UNL     1      15.452  -4.981  12.439  1.00  0.00     0.171 HD
HETATM    5  C5  UNL     1      15.508  -3.167  13.338  1.00  0.00     0.327 A
HETATM    6  O2  UNL     1      15.402  -3.633  14.522  1.00  0.00    -0.247 OA
HETATM    7  N5  UNL     1      15.604  -1.847  13.134  1.00  0.00    -0.275 N
ATOM      8  H5  UNL     1      15.589  -1.229  13.945  1.00  0.00     0.173 HD
HETATM    9  C6  UNL     1      15.719  -1.304  11.930  1.00  0.00     0.265 A
HETATM   10  O3  UNL     1      15.807  -0.064  11.780  1.00  0.00    -0.267 OA
ENDROOT
BRANCH   1  11
HETATM   11  C1  UNL     1      15.984  -1.555   9.525  1.00  0.00     0.128 C
HETATM   12  N1  UNL     1      15.232  -0.725   8.954  1.00  0.00    -0.387 N
ATOM     13  H12 UNL     1      15.405  -0.282   8.052  1.00  0.00     0.157 HD
ATOM     14  H11 UNL     1      14.374  -0.487   9.452  1.00  0.00     0.157 HD
HETATM   15  N2  UNL     1      17.207  -1.895   8.815  1.00  0.00    -0.082 NA
ENDBRANCH   1  11
BRANCH   2  16
HETATM   16  C4  UNL     1      15.524  -4.494   9.939  1.00  0.00     0.282 C
HETATM   17  N3  UNL     1      16.750  -5.244   9.632  1.00  0.00    -0.056 NA
HETATM   18  O1  UNL     1      14.534  -4.791   9.265  1.00  0.00    -0.269 OA
ENDBRANCH   2  16
TORSDOF 2
ENDMDL