MODEL 4
REMARK VINA RESULT: -9.413622786      1.444      1.937
REMARK  5 active torsions:
REMARK  status: ('A' for Active; 'I' for Inactive)
REMARK    1  A    between atoms: S1_2  and  C2_3
REMARK    2  A    between atoms: C2_3  and  C3_4
REMARK    3  A    between atoms: C2_3  and  C10_11
REMARK    4  A    between atoms: C3_4  and  C4_5
REMARK    5  A    between atoms: C12_15  and  C13_16
ROOT
HETATM    1  C10 UNL     1      44.948   3.294  10.170  1.00  0.00    -0.026 A
HETATM    2  C11 UNL     1      44.591   4.328   9.312  1.00  0.00     0.096 A
HETATM    3  N1  UNL     1      45.578   5.216   9.322  1.00  0.00    -0.365 N
ATOM      4  H1  UNL     1      45.581   6.080   8.781  1.00  0.00     0.165 HD
HETATM    5  C12 UNL     1      46.571   4.829  10.138  1.00  0.00     0.042 A
HETATM    6  C19 UNL     1      46.187   3.627  10.674  1.00  0.00     0.040 A
ENDROOT
BRANCH   1   7
HETATM    7  C2  UNL     1      44.106   2.118  10.440  1.00  0.00     0.085 C
BRANCH   7   8
HETATM    8  S1  UNL     1      42.379   2.383   9.980  1.00  0.00    -0.164 SA
HETATM    9  C1  UNL     1      41.358   0.923  10.120  1.00  0.00     0.090 C
ENDBRANCH   7   8
BRANCH   7  10
HETATM   10  C3  UNL     1      44.260   1.629  11.855  1.00  0.00     0.058 C
BRANCH  10  11
HETATM   11  C4  UNL     1      44.249   0.150  11.912  1.00  0.00    -0.057 A
HETATM   12  C5  UNL     1      44.463  -0.559  10.724  1.00  0.00     0.007 A
HETATM   13  C6  UNL     1      44.459  -1.923  10.683  1.00  0.00     0.001 A
HETATM   14  C7  UNL     1      44.241  -2.666  11.828  1.00  0.00     0.000 A
HETATM   15  C8  UNL     1      44.029  -1.984  13.003  1.00  0.00     0.001 A
HETATM   16  C9  UNL     1      44.033  -0.595  13.047  1.00  0.00     0.007 A
ENDBRANCH  10  11
ENDBRANCH   7  10
ENDBRANCH   1   7
BRANCH   5  17
HETATM   17  C13 UNL     1      47.796   5.579  10.371  1.00  0.00    -0.009 A
HETATM   18  C14 UNL     1      47.832   6.677  11.202  1.00  0.00     0.013 A
HETATM   19  C15 UNL     1      48.974   7.403  11.440  1.00  0.00     0.001 A
HETATM   20  C16 UNL     1      50.156   7.044  10.831  1.00  0.00     0.000 A
HETATM   21  C17 UNL     1      50.153   5.942   9.986  1.00  0.00     0.001 A
HETATM   22  C18 UNL     1      48.987   5.227   9.765  1.00  0.00     0.013 A
ENDBRANCH   5  17
TORSDOF 5
ENDMDL