MODEL 2
REMARK VINA RESULT: -10.056228456      0.725      1.284
REMARK  6 active torsions:
REMARK  status: ('A' for Active; 'I' for Inactive)
REMARK    1  A    between atoms: C2_2  and  C3_3
REMARK    2  A    between atoms: C3_3  and  C4_4
REMARK    3  A    between atoms: C4_4  and  N1_5
REMARK    4  A    between atoms: N1_5  and  C5_7
REMARK    5  A    between atoms: C7_9  and  C8_10
REMARK    6  A    between atoms: C11_13  and  C12_14
ROOT
HETATM    1  C5  UNL     1      43.269  -0.578  10.647  1.00  0.00     0.101 A
HETATM    2  C6  UNL     1      44.154   0.478  10.661  1.00  0.00     0.060 A
HETATM    3  C7  UNL     1      43.733   1.775  10.384  1.00  0.00    -0.021 A
HETATM    4  C20 UNL     1      42.401   1.943  10.098  1.00  0.00     0.029 A
HETATM    5  C21 UNL     1      41.509   0.887  10.083  1.00  0.00     0.090 A
HETATM    6  N2  UNL     1      41.953  -0.341  10.354  1.00  0.00    -0.353 N
ATOM      7  H2  UNL     1      41.296  -1.122  10.343  1.00  0.00     0.166 HD
ENDROOT
BRANCH   3   8
HETATM    8  C8  UNL     1      44.729   2.826  10.422  1.00  0.00    -0.026 A
HETATM    9  C9  UNL     1      44.442   4.171  10.378  1.00  0.00     0.013 A
HETATM   10  C10 UNL     1      45.421   5.146  10.417  1.00  0.00     0.013 A
HETATM   11  C11 UNL     1      46.748   4.776  10.503  1.00  0.00    -0.026 A
HETATM   12  C18 UNL     1      47.047   3.443  10.549  1.00  0.00     0.013 A
HETATM   13  C19 UNL     1      46.060   2.475  10.508  1.00  0.00     0.013 A
BRANCH  11  14
HETATM   14  C12 UNL     1      47.823   5.764  10.549  1.00  0.00    -0.026 A
HETATM   15  C13 UNL     1      48.970   5.616   9.795  1.00  0.00     0.012 A
HETATM   16  C14 UNL     1      49.985   6.548   9.838  1.00  0.00     0.001 A
HETATM   17  C15 UNL     1      49.895   7.673  10.642  1.00  0.00     0.000 A
HETATM   18  C16 UNL     1      48.750   7.817  11.394  1.00  0.00     0.001 A
HETATM   19  C17 UNL     1      47.737   6.881  11.345  1.00  0.00     0.012 A
ENDBRANCH  11  14
ENDBRANCH   3   8
BRANCH   1  20
HETATM   20  N1  UNL     1      43.627  -1.785  10.900  1.00  0.00    -0.376 N
ATOM     21  H1  UNL     1      43.571  -2.485  10.160  1.00  0.00     0.161 HD
BRANCH  20  22
HETATM   22  C4  UNL     1      44.105  -2.176  12.196  1.00  0.00     0.121 C
BRANCH  22  23
HETATM   23  C3  UNL     1      43.397  -1.419  13.313  1.00  0.00     0.019 C
BRANCH  23  24
HETATM   24  C2  UNL     1      44.436  -0.800  14.215  1.00  0.00    -0.003 C
HETATM   25  C1  UNL     1      44.565   0.681  13.956  1.00  0.00     0.005 C
ENDBRANCH  23  24
ENDBRANCH  22  23
ENDBRANCH  20  22
ENDBRANCH   1  20
TORSDOF 6
ENDMDL