MODEL 5
REMARK VINA RESULT: -9.098181455      1.474      6.343
REMARK  5 active torsions:
REMARK  status: ('A' for Active; 'I' for Inactive)
REMARK    1  A    between atoms: C2_2  and  C3_3
REMARK    2  A    between atoms: C3_3  and  C4_4
REMARK    3  A    between atoms: C4_4  and  C5_5
REMARK    4  A    between atoms: C9_9  and  C10_10
REMARK    5  A    between atoms: C14_17  and  C15_18
ROOT
HETATM    1  C10 UNL     1      49.463   9.346  10.912  1.00  0.00     0.005 A
HETATM    2  C11 UNL     1      49.218  10.543  11.561  1.00  0.00     0.055 A
HETATM    3  C12 UNL     1      48.373  10.252  12.623  1.00  0.00     0.115 A
HETATM    4  C13 UNL     1      47.881  11.227  13.545  1.00  0.00     0.117 C
HETATM    5  N1  UNL     1      47.498  12.007  14.294  1.00  0.00    -0.190 NA
HETATM    6  N2  UNL     1      48.112   8.914  12.619  1.00  0.00    -0.346 N
ATOM      7  H2  UNL     1      47.520   8.418  13.286  1.00  0.00     0.167 HD
HETATM    8  C14 UNL     1      48.771   8.360  11.583  1.00  0.00     0.054 A
ENDROOT
BRANCH   1   9
HETATM    9  C9  UNL     1      50.287   9.098   9.736  1.00  0.00    -0.023 A
HETATM   10  C8  UNL     1      49.768   8.628   8.548  1.00  0.00     0.012 A
HETATM   11  C7  UNL     1      50.540   8.391   7.432  1.00  0.00     0.001 A
HETATM   12  C6  UNL     1      51.885   8.639   7.510  1.00  0.00     0.007 A
HETATM   13  C5  UNL     1      52.460   9.112   8.679  1.00  0.00    -0.057 A
HETATM   14  C21 UNL     1      51.643   9.337   9.786  1.00  0.00     0.019 A
BRANCH  13  15
HETATM   15  C4  UNL     1      53.901   9.370   8.744  1.00  0.00     0.038 C
BRANCH  15  16
HETATM   16  C3  UNL     1      54.350  10.134   7.539  1.00  0.00     0.004 C
BRANCH  16  17
HETATM   17  C2  UNL     1      53.714  11.528   7.543  1.00  0.00    -0.004 C
HETATM   18  C1  UNL     1      53.204  11.874   6.170  1.00  0.00     0.005 C
ENDBRANCH  16  17
ENDBRANCH  15  16
ENDBRANCH  13  15
ENDBRANCH   1   9
BRANCH   8  19
HETATM   19  C15 UNL     1      48.752   6.946  11.230  1.00  0.00    -0.009 A
HETATM   20  C16 UNL     1      49.882   6.153  11.286  1.00  0.00     0.014 A
HETATM   21  C17 UNL     1      49.863   4.816  10.953  1.00  0.00     0.001 A
HETATM   22  C18 UNL     1      48.692   4.215  10.544  1.00  0.00     0.000 A
HETATM   23  C19 UNL     1      47.564   4.967  10.479  1.00  0.00     0.001 A
HETATM   24  C20 UNL     1      47.594   6.305  10.814  1.00  0.00     0.014 A
ENDBRANCH   8  19
TORSDOF 5
ENDMDL