MODEL 1
REMARK VINA RESULT: -11.248906588      0.000      0.000
REMARK  5 active torsions:
REMARK  status: ('A' for Active; 'I' for Inactive)
REMARK    1  A    between atoms: C5_7  and  C6_8
REMARK    2  A    between atoms: C6_8  and  C7_9
REMARK    3  A    between atoms: C7_9  and  C8_10
REMARK    4  A    between atoms: C8_10  and  C9_11
REMARK    5  A    between atoms: C9_11  and  C10_12
ROOT
HETATM    1  C7  UNL     1      43.314   4.154   9.389  1.00  0.00     0.006 C
ENDROOT
BRANCH   1   2
HETATM    2  C6  UNL     1      43.950   4.850  10.546  1.00  0.00     0.057 C
BRANCH   2   3
HETATM    3  C5  UNL     1      45.416   4.763  10.567  1.00  0.00     0.009 A
HETATM    4  N1  UNL     1      46.123   5.878  10.827  1.00  0.00    -0.359 N
HETATM    5  C4  UNL     1      47.471   5.915  10.871  1.00  0.00     0.042 A
ATOM      6  H1  UNL     1      45.611   6.743  11.001  1.00  0.00     0.166 HD
HETATM    7  C3  UNL     1      48.165   7.080  11.139  1.00  0.00     0.030 A
HETATM    8  C20 UNL     1      48.219   4.779  10.646  1.00  0.00    -0.009 A
HETATM    9  C2  UNL     1      49.543   7.134  11.187  1.00  0.00     0.002 A
HETATM   10  C1  UNL     1      50.287   5.997  10.962  1.00  0.00     0.001 A
HETATM   11  C21 UNL     1      49.601   4.831  10.694  1.00  0.00     0.013 A
HETATM   12  C19 UNL     1      47.524   3.609  10.376  1.00  0.00     0.015 A
HETATM   13  C18 UNL     1      46.137   3.607  10.338  1.00  0.00     0.026 A
ENDBRANCH   2   3
ENDBRANCH   1   2
BRANCH   1  14
HETATM   14  C8  UNL     1      42.553   2.967   9.936  1.00  0.00     0.005 C
BRANCH  14  15
HETATM   15  C9  UNL     1      43.195   1.657   9.552  1.00  0.00     0.041 C
BRANCH  15  16
HETATM   16  C10 UNL     1      43.010   0.628  10.592  1.00  0.00    -0.030 A
HETATM   17  C11 UNL     1      42.155  -0.446  10.523  1.00  0.00     0.096 A
HETATM   18  N2  UNL     1      42.284  -1.142  11.674  1.00  0.00    -0.365 N
HETATM   19  C12 UNL     1      43.183  -0.571  12.491  1.00  0.00     0.042 A
ATOM     20  H2  UNL     1      41.765  -1.992  11.894  1.00  0.00     0.165 HD
HETATM   21  C13 UNL     1      43.637  -0.910  13.733  1.00  0.00     0.030 A
HETATM   22  C17 UNL     1      43.651   0.556  11.808  1.00  0.00    -0.002 A
HETATM   23  C14 UNL     1      44.583  -0.115  14.332  1.00  0.00     0.002 A
HETATM   24  C15 UNL     1      45.075   1.001  13.709  1.00  0.00     0.001 A
HETATM   25  C16 UNL     1      44.601   1.321  12.455  1.00  0.00     0.014 A
ENDBRANCH  15  16
ENDBRANCH  14  15
ENDBRANCH   1  14
TORSDOF 5
ENDMDL