MODEL 2
REMARK VINA RESULT: -10.266234068      0.914      1.229
REMARK  5 active torsions:
REMARK  status: ('A' for Active; 'I' for Inactive)
REMARK    1  A    between atoms: C1_1  and  C17_21
REMARK    2  A    between atoms: N1_2  and  C2_4
REMARK    3  A    between atoms: C2_4  and  C3_5
REMARK    4  A    between atoms: C3_5  and  C4_6
REMARK    5  A    between atoms: C4_6  and  C5_7
ROOT
HETATM    1  C5  UNL     1      45.106   3.733  10.267  1.00  0.00    -0.030 A
HETATM    2  C6  UNL     1      44.294   4.832  10.083  1.00  0.00     0.009 A
HETATM    3  C7  UNL     1      42.919   4.665   9.938  1.00  0.00     0.002 A
HETATM    4  C8  UNL     1      42.403   3.380   9.984  1.00  0.00     0.014 A
HETATM    5  C9  UNL     1      43.207   2.274  10.169  1.00  0.00     0.004 A
HETATM    6  C10 UNL     1      44.576   2.446  10.313  1.00  0.00     0.050 A
HETATM    7  N2  UNL     1      45.158   1.245  10.477  1.00  0.00    -0.354 N
ATOM      8  H2  UNL     1      46.158   1.094  10.605  1.00  0.00     0.166 HD
HETATM    9  C11 UNL     1      44.215   0.261  10.448  1.00  0.00     0.043 A
HETATM   10  C12 UNL     1      44.289  -1.112  10.568  1.00  0.00     0.030 A
HETATM   11  C13 UNL     1      43.130  -1.852  10.494  1.00  0.00     0.002 A
HETATM   12  C14 UNL     1      41.924  -1.212  10.303  1.00  0.00     0.001 A
HETATM   13  C15 UNL     1      41.837   0.164  10.181  1.00  0.00     0.014 A
HETATM   14  C16 UNL     1      43.014   0.911  10.256  1.00  0.00     0.003 A
ENDROOT
BRANCH   1  15
HETATM   15  C4  UNL     1      46.567   3.920  10.424  1.00  0.00     0.042 C
BRANCH  15  16
HETATM   16  C3  UNL     1      46.906   5.379  10.479  1.00  0.00     0.024 C
BRANCH  16  17
HETATM   17  C2  UNL     1      48.406   5.617  10.383  1.00  0.00     0.119 C
BRANCH  17  18
HETATM   18  N1  UNL     1      48.640   6.531   9.311  1.00  0.00    -0.397 N
HETATM   19  C1  UNL     1      48.830   7.783   9.372  1.00  0.00     0.120 C
ATOM     20  H1  UNL     1      48.655   6.125   8.376  1.00  0.00     0.158 HD
BRANCH  19  21
HETATM   21  C17 UNL     1      48.852   8.591  10.589  1.00  0.00     0.089 A
HETATM   22  C18 UNL     1      49.997   9.074  11.192  1.00  0.00     0.040 A
HETATM   23  C19 UNL     1      49.609   9.784  12.305  1.00  0.00     0.027 A
HETATM   24  C20 UNL     1      48.237   9.713  12.349  1.00  0.00     0.142 A
HETATM   25  O1  UNL     1      47.863   9.006  11.323  1.00  0.00    -0.321 OA
ENDBRANCH  19  21
ENDBRANCH  17  18
ENDBRANCH  16  17
ENDBRANCH  15  16
ENDBRANCH   1  15
TORSDOF 5
ENDMDL