MODEL 1
REMARK VINA RESULT: -9.398678295      0.000      0.000
REMARK  6 active torsions:
REMARK  status: ('A' for Active; 'I' for Inactive)
REMARK    1  A    between atoms: C2_2  and  C3_3
REMARK    2  A    between atoms: C3_3  and  N1_4
REMARK    3  A    between atoms: C3_3  and  C17_19
REMARK    4  A    between atoms: N1_4  and  C4_6
REMARK    5  A    between atoms: C4_6  and  C5_7
REMARK    6  A    between atoms: C4_6  and  C11_13
ROOT
HETATM    1  C4  UNL     1      44.621   1.416  11.088  1.00  0.00     0.148 C
ENDROOT
BRANCH   1   2
HETATM    2  N1  UNL     1      44.571   2.824  11.194  1.00  0.00    -0.380 N
ATOM      3  H1  UNL     1      44.208   3.272  12.036  1.00  0.00     0.160 HD
BRANCH   2   4
HETATM    4  C3  UNL     1      45.035   3.596  10.111  1.00  0.00     0.015 C
BRANCH   4   5
HETATM    5  C2  UNL     1      44.116   4.476   9.356  1.00  0.00     0.053 C
HETATM    6  C1  UNL     1      42.680   4.470   9.797  1.00  0.00     0.011 C
ENDBRANCH   4   5
BRANCH   4   7
HETATM    7  C17 UNL     1      46.338   4.277  10.403  1.00  0.00    -0.014 A
HETATM    8  C18 UNL     1      47.497   3.548  10.425  1.00  0.00     0.013 A
HETATM    9  C19 UNL     1      48.685   4.220  10.682  1.00  0.00     0.001 A
HETATM   10  C20 UNL     1      48.741   5.580  10.915  1.00  0.00     0.000 A
HETATM   11  C21 UNL     1      47.571   6.290  10.890  1.00  0.00     0.001 A
HETATM   12  C22 UNL     1      46.369   5.649  10.635  1.00  0.00     0.013 A
ENDBRANCH   4   7
ENDBRANCH   2   4
ENDBRANCH   1   2
BRANCH   1  13
HETATM   13  C5  UNL     1      44.637   0.781  12.465  1.00  0.00    -0.031 A
HETATM   14  C6  UNL     1      44.150  -0.502  12.568  1.00  0.00     0.009 A
HETATM   15  C7  UNL     1      44.127  -1.186  13.777  1.00  0.00     0.001 A
HETATM   16  C8  UNL     1      44.609  -0.561  14.920  1.00  0.00     0.000 A
HETATM   17  C9  UNL     1      45.095   0.724  14.807  1.00  0.00     0.001 A
HETATM   18  C10 UNL     1      45.105   1.387  13.578  1.00  0.00     0.009 A
ENDBRANCH   1  13
BRANCH   1  19
HETATM   19  C11 UNL     1      43.551   0.746  10.298  1.00  0.00    -0.031 A
HETATM   20  C12 UNL     1      43.883  -0.221   9.337  1.00  0.00     0.009 A
HETATM   21  C13 UNL     1      42.967  -0.906   8.598  1.00  0.00     0.001 A
HETATM   22  C14 UNL     1      41.617  -0.665   8.774  1.00  0.00     0.000 A
HETATM   23  C15 UNL     1      41.262   0.280   9.713  1.00  0.00     0.001 A
HETATM   24  C16 UNL     1      42.204   0.979  10.467  1.00  0.00     0.009 A
ENDBRANCH   1  19
TORSDOF 6
ENDMDL