MODEL 5
REMARK VINA RESULT: -9.199659514      1.936      4.129
REMARK  5 active torsions:
REMARK  status: ('A' for Active; 'I' for Inactive)
REMARK    1  A    between atoms: C2_2  and  C3_3
REMARK    2  A    between atoms: C3_3  and  C4_4
REMARK    3  A    between atoms: C4_4  and  N1_5
REMARK    4  A    between atoms: C6_7  and  C7_8
REMARK    5  A    between atoms: C7_8  and  C8_9
ROOT
HETATM    1  N1  UNL     1      50.706   8.987   9.274  1.00  0.00    -0.356 N
HETATM    2  C5  UNL     1      49.981   8.138   8.524  1.00  0.00     0.099 A
HETATM    3  C6  UNL     1      48.861   7.801   9.248  1.00  0.00    -0.026 A
HETATM    4  C16 UNL     1      48.900   8.452  10.461  1.00  0.00    -0.001 A
HETATM    5  C17 UNL     1      48.092   8.510  11.576  1.00  0.00     0.014 A
HETATM    6  C18 UNL     1      48.449   9.280  12.636  1.00  0.00     0.001 A
HETATM    7  C19 UNL     1      49.610  10.018  12.639  1.00  0.00     0.002 A
HETATM    8  C20 UNL     1      50.435   9.978  11.534  1.00  0.00     0.030 A
HETATM    9  C21 UNL     1      50.073   9.194  10.455  1.00  0.00     0.045 A
ENDROOT
BRANCH   3  10
HETATM   10  C7  UNL     1      47.779   6.895   8.796  1.00  0.00     0.082 C
BRANCH  10  11
HETATM   11  C8  UNL     1      47.742   5.599   9.508  1.00  0.00    -0.026 A
HETATM   12  C9  UNL     1      48.796   4.944  10.101  1.00  0.00     0.096 A
HETATM   13  N2  UNL     1      48.378   3.794  10.663  1.00  0.00    -0.365 N
HETATM   14  C10 UNL     1      47.043   3.703  10.433  1.00  0.00     0.042 A
ATOM     15  H2  UNL     1      48.954   3.120  11.166  1.00  0.00     0.165 HD
HETATM   16  C11 UNL     1      46.109   2.738  10.778  1.00  0.00     0.030 A
HETATM   17  C15 UNL     1      46.614   4.815   9.714  1.00  0.00    -0.002 A
HETATM   18  C12 UNL     1      44.780   2.864  10.424  1.00  0.00     0.002 A
HETATM   19  C13 UNL     1      44.380   3.976   9.711  1.00  0.00     0.001 A
HETATM   20  C14 UNL     1      45.303   4.951   9.356  1.00  0.00     0.014 A
ENDBRANCH  10  11
ENDBRANCH   3  10
BRANCH   1  21
HETATM   21  C4  UNL     1      51.967   9.595   8.903  1.00  0.00     0.128 C
BRANCH  21  22
HETATM   22  C3  UNL     1      53.127   8.633   9.000  1.00  0.00     0.020 C
BRANCH  22  23
HETATM   23  C2  UNL     1      54.468   9.287   8.807  1.00  0.00    -0.003 C
HETATM   24  C1  UNL     1      54.492  10.087   7.498  1.00  0.00     0.005 C
ENDBRANCH  22  23
ENDBRANCH  21  22
ENDBRANCH   1  21
TORSDOF 5
ENDMDL