MODEL 3
REMARK VINA RESULT: -10.716314729      0.600      1.675
REMARK  5 active torsions:
REMARK  status: ('A' for Active; 'I' for Inactive)
REMARK    1  A    between atoms: C6_6  and  O1_7
REMARK    2  A    between atoms: O1_7  and  C7_8
REMARK    3  A    between atoms: C7_8  and  C8_9
REMARK    4  A    between atoms: C8_9  and  C9_10
REMARK    5  A    between atoms: C9_10  and  C10_11
ROOT
HETATM    1  C7  UNL     1      43.045   4.350   9.695  1.00  0.00     0.176 C
ENDROOT
BRANCH   1   2
HETATM    2  O1  UNL     1      42.990   2.991   9.563  1.00  0.00    -0.351 OA
BRANCH   2   3
HETATM    3  C6  UNL     1      43.219   1.951  10.368  1.00  0.00     0.069 A
HETATM    4  C5  UNL     1      42.662   0.721  10.192  1.00  0.00     0.049 A
HETATM    5  C4  UNL     1      42.954  -0.303  11.068  1.00  0.00    -0.023 A
HETATM    6  C3  UNL     1      42.401  -1.568  10.908  1.00  0.00     0.012 A
HETATM    7  C20 UNL     1      43.806  -0.137  12.144  1.00  0.00    -0.026 A
HETATM    8  C2  UNL     1      42.687  -2.608  11.778  1.00  0.00     0.001 A
HETATM    9  C1  UNL     1      43.542  -2.405  12.842  1.00  0.00     0.001 A
HETATM   10  C21 UNL     1      44.095  -1.163  13.014  1.00  0.00     0.012 A
HETATM   11  C19 UNL     1      44.356   1.117  12.300  1.00  0.00     0.015 A
HETATM   12  C18 UNL     1      44.085   2.140  11.453  1.00  0.00     0.037 A
ENDBRANCH   2   3
ENDBRANCH   1   2
BRANCH   1  13
HETATM   13  C8  UNL     1      44.384   4.890   9.264  1.00  0.00     0.031 C
BRANCH  13  14
HETATM   14  C9  UNL     1      45.111   5.296  10.533  1.00  0.00     0.043 C
BRANCH  14  15
HETATM   15  C10 UNL     1      46.535   4.960  10.490  1.00  0.00    -0.030 A
HETATM   16  C11 UNL     1      47.054   3.763  10.059  1.00  0.00     0.096 A
HETATM   17  N1  UNL     1      48.394   3.823  10.158  1.00  0.00    -0.365 N
HETATM   18  C12 UNL     1      48.726   5.058  10.651  1.00  0.00     0.042 A
ATOM     19  H1  UNL     1      49.048   3.081   9.910  1.00  0.00     0.165 HD
HETATM   20  C13 UNL     1      49.964   5.596  10.931  1.00  0.00     0.030 A
HETATM   21  C17 UNL     1      47.584   5.793  10.869  1.00  0.00    -0.002 A
HETATM   22  C14 UNL     1      50.026   6.888  11.433  1.00  0.00     0.002 A
HETATM   23  C15 UNL     1      48.876   7.615  11.647  1.00  0.00     0.001 A
HETATM   24  C16 UNL     1      47.657   7.077  11.368  1.00  0.00     0.014 A
ENDBRANCH  14  15
ENDBRANCH  13  14
ENDBRANCH   1  13
TORSDOF 5
ENDMDL