MODEL 5
REMARK VINA RESULT: -10.621876069      0.821      1.613
REMARK  6 active torsions:
REMARK  status: ('A' for Active; 'I' for Inactive)
REMARK    1  A    between atoms: C2_2  and  C3_3
REMARK    2  A    between atoms: C3_3  and  N1_4
REMARK    3  A    between atoms: C3_3  and  C17_19
REMARK    4  A    between atoms: N1_4  and  C4_6
REMARK    5  A    between atoms: C4_6  and  C5_7
REMARK    6  A    between atoms: C8_10  and  C9_11
ROOT
HETATM    1  C5  UNL     1      44.371   3.258   9.741  1.00  0.00    -0.021 A
HETATM    2  C6  UNL     1      45.384   2.690  10.456  1.00  0.00     0.013 A
HETATM    3  C7  UNL     1      46.538   3.401  10.778  1.00  0.00     0.013 A
HETATM    4  C8  UNL     1      46.677   4.707  10.373  1.00  0.00    -0.026 A
HETATM    5  C15 UNL     1      45.656   5.285   9.650  1.00  0.00     0.013 A
HETATM    6  C16 UNL     1      44.499   4.564   9.331  1.00  0.00     0.013 A
ENDROOT
BRANCH   1   7
HETATM    7  C4  UNL     1      43.109   2.521   9.383  1.00  0.00     0.099 C
BRANCH   7   8
HETATM    8  N1  UNL     1      42.741   1.766  10.482  1.00  0.00    -0.368 N
ATOM      9  H1  UNL     1      42.363   2.266  11.287  1.00  0.00     0.165 HD
BRANCH   8  10
HETATM   10  C3  UNL     1      42.844   0.381  10.581  1.00  0.00     0.019 C
BRANCH  10  11
HETATM   11  C2  UNL     1      43.405  -0.306   9.400  1.00  0.00     0.053 C
HETATM   12  C1  UNL     1      44.840  -0.679   9.400  1.00  0.00     0.011 C
ENDBRANCH  10  11
BRANCH  10  13
HETATM   13  C17 UNL     1      43.371  -0.113  11.877  1.00  0.00    -0.014 A
HETATM   14  C18 UNL     1      43.101  -1.374  12.302  1.00  0.00     0.013 A
HETATM   15  C19 UNL     1      43.616  -1.790  13.522  1.00  0.00     0.001 A
HETATM   16  C20 UNL     1      44.383  -0.943  14.282  1.00  0.00     0.000 A
HETATM   17  C21 UNL     1      44.669   0.345  13.865  1.00  0.00     0.001 A
HETATM   18  C22 UNL     1      44.134   0.720  12.640  1.00  0.00     0.013 A
ENDBRANCH  10  13
ENDBRANCH   8  10
ENDBRANCH   7   8
ENDBRANCH   1   7
BRANCH   4  19
HETATM   19  C9  UNL     1      47.878   5.461  10.707  1.00  0.00    -0.026 A
HETATM   20  C10 UNL     1      47.736   6.742  11.189  1.00  0.00     0.012 A
HETATM   21  C11 UNL     1      48.858   7.482  11.510  1.00  0.00     0.001 A
HETATM   22  C12 UNL     1      50.106   6.920  11.340  1.00  0.00     0.000 A
HETATM   23  C13 UNL     1      50.278   5.637  10.859  1.00  0.00     0.001 A
HETATM   24  C14 UNL     1      49.132   4.914  10.544  1.00  0.00     0.012 A
ENDBRANCH   4  19
TORSDOF 6
ENDMDL