MODEL 4
REMARK VINA RESULT: -9.238096299      0.254      1.484
REMARK  5 active torsions:
REMARK  status: ('A' for Active; 'I' for Inactive)
REMARK    1  A    between atoms: C2_2  and  C3_3
REMARK    2  A    between atoms: C6_8  and  C7_9
REMARK    3  A    between atoms: C7_9  and  S1_10
REMARK    4  A    between atoms: S1_10  and  C8_11
REMARK    5  A    between atoms: C11_14  and  C12_15
ROOT
HETATM    1  C8  UNL     1      44.001   2.564  10.165  1.00  0.00     0.000 A
HETATM    2  C9  UNL     1      44.074   3.896   9.723  1.00  0.00     0.019 A
HETATM    3  C10 UNL     1      45.195   4.671   9.904  1.00  0.00     0.013 A
HETATM    4  C11 UNL     1      46.305   4.159  10.536  1.00  0.00    -0.026 A
HETATM    5  C18 UNL     1      46.260   2.856  10.979  1.00  0.00     0.013 A
HETATM    6  C19 UNL     1      45.116   2.087  10.787  1.00  0.00     0.019 A
ENDROOT
BRANCH   1   7
HETATM    7  S1  UNL     1      42.521   1.649   9.855  1.00  0.00    -0.125 SA
BRANCH   7   8
HETATM    8  C7  UNL     1      42.152   0.358  11.012  1.00  0.00     0.120 C
BRANCH   8   9
HETATM    9  C6  UNL     1      43.159  -0.719  11.071  1.00  0.00    -0.026 A
HETATM   10  C3  UNL     1      43.684  -1.252  12.248  1.00  0.00    -0.035 A
HETATM   11  C4  UNL     1      44.559  -2.258  11.960  1.00  0.00     0.095 A
HETATM   12  N1  UNL     1      44.593  -2.366  10.628  1.00  0.00    -0.374 N
HETATM   13  C5  UNL     1      43.757  -1.449  10.078  1.00  0.00     0.096 A
ATOM     14  H1  UNL     1      45.160  -3.034  10.106  1.00  0.00     0.164 HD
BRANCH  10  15
HETATM   15  C2  UNL     1      43.321  -0.774  13.600  1.00  0.00     0.036 C
HETATM   16  C1  UNL     1      44.443   0.003  14.249  1.00  0.00     0.010 C
ENDBRANCH  10  15
ENDBRANCH   8   9
ENDBRANCH   7   8
ENDBRANCH   1   7
BRANCH   4  17
HETATM   17  C12 UNL     1      47.510   4.991  10.731  1.00  0.00    -0.026 A
HETATM   18  C13 UNL     1      48.753   4.445  10.631  1.00  0.00     0.012 A
HETATM   19  C14 UNL     1      49.891   5.232  10.813  1.00  0.00     0.001 A
HETATM   20  C15 UNL     1      49.716   6.583  11.098  1.00  0.00     0.000 A
HETATM   21  C16 UNL     1      48.468   7.149  11.203  1.00  0.00     0.001 A
HETATM   22  C17 UNL     1      47.385   6.327  11.014  1.00  0.00     0.012 A
ENDBRANCH   4  17
TORSDOF 5
ENDMDL