MODEL 3
REMARK VINA RESULT: -7.687259078      1.333      2.238
REMARK  11 active torsions:
REMARK  status: ('A' for Active; 'I' for Inactive)
REMARK    1  A    between atoms: C2_2  and  C3_3
REMARK    2  A    between atoms: C2_2  and  C12_12
REMARK    3  A    between atoms: C3_3  and  C4_4
REMARK    4  A    between atoms: C4_4  and  C6_6
REMARK    5  A    between atoms: C6_6  and  C8_8
REMARK    6  A    between atoms: C12_12  and  O1_13
REMARK    7  A    between atoms: C12_12  and  N1_15
REMARK    8  A    between atoms: N1_15  and  C13_17
REMARK    9  A    between atoms: C13_17  and  C14_18
REMARK   10  A    between atoms: C16_22  and  C17_23
REMARK   11  A    between atoms: C17_23  and  C18_25
ROOT
HETATM    1  C13 UNL     1      55.105  41.666  16.295  1.00  0.00     0.125 C
HETATM    2  C15 UNL     1      54.462  42.275  15.068  1.00  0.00     0.055 C
HETATM    3  C16 UNL     1      53.172  41.682  15.482  1.00  0.00     0.067 C
HETATM    4  C21 UNL     1      53.903  40.762  16.417  1.00  0.00     0.032 C
HETATM    5  C22 UNL     1      53.321  40.672  17.809  1.00  0.00     0.014 C
ENDROOT
BRANCH   1   6
HETATM    6  N1  UNL     1      56.349  40.934  15.981  1.00  0.00    -0.351 N
ATOM      7  H1  UNL     1      57.071  41.384  15.419  1.00  0.00     0.163 HD
BRANCH   6   8
HETATM    8  C12 UNL     1      56.545  39.644  16.440  1.00  0.00     0.146 C
BRANCH   8   9
HETATM    9  C2  UNL     1      56.428  38.324  15.925  1.00  0.00     0.005 C
HETATM   10  C1  UNL     1      56.076  38.348  14.563  1.00  0.00     0.028 C
BRANCH   9  11
HETATM   11  C3  UNL     1      56.579  37.000  16.390  1.00  0.00     0.017 C
BRANCH  11  12
HETATM   12  C4  UNL     1      57.491  36.092  16.576  1.00  0.00    -0.078 C
HETATM   13  C5  UNL     1      58.680  36.283  17.398  1.00  0.00     0.044 C
BRANCH  12  14
HETATM   14  C6  UNL     1      57.260  34.766  15.899  1.00  0.00     0.017 C
HETATM   15  C7  UNL     1      57.996  33.701  16.710  1.00  0.00     0.015 C
BRANCH  14  16
HETATM   16  C8  UNL     1      57.690  34.672  14.494  1.00  0.00    -0.044 C
HETATM   17  C9  UNL     1      58.234  33.245  14.281  1.00  0.00     0.015 C
HETATM   18  C10 UNL     1      56.524  34.777  13.510  1.00  0.00     0.015 C
HETATM   19  C11 UNL     1      58.806  35.598  14.088  1.00  0.00     0.015 C
ENDBRANCH  14  16
ENDBRANCH  12  14
ENDBRANCH  11  12
ENDBRANCH   9  11
ENDBRANCH   8   9
BRANCH   8  20
HETATM   20  O1  UNL     1      56.951  39.648  17.712  1.00  0.00    -0.346 OA
ATOM     21  H1  UNL     1      56.612  38.903  18.195  1.00  0.00     0.219 HD
ENDBRANCH   8  20
ENDBRANCH   6   8
ENDBRANCH   1   6
BRANCH   1  22
HETATM   22  C14 UNL     1      55.258  42.690  17.342  1.00  0.00     0.203 C
HETATM   23  O2  UNL     1      54.665  43.781  17.412  1.00  0.00    -0.646 OA
HETATM   24  O3  UNL     1      56.165  42.421  18.377  1.00  0.00    -0.646 OA
ENDBRANCH   1  22
BRANCH   3  25
HETATM   25  C17 UNL     1      52.363  41.013  14.439  1.00  0.00     0.156 C
HETATM   26  O4  UNL     1      51.887  41.730  13.574  1.00  0.00    -0.295 OA
BRANCH  25  27
HETATM   27  C18 UNL     1      52.102  39.569  14.386  1.00  0.00     0.181 C
HETATM   28  C19 UNL     1      51.688  39.168  12.966  1.00  0.00     0.213 C
HETATM   29  O5  UNL     1      50.275  39.236  12.933  1.00  0.00    -0.302 OA
HETATM   30  C20 UNL     1      49.838  39.019  14.253  1.00  0.00     0.361 C
HETATM   31  O6  UNL     1      48.663  38.739  14.604  1.00  0.00    -0.238 OA
HETATM   32  N2  UNL     1      50.942  39.169  15.135  1.00  0.00    -0.323 N
ATOM     33  H2  UNL     1      50.916  39.017  16.143  1.00  0.00     0.165 HD
ENDBRANCH  25  27
ENDBRANCH   3  25
TORSDOF 11
ENDMDL