MODEL 3
REMARK VINA RESULT: -7.543997577      1.992      7.902
REMARK  8 active torsions:
REMARK  status: ('A' for Active; 'I' for Inactive)
REMARK    1  A    between atoms: N1_1  and  C1_5
REMARK    2  A    between atoms: C1_5  and  C2_6
REMARK    3  A    between atoms: C2_6  and  C3_7
REMARK    4  A    between atoms: C2_6  and  N3_18
REMARK    5  A    between atoms: C3_7  and  C4_8
REMARK    6  A    between atoms: C7_11  and  N2_12
REMARK       I    between atoms: N4_21  and  C12_22
REMARK    7  A    between atoms: C12_22  and  C13_24
REMARK    8  A    between atoms: C15_28  and  C16_29
ROOT
HETATM    1  N3  UNL     1      54.702  42.511  15.401  1.00  0.00    -0.364 N
HETATM    2  C10 UNL     1      55.091  43.151  16.595  1.00  0.00     0.083 C
HETATM    3  C11 UNL     1      55.320  42.221  17.720  1.00  0.00     0.171 C
HETATM    4  N4  UNL     1      56.106  41.046  17.356  1.00  0.00    -0.339 N
HETATM    5  C12 UNL     1      57.223  40.669  18.153  1.00  0.00     0.255 C
HETATM    6  O1  UNL     1      57.514  41.506  19.084  1.00  0.00    -0.267 OA
HETATM    7  C23 UNL     1      55.728  40.373  16.144  1.00  0.00     0.171 C
HETATM    8  C24 UNL     1      55.311  41.320  15.038  1.00  0.00     0.083 C
ENDROOT
BRANCH   1   9
HETATM    9  C2  UNL     1      53.622  43.035  14.672  1.00  0.00     0.114 C
BRANCH   9  10
HETATM   10  C1  UNL     1      53.769  44.470  14.312  1.00  0.00     0.255 C
BRANCH  10  11
HETATM   11  N1  UNL     1      54.739  44.594  13.240  1.00  0.00    -0.077 N
ATOM     12  H13 UNL     1      55.673  44.300  13.526  1.00  0.00     0.274 HD
ATOM     13  H12 UNL     1      54.591  43.905  12.502  1.00  0.00     0.274 HD
ATOM     14  H11 UNL     1      54.725  45.551  12.886  1.00  0.00     0.274 HD
ENDBRANCH  10  11
ENDBRANCH   9  10
BRANCH   9  15
HETATM   15  C3  UNL     1      53.301  42.183  13.479  1.00  0.00     0.032 C
BRANCH  15  16
HETATM   16  C4  UNL     1      51.948  41.502  13.553  1.00  0.00    -0.012 C
HETATM   17  C5  UNL     1      52.192  40.086  13.083  1.00  0.00     0.007 C
HETATM   18  C6  UNL     1      51.075  39.136  13.309  1.00  0.00     0.033 C
HETATM   19  C7  UNL     1      50.400  39.265  14.647  1.00  0.00     0.183 C
HETATM   20  C8  UNL     1      50.130  40.714  14.991  1.00  0.00     0.033 C
HETATM   21  C9  UNL     1      51.455  41.428  14.977  1.00  0.00     0.007 C
BRANCH  19  22
HETATM   22  N2  UNL     1      49.126  38.571  14.574  1.00  0.00    -0.075 N
ATOM     23  H23 UNL     1      48.330  39.208  14.544  1.00  0.00     0.274 HD
ATOM     24  H22 UNL     1      48.973  38.120  13.672  1.00  0.00     0.274 HD
ATOM     25  H21 UNL     1      49.080  37.916  15.355  1.00  0.00     0.274 HD
ENDBRANCH  19  22
ENDBRANCH  15  16
ENDBRANCH   9  15
ENDBRANCH   1   9
BRANCH   5  26
HETATM   26  C13 UNL     1      58.021  39.472  18.004  1.00  0.00     0.049 A
HETATM   27  C14 UNL     1      59.159  39.010  18.595  1.00  0.00     0.105 A
HETATM   28  N5  UNL     1      59.464  37.787  18.139  1.00  0.00    -0.368 N
HETATM   29  C15 UNL     1      58.552  37.383  17.237  1.00  0.00     0.014 A
ATOM     30  H5  UNL     1      60.273  37.240  18.435  1.00  0.00     0.165 HD
HETATM   31  C22 UNL     1      57.652  38.416  17.140  1.00  0.00     0.043 A
BRANCH  29  32
HETATM   32  C16 UNL     1      58.524  36.075  16.526  1.00  0.00     0.035 C
HETATM   33  C17 UNL     1      57.474  35.128  17.038  1.00  0.00     0.011 C
HETATM   34  C18 UNL     1      57.733  33.804  16.307  1.00  0.00     0.001 C
HETATM   35  C19 UNL     1      57.315  33.999  14.878  1.00  0.00     0.000 C
HETATM   36  C20 UNL     1      57.366  35.414  14.406  1.00  0.00     0.001 C
HETATM   37  C21 UNL     1      58.416  36.270  15.030  1.00  0.00     0.011 C
ENDBRANCH  29  32
ENDBRANCH   5  26
TORSDOF 8
ENDMDL