MODEL 2
REMARK VINA RESULT: -8.184726415      0.088      1.344
REMARK  8 active torsions:
REMARK  status: ('A' for Active; 'I' for Inactive)
REMARK    1  A    between atoms: C2_2  and  N1_3
REMARK    2  A    between atoms: N1_3  and  C3_5
REMARK    3  A    between atoms: C3_5  and  O1_6
REMARK    4  A    between atoms: C3_5  and  C4_8
REMARK    5  A    between atoms: C5_9  and  N2_10
REMARK       I    between atoms: N2_10  and  C6_12
REMARK    6  A    between atoms: C6_12  and  C7_14
REMARK    7  A    between atoms: C7_14  and  N3_15
REMARK    8  A    between atoms: N3_15  and  C8_18
ROOT
HETATM    1  N2  UNL     1      56.354  39.523  16.023  1.00  0.00    -0.319 N
ATOM      2  H2  UNL     1      55.743  38.733  15.815  1.00  0.00     0.169 HD
HETATM    3  C6  UNL     1      57.481  39.193  16.754  1.00  0.00     0.248 C
HETATM    4  O2  UNL     1      58.350  40.029  17.153  1.00  0.00    -0.271 OA
ENDROOT
BRANCH   1   5
HETATM    5  C5  UNL     1      55.893  40.773  15.508  1.00  0.00     0.092 A
HETATM    6  C4  UNL     1      55.232  41.852  15.992  1.00  0.00     0.056 A
HETATM    7  C19 UNL     1      54.703  42.722  15.066  1.00  0.00    -0.028 A
HETATM    8  C18 UNL     1      54.901  42.433  13.751  1.00  0.00    -0.008 A
HETATM    9  C20 UNL     1      53.881  43.953  15.390  1.00  0.00     0.041 C
HETATM   10  S1  UNL     1      55.785  40.999  13.779  1.00  0.00    -0.075 SA
HETATM   11  C23 UNL     1      54.439  43.260  12.588  1.00  0.00     0.047 C
HETATM   12  C22 UNL     1      54.365  44.694  13.094  1.00  0.00     0.005 C
HETATM   13  C21 UNL     1      53.373  44.655  14.204  1.00  0.00     0.005 C
BRANCH   6  14
HETATM   14  C3  UNL     1      55.392  42.187  17.445  1.00  0.00     0.149 C
BRANCH  14  15
HETATM   15  N1  UNL     1      54.407  42.364  18.396  1.00  0.00    -0.371 N
ATOM     16  H1  UNL     1      54.163  43.296  18.731  1.00  0.00     0.161 HD
BRANCH  15  17
HETATM   17  C2  UNL     1      53.711  41.155  18.922  1.00  0.00     0.117 C
HETATM   18  C1  UNL     1      52.591  40.729  18.036  1.00  0.00     0.026 C
ENDBRANCH  15  17
ENDBRANCH  14  15
BRANCH  14  19
HETATM   19  O1  UNL     1      56.602  42.336  17.911  1.00  0.00    -0.346 OA
ATOM     20  H1  UNL     1      57.036  41.515  18.108  1.00  0.00     0.219 HD
ENDBRANCH  14  19
ENDBRANCH   6  14
ENDBRANCH   1   5
BRANCH   3  21
HETATM   21  C7  UNL     1      57.726  37.740  17.121  1.00  0.00     0.335 C
BRANCH  21  22
HETATM   22  N3  UNL     1      58.493  37.044  16.140  1.00  0.00    -0.058 N
ATOM     23  H32 UNL     1      58.817  37.684  15.415  1.00  0.00     0.278 HD
ATOM     24  H31 UNL     1      59.392  36.753  16.525  1.00  0.00     0.278 HD
BRANCH  22  25
HETATM   25  C8  UNL     1      57.799  35.919  15.554  1.00  0.00     0.127 C
HETATM   26  C9  UNL     1      58.480  35.572  14.255  1.00  0.00     0.043 C
HETATM   27  C10 UNL     1      57.893  34.294  13.677  1.00  0.00    -0.012 C
HETATM   28  C11 UNL     1      58.123  33.177  14.644  1.00  0.00     0.009 C
HETATM   29  C15 UNL     1      56.430  34.569  13.428  1.00  0.00     0.009 C
HETATM   30  C12 UNL     1      57.395  33.478  15.938  1.00  0.00    -0.012 C
HETATM   31  C13 UNL     1      55.929  33.690  15.691  1.00  0.00     0.009 C
HETATM   32  C17 UNL     1      57.985  34.756  16.507  1.00  0.00     0.043 C
HETATM   33  C14 UNL     1      55.768  34.867  14.744  1.00  0.00    -0.012 C
HETATM   34  C16 UNL     1      56.333  36.139  15.388  1.00  0.00     0.043 C
ENDBRANCH  22  25
ENDBRANCH  21  22
ENDBRANCH   3  21
TORSDOF 8
ENDMDL