MODEL 5
REMARK VINA RESULT: -7.519281569      2.173      3.033
REMARK  7 active torsions:
REMARK  status: ('A' for Active; 'I' for Inactive)
REMARK    1  A    between atoms: C2_2  and  C3_3
REMARK    2  A    between atoms: C3_3  and  N1_4
REMARK       I    between atoms: N1_4  and  C4_6
REMARK    3  A    between atoms: C4_6  and  C5_8
REMARK    4  A    between atoms: C5_8  and  C6_9
REMARK    5  A    between atoms: C6_9  and  N2_10
REMARK    6  A    between atoms: C16_21  and  O2_22
REMARK    7  A    between atoms: C22_29  and  O3_30
ROOT
HETATM    1  N2  UNL     1      54.125  41.536  13.206  1.00  0.00    -0.375 N
ATOM      2  H2  UNL     1      54.246  41.633  14.214  1.00  0.00     0.164 HD
HETATM    3  C7  UNL     1      54.151  40.366  12.762  1.00  0.00    -0.005 C
HETATM    4  C8  UNL     1      54.016  39.839  11.381  1.00  0.00     0.053 C
HETATM    5  C9  UNL     1      54.797  38.516  11.366  1.00  0.00     0.012 C
HETATM    6  C10 UNL     1      55.412  38.478  12.706  1.00  0.00     0.004 C
HETATM    7  C11 UNL     1      55.952  37.206  13.205  1.00  0.00     0.002 C
HETATM    8  C12 UNL     1      55.085  36.007  12.978  1.00  0.00     0.033 C
HETATM    9  C13 UNL     1      55.910  34.832  13.372  1.00  0.00    -0.023 C
HETATM   10  C14 UNL     1      56.736  34.896  14.366  1.00  0.00    -0.072 C
HETATM   11  C15 UNL     1      57.540  33.698  14.726  1.00  0.00     0.066 C
HETATM   12  C16 UNL     1      57.103  33.333  16.130  1.00  0.00     0.122 C
HETATM   13  C17 UNL     1      56.997  34.469  17.074  1.00  0.00     0.033 C
HETATM   14  C18 UNL     1      56.328  35.718  16.547  1.00  0.00     0.016 C
HETATM   15  C19 UNL     1      56.921  36.096  15.201  1.00  0.00    -0.014 C
HETATM   16  C20 UNL     1      58.448  36.195  15.419  1.00  0.00     0.020 C
HETATM   17  C21 UNL     1      56.441  37.360  14.621  1.00  0.00     0.031 C
HETATM   18  C22 UNL     1      55.530  38.158  15.519  1.00  0.00     0.124 C
HETATM   19  C23 UNL     1      54.923  39.364  14.900  1.00  0.00     0.047 C
HETATM   20  C24 UNL     1      54.343  39.089  13.577  1.00  0.00     0.001 C
HETATM   21  C25 UNL     1      53.038  38.393  13.571  1.00  0.00     0.022 C
ENDROOT
BRANCH   1  22
HETATM   22  C6  UNL     1      53.951  42.736  12.490  1.00  0.00     0.070 C
BRANCH  22  23
HETATM   23  C5  UNL     1      52.724  43.515  12.845  1.00  0.00     0.147 C
BRANCH  23  24
HETATM   24  C4  UNL     1      52.146  43.111  14.140  1.00  0.00     0.222 C
HETATM   25  N1  UNL     1      51.088  42.192  14.217  1.00  0.00    -0.357 N
ATOM     26  H1  UNL     1      50.709  41.788  13.360  1.00  0.00     0.162 HD
HETATM   27  O1  UNL     1      52.619  43.609  15.192  1.00  0.00    -0.273 OA
BRANCH  25  28
HETATM   28  C3  UNL     1      50.518  41.805  15.514  1.00  0.00     0.149 C
BRANCH  28  29
HETATM   29  C2  UNL     1      51.215  40.628  16.041  1.00  0.00    -0.018 C
HETATM   30  C1  UNL     1      52.043  40.680  17.077  1.00  0.00     0.008 C
ENDBRANCH  28  29
ENDBRANCH  25  28
ENDBRANCH  23  24
ENDBRANCH  22  23
ENDBRANCH   1  22
BRANCH  18  31
HETATM   31  O3  UNL     1      56.382  38.707  16.528  1.00  0.00    -0.395 OA
ATOM     32  H3  UNL     1      56.852  37.965  16.890  1.00  0.00     0.210 HD
ENDBRANCH  18  31
BRANCH  12  33
HETATM   33  O2  UNL     1      58.034  32.431  16.635  1.00  0.00    -0.395 OA
ATOM     34  H2  UNL     1      57.903  32.384  17.575  1.00  0.00     0.210 HD
ENDBRANCH  12  33
TORSDOF 7
ENDMDL