MODEL 5
REMARK VINA RESULT: -7.217683671      3.995      7.827
REMARK  8 active torsions:
REMARK  status: ('A' for Active; 'I' for Inactive)
REMARK    1  A    between atoms: N1_5  and  C5_7
REMARK    2  A    between atoms: C5_7  and  C6_8
REMARK    3  A    between atoms: C6_8  and  C7_9
REMARK    4  A    between atoms: N2_15  and  C13_16
REMARK    5  A    between atoms: C20_25  and  N4_26
REMARK    6  A    between atoms: N4_26  and  C21_28
REMARK    7  A    between atoms: C21_28  and  C22_29
REMARK    8  A    between atoms: C22_29  and  C23_30
ROOT
HETATM    1  C1  UNL     1      54.322  35.370  12.883  1.00  0.00     0.069 C
HETATM    2  C2  UNL     1      54.762  36.045  14.153  1.00  0.00     0.026 A
HETATM    3  C3  UNL     1      54.468  37.384  14.337  1.00  0.00     0.073 A
HETATM    4  C4  UNL     1      54.878  37.986  15.505  1.00  0.00     0.119 A
HETATM    5  N1  UNL     1      54.678  39.174  15.804  1.00  0.00    -0.365 N
ATOM      6  H1  UNL     1      55.073  39.396  16.717  1.00  0.00     0.162 HD
HETATM    7  N3  UNL     1      55.555  37.211  16.416  1.00  0.00    -0.177 N
ATOM      8  H3  UNL     1      55.861  37.649  17.285  1.00  0.00     0.185 HD
HETATM    9  C20 UNL     1      55.836  35.917  16.232  1.00  0.00     0.679 A
HETATM   10  N6  UNL     1      55.430  35.344  15.087  1.00  0.00    -0.196 N
ATOM     11  H6  UNL     1      55.633  34.358  14.921  1.00  0.00     0.184 HD
ENDROOT
BRANCH   5  12
HETATM   12  C5  UNL     1      54.057  40.297  15.232  1.00  0.00     0.052 C
HETATM   13  C11 UNL     1      54.552  40.344  13.768  1.00  0.00     0.077 C
HETATM   14  C12 UNL     1      53.384  40.881  13.010  1.00  0.00     0.061 C
HETATM   15  N2  UNL     1      52.234  40.685  13.769  1.00  0.00    -0.386 N
HETATM   16  C19 UNL     1      52.577  40.256  15.087  1.00  0.00     0.153 C
BRANCH  12  17
HETATM   17  C6  UNL     1      54.537  41.604  15.798  1.00  0.00     0.041 C
BRANCH  17  18
HETATM   18  C7  UNL     1      54.766  41.729  17.234  1.00  0.00    -0.049 C
HETATM   19  C8  UNL     1      56.138  41.251  17.687  1.00  0.00     0.014 C
HETATM   20  C9  UNL     1      54.826  43.265  17.500  1.00  0.00     0.014 C
HETATM   21  C10 UNL     1      53.761  41.227  18.192  1.00  0.00     0.014 C
ENDBRANCH  17  18
ENDBRANCH  12  17
BRANCH  15  22
HETATM   22  C13 UNL     1      51.001  40.377  13.242  1.00  0.00     0.083 C
HETATM   23  C14 UNL     1      50.011  40.149  14.401  1.00  0.00     0.025 C
HETATM   24  C15 UNL     1      49.001  39.151  13.878  1.00  0.00     0.002 C
HETATM   25  C16 UNL     1      48.698  39.528  12.443  1.00  0.00     0.000 C
HETATM   26  C17 UNL     1      48.917  40.993  12.160  1.00  0.00     0.002 C
HETATM   27  C18 UNL     1      50.348  41.429  12.379  1.00  0.00     0.025 C
ENDBRANCH  15  22
ENDBRANCH   5  12
BRANCH   9  28
HETATM   28  N4  UNL     1      56.478  35.235  17.140  1.00  0.00    -0.226 N
ATOM     29  H4  UNL     1      55.947  34.708  17.833  1.00  0.00     0.177 HD
BRANCH  28  30
HETATM   30  C21 UNL     1      57.912  35.206  17.188  1.00  0.00     0.147 C
BRANCH  30  31
HETATM   31  C22 UNL     1      58.435  33.779  17.238  1.00  0.00     0.119 C
BRANCH  31  32
HETATM   32  C23 UNL     1      57.809  32.959  16.181  1.00  0.00     0.232 C
HETATM   33  N5  UNL     1      57.924  33.332  14.827  1.00  0.00    -0.062 NA
HETATM   34  O1  UNL     1      57.175  31.930  16.494  1.00  0.00    -0.277 OA
ENDBRANCH  31  32
ENDBRANCH  30  31
ENDBRANCH  28  30
ENDBRANCH   9  28
TORSDOF 8
ENDMDL