MODEL 2
REMARK VINA RESULT: -7.865137927      1.865      5.268
REMARK  9 active torsions:
REMARK  status: ('A' for Active; 'I' for Inactive)
REMARK    1  A    between atoms: C2_2  and  O1_3
REMARK    2  A    between atoms: C2_2  and  C3_5
REMARK    3  A    between atoms: C3_5  and  N1_6
REMARK       I    between atoms: N1_6  and  C4_8
REMARK    4  A    between atoms: C4_8  and  C5_10
REMARK    5  A    between atoms: C5_10  and  C6_11
REMARK    6  A    between atoms: C6_11  and  C7_12
REMARK    7  A    between atoms: C7_12  and  O4_14
REMARK    8  A    between atoms: O4_14  and  C8_15
REMARK    9  A    between atoms: C17_24  and  O5_25
ROOT
HETATM    1  C8  UNL     1      55.300  40.858  14.511  1.00  0.00     0.140 C
HETATM    2  C9  UNL     1      55.765  41.620  13.289  1.00  0.00     0.034 C
HETATM    3  C10 UNL     1      54.637  41.283  12.302  1.00  0.00     0.008 C
HETATM    4  C11 UNL     1      54.391  39.785  12.530  1.00  0.00    -0.003 C
HETATM    5  C12 UNL     1      55.413  39.059  11.725  1.00  0.00     0.006 C
HETATM    6  C13 UNL     1      55.452  37.570  11.955  1.00  0.00     0.006 C
HETATM    7  C14 UNL     1      54.756  37.322  13.303  1.00  0.00    -0.005 C
HETATM    8  C15 UNL     1      54.801  35.935  13.762  1.00  0.00     0.003 C
HETATM    9  C16 UNL     1      55.567  34.945  12.895  1.00  0.00     0.038 C
HETATM   10  C17 UNL     1      56.561  34.741  13.999  1.00  0.00     0.127 C
HETATM   11  C18 UNL     1      55.678  35.584  14.896  1.00  0.00    -0.014 C
HETATM   12  C19 UNL     1      55.041  34.657  15.945  1.00  0.00     0.018 C
HETATM   13  C20 UNL     1      56.358  36.702  15.597  1.00  0.00     0.012 C
HETATM   14  C21 UNL     1      55.373  37.881  15.645  1.00  0.00     0.007 C
HETATM   15  C22 UNL     1      55.327  38.360  14.230  1.00  0.00     0.001 C
HETATM   16  C23 UNL     1      54.575  39.640  14.026  1.00  0.00    -0.010 C
HETATM   17  C24 UNL     1      53.223  39.610  14.731  1.00  0.00     0.018 C
ENDROOT
BRANCH   1  18
HETATM   18  O4  UNL     1      54.426  41.735  15.219  1.00  0.00    -0.315 OA
BRANCH  18  19
HETATM   19  C7  UNL     1      54.641  42.164  16.502  1.00  0.00     0.259 C
HETATM   20  O3  UNL     1      54.240  43.304  16.844  1.00  0.00    -0.265 OA
BRANCH  19  21
HETATM   21  C6  UNL     1      55.347  41.244  17.433  1.00  0.00     0.120 C
BRANCH  21  22
HETATM   22  C5  UNL     1      56.277  42.056  18.290  1.00  0.00     0.112 C
BRANCH  22  23
HETATM   23  C4  UNL     1      57.432  41.255  18.771  1.00  0.00     0.218 C
HETATM   24  N1  UNL     1      58.705  41.440  18.175  1.00  0.00    -0.359 N
ATOM     25  H1  UNL     1      58.844  42.113  17.421  1.00  0.00     0.162 HD
HETATM   26  O2  UNL     1      57.222  40.437  19.699  1.00  0.00    -0.274 OA
BRANCH  24  27
HETATM   27  C3  UNL     1      59.801  40.635  18.678  1.00  0.00     0.153 C
BRANCH  27  28
HETATM   28  C2  UNL     1      60.183  39.606  17.634  1.00  0.00     0.132 C
HETATM   29  C1  UNL     1      59.440  38.320  17.890  1.00  0.00     0.041 C
BRANCH  28  30
HETATM   30  O1  UNL     1      59.898  40.117  16.369  1.00  0.00    -0.394 OA
ATOM     31  H1  UNL     1      59.076  40.592  16.364  1.00  0.00     0.210 HD
ENDBRANCH  28  30
ENDBRANCH  27  28
ENDBRANCH  24  27
ENDBRANCH  22  23
ENDBRANCH  21  22
ENDBRANCH  19  21
ENDBRANCH  18  19
ENDBRANCH   1  18
BRANCH  10  32
HETATM   32  O5  UNL     1      57.810  35.278  13.727  1.00  0.00    -0.395 OA
ATOM     33  H5  UNL     1      58.530  34.751  14.052  1.00  0.00     0.210 HD
ENDBRANCH  10  32
TORSDOF 9
ENDMDL