MODEL 2
REMARK VINA RESULT: -7.779418768      1.432      2.385
REMARK  8 active torsions:
REMARK  status: ('A' for Active; 'I' for Inactive)
REMARK    1  A    between atoms: N1_2  and  C3_4
REMARK    2  A    between atoms: C3_4  and  C4_5
REMARK    3  A    between atoms: C4_5  and  C5_6
REMARK    4  A    between atoms: C5_6  and  N2_7
REMARK    5  A    between atoms: N2_7  and  C6_9
REMARK    6  A    between atoms: C14_17  and  O1_18
REMARK    7  A    between atoms: C23_28  and  C25_30
REMARK    8  A    between atoms: C26_32  and  O3_33
ROOT
HETATM    1  C6  UNL     1      56.032  39.307  15.078  1.00  0.00     0.106 C
HETATM    2  C7  UNL     1      56.232  38.078  15.919  1.00  0.00     0.035 C
HETATM    3  C8  UNL     1      55.399  36.909  15.572  1.00  0.00     0.001 C
HETATM    4  C9  UNL     1      54.765  36.962  14.195  1.00  0.00     0.001 C
HETATM    5  C10 UNL     1      55.714  36.733  13.084  1.00  0.00     0.006 C
HETATM    6  C11 UNL     1      56.967  36.068  13.544  1.00  0.00     0.006 C
HETATM    7  C12 UNL     1      56.611  34.983  14.544  1.00  0.00    -0.004 C
HETATM    8  C13 UNL     1      57.796  34.099  14.692  1.00  0.00     0.037 C
HETATM    9  C14 UNL     1      58.021  33.448  15.996  1.00  0.00     0.118 C
HETATM   10  C15 UNL     1      57.609  34.261  17.196  1.00  0.00     0.032 C
HETATM   11  C16 UNL     1      57.206  35.670  16.786  1.00  0.00     0.012 C
HETATM   12  C17 UNL     1      56.066  35.560  15.804  1.00  0.00    -0.036 C
HETATM   13  C18 UNL     1      54.989  34.590  16.322  1.00  0.00     0.016 C
HETATM   14  C19 UNL     1      53.944  38.212  14.103  1.00  0.00     0.051 C
HETATM   15  C20 UNL     1      54.706  39.439  14.472  1.00  0.00    -0.054 C
HETATM   16  C21 UNL     1      54.117  40.587  14.207  1.00  0.00    -0.020 C
HETATM   17  C22 UNL     1      52.769  40.687  13.592  1.00  0.00     0.046 C
HETATM   18  C23 UNL     1      52.353  39.515  12.784  1.00  0.00     0.039 C
HETATM   19  C24 UNL     1      52.057  39.894  11.330  1.00  0.00     0.026 C
HETATM   20  C26 UNL     1      53.384  38.416  12.719  1.00  0.00     0.142 C
ENDROOT
BRANCH   1  21
HETATM   21  N2  UNL     1      56.433  40.523  15.679  1.00  0.00    -0.413 N
ATOM     22  H2  UNL     1      56.745  41.306  15.103  1.00  0.00     0.153 HD
BRANCH  21  23
HETATM   23  C5  UNL     1      56.398  40.642  17.084  1.00  0.00     0.116 C
BRANCH  23  24
HETATM   24  C4  UNL     1      55.734  41.932  17.504  1.00  0.00     0.049 C
BRANCH  24  25
HETATM   25  C3  UNL     1      54.276  42.013  17.208  1.00  0.00     0.273 C
BRANCH  25  26
HETATM   26  N1  UNL     1      53.558  40.928  17.897  1.00  0.00     0.080 N
HETATM   27  C1  UNL     1      52.278  40.721  17.287  1.00  0.00     0.309 C
HETATM   28  C2  UNL     1      53.405  41.224  19.292  1.00  0.00     0.309 C
ENDBRANCH  25  26
ENDBRANCH  24  25
ENDBRANCH  23  24
ENDBRANCH  21  23
ENDBRANCH   1  21
BRANCH  20  29
HETATM   29  O3  UNL     1      52.730  37.226  12.344  1.00  0.00    -0.394 OA
ATOM     30  H3  UNL     1      51.802  37.341  12.518  1.00  0.00     0.210 HD
ENDBRANCH  20  29
BRANCH  18  31
HETATM   31  C25 UNL     1      51.090  38.879  13.306  1.00  0.00     0.243 C
HETATM   32  O2  UNL     1      50.219  38.618  12.491  1.00  0.00    -0.306 OA
ENDBRANCH  18  31
BRANCH   9  33
HETATM   33  O1  UNL     1      57.497  32.141  16.081  1.00  0.00    -0.396 OA
ATOM     34  H1  UNL     1      57.448  31.803  16.967  1.00  0.00     0.210 HD
ENDBRANCH   9  33
TORSDOF 8
ENDMDL