MODEL 4
REMARK VINA RESULT: -7.839480843      4.392      6.912
REMARK  9 active torsions:
REMARK  status: ('A' for Active; 'I' for Inactive)
REMARK    1  A    between atoms: C2_2  and  N1_3
REMARK    2  A    between atoms: C2_2  and  C3_7
REMARK    3  A    between atoms: C4_8  and  C5_9
REMARK    4  A    between atoms: C6_10  and  C7_11
REMARK    5  A    between atoms: C7_11  and  C8_12
REMARK    6  A    between atoms: C17_21  and  C18_22
REMARK    7  A    between atoms: C18_22  and  O1_23
REMARK    8  A    between atoms: C21_28  and  O3_29
REMARK    9  A    between atoms: C22_31  and  C23_32
ROOT
HETATM    1  C8  UNL     1      56.438  40.194  17.271  1.00  0.00     0.018 C
HETATM    2  C9  UNL     1      56.478  39.893  15.781  1.00  0.00     0.017 C
HETATM    3  C10 UNL     1      56.010  38.468  15.683  1.00  0.00     0.026 C
HETATM    4  C11 UNL     1      55.815  37.975  14.266  1.00  0.00    -0.024 C
HETATM    5  C12 UNL     1      56.072  36.665  13.750  1.00  0.00    -0.025 C
HETATM    6  C13 UNL     1      57.161  35.797  14.110  1.00  0.00     0.012 C
HETATM    7  C14 UNL     1      57.328  34.366  13.672  1.00  0.00     0.009 C
HETATM    8  C15 UNL     1      58.424  34.025  14.764  1.00  0.00     0.008 C
HETATM    9  C16 UNL     1      57.888  34.604  16.062  1.00  0.00     0.021 C
HETATM   10  C17 UNL     1      58.738  35.395  16.952  1.00  0.00     0.150 C
HETATM   11  O2  UNL     1      58.623  36.569  17.441  1.00  0.00    -0.377 OA
HETATM   12  C19 UNL     1      57.692  37.548  17.564  1.00  0.00     0.140 C
HETATM   13  C20 UNL     1      58.339  38.746  18.145  1.00  0.00     0.065 C
HETATM   14  C21 UNL     1      57.728  40.058  17.975  1.00  0.00     0.125 C
HETATM   15  C22 UNL     1      57.053  37.606  16.259  1.00  0.00     0.046 C
HETATM   16  C24 UNL     1      56.269  36.351  16.276  1.00  0.00     0.025 C
HETATM   17  C25 UNL     1      56.740  35.292  15.458  1.00  0.00     0.001 C
ENDROOT
BRANCH   1  18
HETATM   18  C7  UNL     1      55.945  41.636  17.393  1.00  0.00     0.034 C
BRANCH  18  19
HETATM   19  C6  UNL     1      54.509  41.749  17.123  1.00  0.00    -0.026 C
HETATM   20  C5  UNL     1      53.677  40.837  17.565  1.00  0.00    -0.004 C
BRANCH  20  21
HETATM   21  C4  UNL     1      52.242  40.930  17.306  1.00  0.00    -0.002 C
HETATM   22  C3  UNL     1      51.805  41.030  16.072  1.00  0.00     0.005 C
BRANCH  22  23
HETATM   23  C2  UNL     1      50.353  41.127  15.777  1.00  0.00     0.202 C
HETATM   24  C1  UNL     1      50.001  40.086  14.742  1.00  0.00     0.044 C
BRANCH  23  25
HETATM   25  N1  UNL     1      50.027  42.471  15.346  1.00  0.00    -0.072 N
ATOM     26  H13 UNL     1      50.861  43.057  15.308  1.00  0.00     0.275 HD
ATOM     27  H12 UNL     1      49.770  42.488  14.359  1.00  0.00     0.275 HD
ATOM     28  H11 UNL     1      49.303  42.901  15.921  1.00  0.00     0.275 HD
ENDBRANCH  23  25
ENDBRANCH  22  23
ENDBRANCH  20  21
ENDBRANCH  18  19
ENDBRANCH   1  18
BRANCH  14  29
HETATM   29  O3  UNL     1      58.626  41.019  17.442  1.00  0.00    -0.395 OA
ATOM     30  H3  UNL     1      59.457  40.588  17.278  1.00  0.00     0.210 HD
ENDBRANCH  14  29
BRANCH  15  31
HETATM   31  C23 UNL     1      58.148  38.001  15.409  1.00  0.00     0.244 C
HETATM   32  O4  UNL     1      59.203  38.592  15.672  1.00  0.00    -0.306 OA
ENDBRANCH  15  31
BRANCH  10  33
HETATM   33  C18 UNL     1      59.051  34.501  18.194  1.00  0.00     0.196 C
BRANCH  33  34
HETATM   34  O1  UNL     1      58.283  33.352  18.155  1.00  0.00    -0.398 OA
ATOM     35  H1  UNL     1      58.506  32.787  18.886  1.00  0.00     0.209 HD
ENDBRANCH  33  34
ENDBRANCH  10  33
TORSDOF 9
ENDMDL