MODEL 1
REMARK VINA RESULT: -8.685971163      0.000      0.000
REMARK  8 active torsions:
REMARK  status: ('A' for Active; 'I' for Inactive)
REMARK    1  A    between atoms: C2_2  and  C3_3
REMARK    2  A    between atoms: C4_4  and  C5_5
REMARK    3  A    between atoms: C10_10  and  C11_11
REMARK    4  A    between atoms: C11_11  and  O2_13
REMARK    5  A    between atoms: O2_13  and  C12_14
REMARK    6  A    between atoms: C12_14  and  C13_15
REMARK    7  A    between atoms: C23_25  and  O3_26
REMARK    8  A    between atoms: C24_28  and  C25_29
ROOT
HETATM    1  C5  UNL     1      54.572  41.727  15.586  1.00  0.00     0.031 C
HETATM    2  C6  UNL     1      54.586  41.513  14.115  1.00  0.00     0.010 C
HETATM    3  C7  UNL     1      55.871  41.024  13.569  1.00  0.00     0.006 C
HETATM    4  C8  UNL     1      56.539  39.934  14.309  1.00  0.00     0.004 C
HETATM    5  C9  UNL     1      56.358  38.603  13.564  1.00  0.00     0.011 C
HETATM    6  C10 UNL     1      56.247  39.812  15.768  1.00  0.00     0.099 A
HETATM    7  C23 UNL     1      54.897  39.348  16.267  1.00  0.00     0.159 A
HETATM    8  C24 UNL     1      55.410  40.780  16.393  1.00  0.00     0.102 A
ENDROOT
BRANCH   6   9
HETATM    9  C11 UNL     1      57.356  39.207  16.571  1.00  0.00     0.272 C
HETATM   10  O1  UNL     1      58.479  39.782  16.575  1.00  0.00    -0.264 OA
BRANCH   9  11
HETATM   11  O2  UNL     1      57.238  38.059  17.311  1.00  0.00    -0.320 OA
BRANCH  11  12
HETATM   12  C12 UNL     1      58.202  37.036  17.156  1.00  0.00     0.188 C
BRANCH  12  13
HETATM   13  C13 UNL     1      57.676  35.904  16.303  1.00  0.00    -0.017 C
HETATM   14  C14 UNL     1      58.368  35.987  14.955  1.00  0.00     0.016 C
HETATM   15  C15 UNL     1      57.939  34.853  14.069  1.00  0.00    -0.013 C
HETATM   16  C16 UNL     1      56.450  34.924  13.883  1.00  0.00     0.009 C
HETATM   17  C20 UNL     1      58.369  33.558  14.723  1.00  0.00     0.009 C
HETATM   18  C17 UNL     1      55.794  34.801  15.226  1.00  0.00    -0.013 C
HETATM   19  C18 UNL     1      56.196  33.482  15.836  1.00  0.00     0.009 C
HETATM   20  C22 UNL     1      56.190  35.929  16.162  1.00  0.00     0.016 C
HETATM   21  C19 UNL     1      57.689  33.443  16.068  1.00  0.00    -0.013 C
HETATM   22  C21 UNL     1      58.058  34.593  16.976  1.00  0.00     0.016 C
ENDBRANCH  12  13
ENDBRANCH  11  12
ENDBRANCH   9  11
ENDBRANCH   6   9
BRANCH   7  23
HETATM   23  O3  UNL     1      53.892  39.064  15.386  1.00  0.00    -0.393 OA
ATOM     24  H3  UNL     1      53.313  38.326  15.537  1.00  0.00     0.210 HD
ENDBRANCH   7  23
BRANCH   8  25
HETATM   25  C25 UNL     1      55.729  41.322  17.738  1.00  0.00     0.186 C
HETATM   26  O4  UNL     1      54.945  41.053  18.677  1.00  0.00    -0.647 OA
HETATM   27  O5  UNL     1      56.836  42.098  18.002  1.00  0.00    -0.647 OA
ENDBRANCH   8  25
BRANCH   1  28
HETATM   28  C4  UNL     1      54.900  43.139  15.926  1.00  0.00    -0.025 C
HETATM   29  C3  UNL     1      54.654  44.151  15.098  1.00  0.00    -0.031 C
BRANCH  29  30
HETATM   30  C2  UNL     1      54.992  45.528  15.467  1.00  0.00     0.022 C
HETATM   31  C1  UNL     1      55.535  46.358  14.350  1.00  0.00     0.009 C
ENDBRANCH  29  30
ENDBRANCH   1  28
TORSDOF 8
ENDMDL