MODEL 5
REMARK VINA RESULT: -8.583794322      2.420      6.142
REMARK  8 active torsions:
REMARK  status: ('A' for Active; 'I' for Inactive)
REMARK    1  A    between atoms: C2_2  and  C5_5
REMARK    2  A    between atoms: C8_8  and  C9_9
REMARK    3  A    between atoms: C9_9  and  N1_10
REMARK       I    between atoms: N1_10  and  C10_12
REMARK    4  A    between atoms: C10_12  and  C11_14
REMARK    5  A    between atoms: C11_14  and  S1_15
REMARK    6  A    between atoms: S1_15  and  C12_16
REMARK    7  A    between atoms: C14_20  and  N3_21
REMARK    8  A    between atoms: N3_21  and  C15_23
ROOT
HETATM    1  S1  UNL     1      52.116  41.557  15.503  1.00  0.00    -0.114 SA
ENDROOT
BRANCH   1   2
HETATM    2  C11 UNL     1      51.134  40.101  15.151  1.00  0.00     0.182 C
BRANCH   2   3
HETATM    3  C10 UNL     1      51.625  39.306  14.001  1.00  0.00     0.227 C
HETATM    4  N1  UNL     1      52.724  38.430  14.062  1.00  0.00    -0.360 N
ATOM      5  H1  UNL     1      53.187  38.342  14.966  1.00  0.00     0.162 HD
HETATM    6  O1  UNL     1      50.956  39.482  12.918  1.00  0.00    -0.273 OA
BRANCH   4   7
HETATM    7  C9  UNL     1      53.265  37.645  12.980  1.00  0.00     0.127 C
BRANCH   7   8
HETATM    8  C8  UNL     1      54.210  36.628  13.574  1.00  0.00     0.003 C
HETATM    9  C7  UNL     1      54.934  37.129  14.800  1.00  0.00     0.006 C
HETATM   10  C6  UNL     1      55.911  36.101  15.286  1.00  0.00     0.006 C
HETATM   11  C5  UNL     1      55.960  34.846  14.519  1.00  0.00    -0.007 C
HETATM   12  C22 UNL     1      55.900  34.975  13.029  1.00  0.00     0.006 C
HETATM   13  C21 UNL     1      55.327  36.298  12.573  1.00  0.00     0.006 C
BRANCH  11  14
HETATM   14  C2  UNL     1      57.287  34.149  14.833  1.00  0.00    -0.048 C
HETATM   15  C1  UNL     1      57.935  33.565  13.599  1.00  0.00     0.015 C
HETATM   16  C3  UNL     1      58.230  35.187  15.408  1.00  0.00     0.015 C
HETATM   17  C4  UNL     1      57.099  33.068  15.879  1.00  0.00     0.015 C
ENDBRANCH  11  14
ENDBRANCH   7   8
ENDBRANCH   4   7
ENDBRANCH   2   3
ENDBRANCH   1   2
BRANCH   1  18
HETATM   18  C12 UNL     1      53.750  41.225  16.088  1.00  0.00     0.085 A
HETATM   19  C13 UNL     1      54.844  41.107  15.227  1.00  0.00     0.130 A
HETATM   20  N2  UNL     1      56.059  40.913  15.722  1.00  0.00    -0.200 N
HETATM   21  C14 UNL     1      56.333  40.816  17.051  1.00  0.00     0.681 A
ATOM     22  H2  UNL     1      56.836  40.832  15.065  1.00  0.00     0.183 HD
HETATM   23  N4  UNL     1      55.298  40.926  17.886  1.00  0.00    -0.155 N
HETATM   24  C20 UNL     1      54.029  41.127  17.423  1.00  0.00     0.277 A
ATOM     25  H4  UNL     1      55.458  40.859  18.891  1.00  0.00     0.187 HD
HETATM   26  O2  UNL     1      53.123  41.217  18.276  1.00  0.00    -0.266 OA
BRANCH  21  27
HETATM   27  N3  UNL     1      57.536  40.644  17.442  1.00  0.00    -0.221 N
ATOM     28  H3  UNL     1      57.832  41.184  18.256  1.00  0.00     0.178 HD
BRANCH  27  29
HETATM   29  C15 UNL     1      58.497  39.790  16.872  1.00  0.00     0.099 C
HETATM   30  C16 UNL     1      58.153  38.356  17.321  1.00  0.00     0.026 C
HETATM   31  C17 UNL     1      59.129  38.007  18.402  1.00  0.00     0.002 C
HETATM   32  C18 UNL     1      59.802  39.288  18.770  1.00  0.00     0.002 C
HETATM   33  C19 UNL     1      59.910  39.995  17.415  1.00  0.00     0.026 C
ENDBRANCH  27  29
ENDBRANCH  21  27
ENDBRANCH   1  18
TORSDOF 8
ENDMDL