MODEL 1
REMARK VINA RESULT: -7.051943153      0.000      0.000
REMARK  6 active torsions:
REMARK  status: ('A' for Active; 'I' for Inactive)
REMARK       I    between atoms: C1_2  and  N3_7
REMARK    1  A    between atoms: N2_3  and  O1_5
REMARK    2  A    between atoms: N3_7  and  C2_9
REMARK    3  A    between atoms: C3_10  and  C4_11
REMARK    4  A    between atoms: N4_17  and  N5_18
REMARK    5  A    between atoms: N6_20  and  C6_22
REMARK    6  A    between atoms: N7_24  and  N8_25
ROOT
HETATM    1  C2  UNL     1     -13.872  -8.837  -0.870  1.00  0.00     0.178 A
HETATM    2  C3  UNL     1     -13.325 -10.047  -1.184  1.00  0.00     0.203 A
HETATM    3  O4  UNL     1     -12.264 -10.183  -0.346  1.00  0.00    -0.249 OA
HETATM    4  C5  UNL     1     -12.153  -9.158   0.421  1.00  0.00     0.394 A
HETATM    5  O5  UNL     1     -11.281  -8.945   1.322  1.00  0.00    -0.236 OA
HETATM    6  N4  UNL     1     -13.114  -8.275   0.160  1.00  0.00    -0.165 N
ENDROOT
BRANCH   6   7
HETATM    7  N5  UNL     1     -13.374  -7.054   0.725  1.00  0.00    -0.229 N
HETATM    8  N6  UNL     1     -13.168  -5.909   0.333  1.00  0.00    -0.279 N
ATOM      9  H6  UNL     1     -13.471  -5.175   0.972  1.00  0.00     0.189 HD
ATOM     10  H5  UNL     1     -13.820  -7.105   1.641  1.00  0.00     0.209 HD
BRANCH   8  11
HETATM   11  C6  UNL     1     -12.580  -5.451  -0.859  1.00  0.00     0.135 A
HETATM   12  C7  UNL     1     -11.219  -5.254  -0.911  1.00  0.00     0.157 A
HETATM   13  N7  UNL     1     -10.584  -4.825  -2.000  1.00  0.00    -0.221 N
HETATM   14  C8  UNL     1     -11.319  -4.575  -3.099  1.00  0.00     0.347 A
HETATM   15  O6  UNL     1     -10.710  -4.166  -4.139  1.00  0.00    -0.245 OA
HETATM   16  N9  UNL     1     -12.650  -4.756  -3.087  1.00  0.00    -0.272 N
HETATM   17  C9  UNL     1     -13.310  -5.190  -1.990  1.00  0.00     0.279 A
ATOM     18  H9  UNL     1     -13.182  -4.560  -3.936  1.00  0.00     0.174 HD
HETATM   19  O7  UNL     1     -14.551  -5.352  -2.002  1.00  0.00    -0.265 OA
BRANCH  13  20
HETATM   20  N8  UNL     1      -9.210  -4.627  -2.047  1.00  0.00    -0.335 N
ATOM     21  H82 UNL     1      -8.733  -4.256  -1.225  1.00  0.00     0.177 HD
ATOM     22  H81 UNL     1      -8.645  -4.836  -2.871  1.00  0.00     0.177 HD
ENDBRANCH  13  20
ENDBRANCH   8  11
ENDBRANCH   6   7
BRANCH   1  23
HETATM   23  N3  UNL     1     -14.976  -8.154  -1.411  1.00  0.00    -0.311 N
HETATM   24  C1  UNL     1     -16.340  -8.142  -1.166  1.00  0.00     0.213 C
HETATM   25  N1  UNL     1     -17.285  -9.025  -1.784  1.00  0.00    -0.061 NA
HETATM   26  N2  UNL     1     -16.839  -7.233  -0.371  1.00  0.00    -0.241 N
ATOM     27  H2  UNL     1     -17.848  -7.188  -0.225  1.00  0.00     0.197 HD
ATOM     28  H3  UNL     1     -14.709  -7.515  -2.160  1.00  0.00     0.170 HD
BRANCH  26  29
HETATM   29  O1  UNL     1     -16.027  -6.344   0.266  1.00  0.00    -0.287 OA
ATOM     30  H1  UNL     1     -15.993  -6.312   1.215  1.00  0.00     0.244 HD
ENDBRANCH  26  29
ENDBRANCH   1  23
BRANCH   2  31
HETATM   31  C4  UNL     1     -13.656 -11.077  -2.145  1.00  0.00     0.238 C
HETATM   32  O2  UNL     1     -13.879 -12.274  -1.671  1.00  0.00    -0.642 OA
HETATM   33  O3  UNL     1     -13.768 -10.960  -3.464  1.00  0.00    -0.642 OA
ENDBRANCH   2  31
TORSDOF 6
ENDMDL