MODEL 2
REMARK VINA RESULT: -8.088106324      1.704      1.996
REMARK  10 active torsions:
REMARK  status: ('A' for Active; 'I' for Inactive)
REMARK    1  A    between atoms: C2_2  and  O1_3
REMARK    2  A    between atoms: C2_2  and  C3_5
REMARK    3  A    between atoms: C4_7  and  C5_8
REMARK    4  A    between atoms: C5_8  and  O3_9
REMARK    5  A    between atoms: N1_11  and  N2_13
REMARK    6  A    between atoms: N2_13  and  C6_15
REMARK    7  A    between atoms: C6_15  and  O4_16
REMARK    8  A    between atoms: C6_15  and  C7_18
REMARK    9  A    between atoms: C8_23  and  N5_24
REMARK   10  A    between atoms: N5_24  and  N6_26
ROOT
HETATM    1  C3  UNL     1     -13.891  -8.734  -1.156  1.00  0.00     0.121 A
HETATM    2  O2  UNL     1     -13.352  -7.920  -2.038  1.00  0.00    -0.288 OA
HETATM    3  C4  UNL     1     -13.865  -6.736  -1.896  1.00  0.00     0.202 A
HETATM    4  N8  UNL     1     -14.752  -6.753  -0.916  1.00  0.00    -0.322 N
ATOM      5  H8  UNL     1     -15.306  -5.962  -0.589  1.00  0.00     0.169 HD
HETATM    6  C10 UNL     1     -14.789  -8.019  -0.425  1.00  0.00     0.148 A
HETATM    7  C11 UNL     1     -15.588  -8.546   0.638  1.00  0.00     0.120 C
HETATM    8  N9  UNL     1     -16.236  -8.968   1.509  1.00  0.00    -0.190 NA
ENDROOT
BRANCH   1   9
HETATM    9  C2  UNL     1     -13.556 -10.160  -1.016  1.00  0.00     0.174 C
HETATM   10  C1  UNL     1     -13.516 -10.906  -2.310  1.00  0.00     0.046 C
BRANCH   9  11
HETATM   11  O1  UNL     1     -12.351 -10.334  -0.332  1.00  0.00    -0.389 OA
ATOM     12  H1  UNL     1     -12.192  -9.588   0.233  1.00  0.00     0.210 HD
ENDBRANCH   9  11
ENDBRANCH   1   9
BRANCH   3  13
HETATM   13  C5  UNL     1     -13.478  -5.574  -2.737  1.00  0.00     0.207 C
HETATM   14  N1  UNL     1     -13.909  -4.427  -2.402  1.00  0.00    -0.278 N
ATOM     15  H1  UNL     1     -14.496  -4.392  -1.569  1.00  0.00     0.189 HD
BRANCH  13  16
HETATM   16  O3  UNL     1     -12.674  -5.743  -3.847  1.00  0.00    -0.342 OA
ATOM     17  H3  UNL     1     -11.796  -5.381  -3.871  1.00  0.00     0.219 HD
ENDBRANCH  13  16
BRANCH  14  18
HETATM   18  N2  UNL     1     -13.675  -3.235  -3.030  1.00  0.00    -0.300 N
ATOM     19  H2  UNL     1     -12.823  -2.724  -2.804  1.00  0.00     0.183 HD
BRANCH  18  20
HETATM   20  C6  UNL     1     -14.569  -2.676  -3.985  1.00  0.00     0.290 C
BRANCH  20  21
HETATM   21  O4  UNL     1     -14.537  -3.470  -5.144  1.00  0.00    -0.370 OA
ATOM     22  H4  UNL     1     -14.094  -2.984  -5.831  1.00  0.00     0.212 HD
ENDBRANCH  20  21
BRANCH  20  23
HETATM   23  C7  UNL     1     -14.137  -1.313  -4.430  1.00  0.00     0.144 A
HETATM   24  N3  UNL     1     -12.950  -0.817  -4.052  1.00  0.00    -0.281 N
HETATM   25  N4  UNL     1     -12.522   0.377  -4.422  1.00  0.00    -0.130 N
ATOM     26  H3  UNL     1     -12.352  -1.385  -3.453  1.00  0.00     0.187 HD
HETATM   27  C8  UNL     1     -13.284   1.166  -5.219  1.00  0.00     0.713 A
ATOM     28  H4  UNL     1     -11.611   0.709  -4.105  1.00  0.00     0.205 HD
HETATM   29  N7  UNL     1     -14.478   0.723  -5.629  1.00  0.00    -0.152 N
HETATM   30  C9  UNL     1     -14.906  -0.507  -5.240  1.00  0.00     0.288 A
ATOM     31  H7  UNL     1     -15.063   1.304  -6.229  1.00  0.00     0.188 HD
HETATM   32  O5  UNL     1     -16.023  -0.931  -5.618  1.00  0.00    -0.265 OA
BRANCH  27  33
HETATM   33  N5  UNL     1     -12.869   2.343  -5.590  1.00  0.00    -0.137 N
ATOM     34  H5  UNL     1     -11.877   2.579  -5.549  1.00  0.00     0.205 HD
BRANCH  33  35
HETATM   35  N6  UNL     1     -13.795   3.271  -6.043  1.00  0.00    -0.331 N
ATOM     36  H62 UNL     1     -14.542   3.581  -5.422  1.00  0.00     0.177 HD
ATOM     37  H61 UNL     1     -13.712   3.628  -6.995  1.00  0.00     0.177 HD
ENDBRANCH  33  35
ENDBRANCH  27  33
ENDBRANCH  20  23
ENDBRANCH  18  20
ENDBRANCH  14  18
ENDBRANCH   3  13
TORSDOF 10
ENDMDL