MODEL 2
REMARK VINA RESULT: -7.020735396      2.206      3.302
REMARK  9 active torsions:
REMARK  status: ('A' for Active; 'I' for Inactive)
REMARK    1  A    between atoms: O1_2  and  C2_3
REMARK    2  A    between atoms: C2_3  and  C3_5
REMARK    3  A    between atoms: C4_6  and  N1_7
REMARK    4  A    between atoms: N2_9  and  C5_11
REMARK    5  A    between atoms: C6_14  and  N4_15
REMARK    6  A    between atoms: N6_22  and  C8_23
REMARK    7  A    between atoms: C8_23  and  O4_24
REMARK    8  A    between atoms: N7_26  and  N8_27
REMARK    9  A    between atoms: C9_30  and  N9_31
ROOT
HETATM    1  N1  UNL     1     -12.425  -2.857  -3.923  1.00  0.00    -0.268 N
ATOM      2  H1  UNL     1     -11.970  -2.984  -4.828  1.00  0.00     0.189 HD
HETATM    3  N2  UNL     1     -13.112  -1.822  -3.672  1.00  0.00    -0.129 N
ATOM      4  H2  UNL     1     -13.543  -1.749  -2.750  1.00  0.00     0.205 HD
ENDROOT
BRANCH   1   5
HETATM    5  C4  UNL     1     -12.308  -3.851  -2.883  1.00  0.00     0.181 A
HETATM    6  C3  UNL     1     -11.222  -3.857  -2.029  1.00  0.00     0.155 A
HETATM    7  C10 UNL     1     -11.155  -4.822  -1.053  1.00  0.00     0.280 A
HETATM    8  N10 UNL     1     -12.142  -5.756  -0.929  1.00  0.00    -0.154 N
HETATM    9  O5  UNL     1     -10.199  -4.904  -0.230  1.00  0.00    -0.266 OA
HETATM   10  C9  UNL     1     -13.190  -5.741  -1.762  1.00  0.00     0.701 A
ATOM     11  H10 UNL     1     -12.080  -6.468  -0.201  1.00  0.00     0.187 HD
HETATM   12  N7  UNL     1     -13.241  -4.792  -2.709  1.00  0.00    -0.074 N
BRANCH   6  13
HETATM   13  C2  UNL     1     -10.178  -2.870  -2.159  1.00  0.00     0.302 C
HETATM   14  O2  UNL     1     -10.477  -1.641  -2.247  1.00  0.00    -0.259 OA
BRANCH  13  15
HETATM   15  O1  UNL     1      -8.833  -3.176  -2.196  1.00  0.00    -0.322 OA
HETATM   16  C1  UNL     1      -7.963  -2.751  -1.155  1.00  0.00     0.213 C
ENDBRANCH  13  15
ENDBRANCH   6  13
BRANCH  10  17
HETATM   17  N9  UNL     1     -14.109  -6.636  -1.621  1.00  0.00    -0.233 N
ATOM     18  H92 UNL     1     -14.716  -6.847  -2.414  1.00  0.00     0.174 HD
ATOM     19  H91 UNL     1     -14.256  -7.144  -0.748  1.00  0.00     0.174 HD
ENDBRANCH  10  17
BRANCH  12  20
HETATM   20  N8  UNL     1     -14.348  -4.796  -3.568  1.00  0.00    -0.322 N
ATOM     21  H82 UNL     1     -14.804  -3.902  -3.751  1.00  0.00     0.178 HD
ATOM     22  H81 UNL     1     -14.645  -5.686  -3.968  1.00  0.00     0.178 HD
ENDBRANCH  12  20
ENDBRANCH   1   5
BRANCH   3  23
HETATM   23  C5  UNL     1     -13.319  -0.770  -4.576  1.00  0.00     0.719 A
HETATM   24  N3  UNL     1     -12.629   0.391  -4.546  1.00  0.00    -0.021 N
HETATM   25  C6  UNL     1     -12.836   1.392  -5.419  1.00  0.00     0.694 A
ATOM     26  H3  UNL     1     -11.916   0.513  -3.826  1.00  0.00     0.203 HD
HETATM   27  N5  UNL     1     -13.781   1.204  -6.358  1.00  0.00    -0.140 N
HETATM   28  C7  UNL     1     -14.476   0.052  -6.399  1.00  0.00     0.356 A
ATOM     29  H5  UNL     1     -13.971   1.936  -7.041  1.00  0.00     0.189 HD
HETATM   30  O3  UNL     1     -15.368  -0.127  -7.285  1.00  0.00    -0.245 OA
HETATM   31  N6  UNL     1     -14.271  -0.951  -5.528  1.00  0.00    -0.108 N
BRANCH  25  32
HETATM   32  N4  UNL     1     -12.167   2.509  -5.385  1.00  0.00    -0.234 N
ATOM     33  H42 UNL     1     -11.501   2.681  -4.631  1.00  0.00     0.174 HD
ATOM     34  H41 UNL     1     -12.275   3.241  -6.087  1.00  0.00     0.174 HD
ENDBRANCH  25  32
BRANCH  31  35
HETATM   35  C8  UNL     1     -15.033  -2.186  -5.592  1.00  0.00     0.319 C
BRANCH  35  36
HETATM   36  O4  UNL     1     -15.754  -2.397  -4.402  1.00  0.00    -0.381 OA
ATOM     37  H4  UNL     1     -16.612  -2.764  -4.583  1.00  0.00     0.211 HD
ENDBRANCH  35  36
ENDBRANCH  31  35
ENDBRANCH   3  23
TORSDOF 9
ENDMDL