MODEL 1
REMARK VINA RESULT: -7.679801287      0.000      0.000
REMARK  8 active torsions:
REMARK  status: ('A' for Active; 'I' for Inactive)
REMARK    1  A    between atoms: N2_5  and  C4_6
REMARK    2  A    between atoms: C5_9  and  N4_10
REMARK    3  A    between atoms: N4_10  and  N5_12
REMARK    4  A    between atoms: N5_12  and  C6_14
REMARK    5  A    between atoms: C7_15  and  C8_16
REMARK    6  A    between atoms: C8_16  and  O1_17
REMARK    7  A    between atoms: C8_16  and  O2_19
REMARK    8  A    between atoms: N7_25  and  N8_26
ROOT
HETATM    1  N4  UNL     1     -12.201  -1.283  -4.198  1.00  0.00    -0.129 N
ATOM      2  H4  UNL     1     -11.514  -1.229  -4.950  1.00  0.00     0.205 HD
ENDROOT
BRANCH   1   3
HETATM    3  C5  UNL     1     -12.252  -2.431  -3.364  1.00  0.00     0.726 A
HETATM    4  N3  UNL     1     -13.223  -3.345  -3.230  1.00  0.00    -0.017 N
HETATM    5  C4  UNL     1     -12.826  -4.247  -2.326  1.00  0.00     0.728 A
ATOM      6  H3  UNL     1     -14.112  -3.351  -3.730  1.00  0.00     0.203 HD
HETATM    7  N10 UNL     1     -11.611  -3.874  -1.916  1.00  0.00    -0.116 N
HETATM    8  N9  UNL     1     -11.271  -2.784  -2.541  1.00  0.00    -0.116 N
ATOM      9  H10 UNL     1     -11.042  -4.364  -1.225  1.00  0.00     0.206 HD
ATOM     10  H9  UNL     1     -10.392  -2.281  -2.419  1.00  0.00     0.206 HD
BRANCH   5  11
HETATM   11  N2  UNL     1     -13.543  -5.399  -1.869  1.00  0.00    -0.116 N
HETATM   12  C3  UNL     1     -14.598  -5.242  -0.902  1.00  0.00     0.188 C
HETATM   13  C2  UNL     1     -14.421  -6.303   0.163  1.00  0.00     0.149 C
HETATM   14  N1  UNL     1     -14.533  -7.593  -0.484  1.00  0.00    -0.336 N
HETATM   15  C1  UNL     1     -15.437  -8.571   0.078  1.00  0.00     0.154 C
HETATM   16  C10 UNL     1     -13.736  -7.812  -1.641  1.00  0.00     0.337 C
HETATM   17  N11 UNL     1     -13.229  -6.664  -2.349  1.00  0.00    -0.235 N
HETATM   18  O4  UNL     1     -13.514  -8.989  -1.988  1.00  0.00    -0.245 OA
ATOM     19  H11 UNL     1     -12.653  -6.778  -3.183  1.00  0.00     0.192 HD
ENDBRANCH   5  11
ENDBRANCH   1   3
BRANCH   1  20
HETATM   20  N5  UNL     1     -13.022  -0.308  -4.006  1.00  0.00    -0.268 N
ATOM     21  H5  UNL     1     -13.180   0.022  -3.053  1.00  0.00     0.189 HD
BRANCH  20  22
HETATM   22  C6  UNL     1     -13.709   0.318  -5.063  1.00  0.00     0.174 A
HETATM   23  C7  UNL     1     -14.796  -0.200  -5.722  1.00  0.00     0.116 A
HETATM   24  N6  UNL     1     -15.167   0.703  -6.672  1.00  0.00    -0.303 N
HETATM   25  C9  UNL     1     -14.344   1.753  -6.615  1.00  0.00     0.347 A
ATOM     26  H6  UNL     1     -15.947   0.595  -7.321  1.00  0.00     0.170 HD
HETATM   27  O3  UNL     1     -14.384   2.792  -7.352  1.00  0.00    -0.245 OA
HETATM   28  N7  UNL     1     -13.450   1.504  -5.620  1.00  0.00    -0.192 N
BRANCH  23  29
HETATM   29  C8  UNL     1     -15.516  -1.482  -5.528  1.00  0.00     0.309 C
BRANCH  29  30
HETATM   30  O1  UNL     1     -15.843  -1.635  -4.176  1.00  0.00    -0.366 OA
ATOM     31  H1  UNL     1     -16.411  -2.388  -4.071  1.00  0.00     0.213 HD
ENDBRANCH  29  30
BRANCH  29  32
HETATM   32  O2  UNL     1     -14.686  -2.577  -5.842  1.00  0.00    -0.366 OA
ATOM     33  H2  UNL     1     -13.931  -2.607  -5.267  1.00  0.00     0.213 HD
ENDBRANCH  29  32
ENDBRANCH  23  29
BRANCH  28  34
HETATM   34  N8  UNL     1     -12.439   2.389  -5.278  1.00  0.00    -0.333 N
ATOM     35  H82 UNL     1     -11.969   2.369  -4.373  1.00  0.00     0.177 HD
ATOM     36  H81 UNL     1     -12.051   3.136  -5.855  1.00  0.00     0.177 HD
ENDBRANCH  28  34
ENDBRANCH  20  22
ENDBRANCH   1  20
TORSDOF 8
ENDMDL