MODEL 5
REMARK VINA RESULT: -7.708931845      1.525      3.214
REMARK  7 active torsions:
REMARK  status: ('A' for Active; 'I' for Inactive)
REMARK    1  A    between atoms: C2_2  and  N1_3
REMARK    2  A    between atoms: C3_4  and  O1_5
REMARK    3  A    between atoms: C4_7  and  C5_8
REMARK    4  A    between atoms: N2_9  and  N3_11
REMARK    5  A    between atoms: N4_15  and  N5_16
REMARK    6  A    between atoms: C8_21  and  C9_22
REMARK       I    between atoms: C9_22  and  N7_24
REMARK    7  A    between atoms: N7_24  and  N8_26
ROOT
HETATM    1  N3  UNL     1     -13.217  -4.544  -1.803  1.00  0.00    -0.278 N
ATOM      2  H3  UNL     1     -12.279  -4.385  -1.437  1.00  0.00     0.189 HD
HETATM    3  C6  UNL     1     -13.889  -5.589  -1.456  1.00  0.00     0.206 A
HETATM    4  O2  UNL     1     -15.112  -5.894  -1.867  1.00  0.00    -0.194 OA
HETATM    5  N4  UNL     1     -15.501  -7.005  -1.335  1.00  0.00    -0.145 N
HETATM    6  C7  UNL     1     -14.545  -7.498  -0.535  1.00  0.00     0.182 A
HETATM    7  N6  UNL     1     -14.568  -8.696   0.236  1.00  0.00    -0.077 NA
HETATM    8  C8  UNL     1     -13.487  -6.592  -0.599  1.00  0.00     0.133 A
ENDROOT
BRANCH   1   9
HETATM    9  N2  UNL     1     -13.791  -3.642  -2.678  1.00  0.00    -0.309 N
HETATM   10  C5  UNL     1     -13.048  -2.988  -3.493  1.00  0.00     0.128 C
ATOM     11  H2  UNL     1     -14.801  -3.497  -2.675  1.00  0.00     0.186 HD
BRANCH  10  12
HETATM   12  C4  UNL     1     -13.651  -2.021  -4.433  1.00  0.00     0.100 A
HETATM   13  C3  UNL     1     -13.251  -0.702  -4.462  1.00  0.00     0.163 A
HETATM   14  N1  UNL     1     -13.784   0.199  -5.307  1.00  0.00    -0.279 N
HETATM   15  C11 UNL     1     -14.746  -0.216  -6.153  1.00  0.00     0.331 A
HETATM   16  N9  UNL     1     -15.179  -1.499  -6.169  1.00  0.00    -0.274 N
HETATM   17  O5  UNL     1     -15.240   0.638  -6.943  1.00  0.00    -0.246 OA
HETATM   18  C10 UNL     1     -14.640  -2.391  -5.320  1.00  0.00     0.265 A
ATOM     19  H9  UNL     1     -15.909  -1.786  -6.821  1.00  0.00     0.173 HD
HETATM   20  O4  UNL     1     -15.021  -3.605  -5.304  1.00  0.00    -0.267 OA
BRANCH  13  21
HETATM   21  O1  UNL     1     -12.258  -0.327  -3.571  1.00  0.00    -0.345 OA
ATOM     22  H1  UNL     1     -11.463  -0.840  -3.494  1.00  0.00     0.219 HD
ENDBRANCH  13  21
BRANCH  14  23
HETATM   23  C2  UNL     1     -13.365   1.566  -5.335  1.00  0.00     0.131 C
HETATM   24  C1  UNL     1     -12.322   1.868  -6.357  1.00  0.00     0.027 C
ENDBRANCH  14  23
ENDBRANCH  10  12
ENDBRANCH   1   9
BRANCH   8  25
HETATM   25  C9  UNL     1     -12.243  -6.757   0.130  1.00  0.00     0.277 C
HETATM   26  O3  UNL     1     -11.475  -5.741   0.257  1.00  0.00    -0.266 OA
HETATM   27  N7  UNL     1     -11.817  -7.943   0.706  1.00  0.00    -0.272 N
ATOM     28  H7  UNL     1     -12.390  -8.783   0.634  1.00  0.00     0.189 HD
BRANCH  27  29
HETATM   29  N8  UNL     1     -10.581  -7.981   1.394  1.00  0.00    -0.342 N
ATOM     30  H82 UNL     1      -9.712  -7.955   0.860  1.00  0.00     0.176 HD
ATOM     31  H81 UNL     1     -10.573  -8.035   2.413  1.00  0.00     0.176 HD
ENDBRANCH  27  29
ENDBRANCH   8  25
BRANCH   5  32
HETATM   32  N5  UNL     1     -16.744  -7.606  -1.563  1.00  0.00    -0.317 N
ATOM     33  H52 UNL     1     -17.473  -7.230  -2.170  1.00  0.00     0.179 HD
ATOM     34  H51 UNL     1     -17.050  -8.485  -1.146  1.00  0.00     0.179 HD
ENDBRANCH   5  32
TORSDOF 7
ENDMDL