MODEL 5
REMARK VINA RESULT: -7.575753653      3.854      8.447
REMARK  6 active torsions:
REMARK  status: ('A' for Active; 'I' for Inactive)
REMARK    1  A    between atoms: N2_4  and  N3_6
REMARK    2  A    between atoms: N3_6  and  S1_8
REMARK    3  A    between atoms: S1_8  and  C3_9
REMARK    4  A    between atoms: N6_15  and  N7_16
REMARK    5  A    between atoms: C6_24  and  N11_25
REMARK    6  A    between atoms: C7_30  and  N13_31
ROOT
HETATM    1  N7  UNL     1     -13.108  -6.394  -0.765  1.00  0.00    -0.117 N
HETATM    2  N8  UNL     1     -14.139  -5.591  -1.034  1.00  0.00    -0.215 N
ATOM      3  H8  UNL     1     -13.984  -4.584  -1.084  1.00  0.00     0.210 HD
HETATM    4  N9  UNL     1     -15.358  -6.067  -1.236  1.00  0.00    -0.268 N
ATOM      5  H9  UNL     1     -16.123  -5.423  -1.438  1.00  0.00     0.190 HD
HETATM    6  C5  UNL     1     -15.598  -7.394  -1.178  1.00  0.00     0.156 A
HETATM    7  N10 UNL     1     -16.796  -7.937  -1.371  1.00  0.00    -0.174 N
ATOM      8  H10 UNL     1     -17.573  -7.309  -1.574  1.00  0.00     0.186 HD
HETATM    9  C6  UNL     1     -17.053  -9.255  -1.316  1.00  0.00     0.679 A
HETATM   10  N12 UNL     1     -16.026 -10.080  -1.046  1.00  0.00    -0.176 N
ATOM     11  H12 UNL     1     -16.182 -11.086  -0.995  1.00  0.00     0.186 HD
HETATM   12  C7  UNL     1     -14.794  -9.580  -0.843  1.00  0.00     0.134 A
HETATM   13  C8  UNL     1     -14.528  -8.225  -0.898  1.00  0.00     0.125 A
HETATM   14  C9  UNL     1     -13.249  -7.719  -0.686  1.00  0.00     0.302 A
HETATM   15  O1  UNL     1     -12.319  -8.516  -0.438  1.00  0.00    -0.263 OA
ENDROOT
BRANCH   1  16
HETATM   16  N6  UNL     1     -11.828  -5.843  -0.556  1.00  0.00    -0.147 N
HETATM   17  C3  UNL     1     -11.160  -5.085  -1.453  1.00  0.00     0.153 A
HETATM   18  C4  UNL     1      -9.944  -4.726  -0.902  1.00  0.00     0.151 A
HETATM   19  N4  UNL     1      -9.927  -5.287   0.321  1.00  0.00    -0.293 N
HETATM   20  N5  UNL     1     -11.057  -5.944   0.501  1.00  0.00    -0.219 N
ATOM     21  H4  UNL     1      -9.166  -5.217   0.997  1.00  0.00     0.187 HD
ATOM     22  H5  UNL     1     -11.299  -6.461   1.346  1.00  0.00     0.210 HD
BRANCH  17  23
HETATM   23  S1  UNL     1     -11.727  -4.619  -3.071  1.00  0.00     0.025 SA
BRANCH  23  24
HETATM   24  N3  UNL     1     -12.577  -3.099  -3.015  1.00  0.00    -0.267 N
ATOM     25  H3  UNL     1     -12.117  -2.257  -2.666  1.00  0.00     0.195 HD
BRANCH  24  26
HETATM   26  N2  UNL     1     -13.900  -3.057  -3.456  1.00  0.00    -0.285 N
HETATM   27  C2  UNL     1     -14.303  -2.056  -4.153  1.00  0.00     0.103 C
HETATM   28  C1  UNL     1     -13.375  -0.934  -4.501  1.00  0.00     0.086 C
HETATM   29  N1  UNL     1     -15.636  -1.965  -4.626  1.00  0.00    -0.087 NA
ATOM     30  H2  UNL     1     -14.542  -3.816  -3.227  1.00  0.00     0.188 HD
ENDBRANCH  24  26
ENDBRANCH  23  24
ENDBRANCH  17  23
ENDBRANCH   1  16
BRANCH  12  31
HETATM   31  N13 UNL     1     -13.782 -10.367  -0.578  1.00  0.00    -0.384 N
ATOM     32 2H13 UNL     1     -13.365 -10.282   0.349  1.00  0.00     0.157 HD
ATOM     33 1H13 UNL     1     -13.437 -11.031  -1.272  1.00  0.00     0.157 HD
ENDBRANCH  12  31
BRANCH   9  34
HETATM   34  N11 UNL     1     -18.245  -9.749  -1.511  1.00  0.00    -0.234 N
ATOM     35 2H11 UNL     1     -18.507 -10.083  -2.438  1.00  0.00     0.174 HD
ATOM     36 1H11 UNL     1     -18.940  -9.820  -0.768  1.00  0.00     0.174 HD
ENDBRANCH   9  34
TORSDOF 6
ENDMDL