MODEL 3
REMARK VINA RESULT: -7.925556172      2.654      8.196
REMARK  7 active torsions:
REMARK  status: ('A' for Active; 'I' for Inactive)
REMARK    1  A    between atoms: N1_1  and  C1_4
REMARK    2  A    between atoms: C1_4  and  N2_5
REMARK    3  A    between atoms: C1_4  and  C5_21
REMARK    4  A    between atoms: N2_5  and  N3_7
REMARK       I    between atoms: N3_7  and  C2_9
REMARK    5  A    between atoms: C2_9  and  C3_11
REMARK    6  A    between atoms: C4_17  and  N6_18
REMARK    7  A    between atoms: N9_26  and  C6_27
ROOT
HETATM    1  C1  UNL     1     -12.764  -4.390  -3.584  1.00  0.00     0.161 C
ENDROOT
BRANCH   1   2
HETATM    2  N1  UNL     1     -12.986  -5.271  -4.496  1.00  0.00    -0.381 N
ATOM      3  H12 UNL     1     -13.589  -5.015  -5.278  1.00  0.00     0.157 HD
ATOM      4  H11 UNL     1     -12.575  -6.203  -4.446  1.00  0.00     0.157 HD
ENDBRANCH   1   2
BRANCH   1   5
HETATM    5  N2  UNL     1     -13.717  -3.379  -3.285  1.00  0.00    -0.280 N
ATOM      6  H2  UNL     1     -14.064  -3.283  -2.330  1.00  0.00     0.188 HD
BRANCH   5   7
HETATM    7  N3  UNL     1     -14.193  -2.504  -4.286  1.00  0.00    -0.263 N
HETATM    8  C2  UNL     1     -13.490  -1.298  -4.570  1.00  0.00     0.292 C
HETATM    9  O1  UNL     1     -12.449  -0.994  -3.941  1.00  0.00    -0.264 OA
ATOM     10  H3  UNL     1     -15.040  -2.736  -4.806  1.00  0.00     0.190 HD
BRANCH   8  11
HETATM   11  C3  UNL     1     -14.000  -0.412  -5.610  1.00  0.00     0.171 A
HETATM   12  N4  UNL     1     -14.808  -0.779  -6.649  1.00  0.00    -0.232 N
HETATM   13  O2  UNL     1     -15.065   0.257  -7.372  1.00  0.00    -0.155 OA
ATOM     14  H4  UNL     1     -15.152  -1.723  -6.825  1.00  0.00     0.197 HD
HETATM   15  N5  UNL     1     -14.490   1.313  -6.904  1.00  0.00    -0.224 N
HETATM   16  C4  UNL     1     -13.803   0.936  -5.784  1.00  0.00     0.155 A
ATOM     17  H5  UNL     1     -14.539   2.253  -7.296  1.00  0.00     0.198 HD
BRANCH  16  18
HETATM   18  N6  UNL     1     -13.116   1.727  -5.065  1.00  0.00    -0.382 N
ATOM     19  H62 UNL     1     -12.188   1.513  -4.698  1.00  0.00     0.157 HD
ATOM     20  H61 UNL     1     -13.364   2.664  -4.747  1.00  0.00     0.157 HD
ENDBRANCH  16  18
ENDBRANCH   8  11
ENDBRANCH   5   7
ENDBRANCH   1   5
BRANCH   1  21
HETATM   21  C5  UNL     1     -11.503  -4.450  -2.862  1.00  0.00     0.183 A
HETATM   22  N7  UNL     1     -10.286  -4.537  -3.444  1.00  0.00    -0.265 N
HETATM   23  N8  UNL     1      -9.375  -4.572  -2.493  1.00  0.00    -0.218 N
ATOM     24  H7  UNL     1     -10.104  -4.571  -4.448  1.00  0.00     0.190 HD
HETATM   25  N9  UNL     1      -9.973  -4.509  -1.310  1.00  0.00    -0.158 N
ATOM     26  H8  UNL     1      -8.369  -4.637  -2.642  1.00  0.00     0.210 HD
HETATM   27  N12 UNL     1     -11.272  -4.434  -1.550  1.00  0.00    -0.257 N
ATOM     28  H12 UNL     1     -11.994  -4.372  -0.833  1.00  0.00     0.191 HD
BRANCH  25  29
HETATM   29  C6  UNL     1      -9.323  -4.518  -0.035  1.00  0.00     0.208 A
HETATM   30  N10 UNL     1      -9.686  -5.266   1.038  1.00  0.00    -0.220 N
HETATM   31  O3  UNL     1      -8.849  -4.981   1.972  1.00  0.00    -0.154 OA
ATOM     32  H10 UNL     1     -10.465  -5.922   1.092  1.00  0.00     0.198 HD
HETATM   33  N11 UNL     1      -7.962  -4.107   1.609  1.00  0.00    -0.227 N
HETATM   34  C7  UNL     1      -8.226  -3.781   0.327  1.00  0.00     0.172 A
ATOM     35  H11 UNL     1      -7.206  -3.736   2.185  1.00  0.00     0.198 HD
HETATM   36  S1  UNL     1      -7.380  -2.707  -0.583  1.00  0.00    -0.054 SA
ENDBRANCH  25  29
ENDBRANCH   1  21
TORSDOF 7
ENDMDL