MODEL 2
REMARK VINA RESULT: -7.346305099      2.369      3.322
REMARK  8 active torsions:
REMARK  status: ('A' for Active; 'I' for Inactive)
REMARK    1  A    between atoms: C2_2  and  N1_3
REMARK    2  A    between atoms: C3_4  and  N2_5
REMARK    3  A    between atoms: C4_10  and  N4_11
REMARK    4  A    between atoms: N4_11  and  N5_13
REMARK       I    between atoms: C5_15  and  N7_17
REMARK    5  A    between atoms: N7_17  and  N8_19
REMARK    6  A    between atoms: N8_19  and  O1_23
REMARK    7  A    between atoms: C6_26  and  O2_27
REMARK    8  A    between atoms: C7_29  and  C8_30
ROOT
HETATM    1  N1  UNL     1      -6.795  -2.857   0.951  1.00  0.00    -0.013 N
HETATM    2  C3  UNL     1      -6.654  -2.123  -0.166  1.00  0.00     0.707 A
HETATM    3  N3  UNL     1      -7.542  -2.279  -1.165  1.00  0.00    -0.019 N
ATOM      4  H3  UNL     1      -7.458  -1.734  -2.023  1.00  0.00     0.203 HD
HETATM    5  C4  UNL     1      -8.542  -3.165  -1.011  1.00  0.00     0.734 A
HETATM    6  N10 UNL     1      -8.687  -3.909   0.118  1.00  0.00     0.048 N
HETATM    7  C6  UNL     1      -9.692  -4.791   0.256  1.00  0.00     0.201 A
HETATM    8  C7  UNL     1      -9.876  -5.569   1.390  1.00  0.00     0.130 A
HETATM    9  C10 UNL     1      -8.950  -5.385   2.395  1.00  0.00     0.277 A
HETATM   10  O4  UNL     1      -9.040  -6.050   3.461  1.00  0.00    -0.266 OA
HETATM   11  N11 UNL     1      -7.943  -4.481   2.220  1.00  0.00    -0.153 N
ATOM     12  H11 UNL     1      -7.267  -4.357   2.973  1.00  0.00     0.187 HD
HETATM   13  C11 UNL     1      -7.798  -3.750   1.113  1.00  0.00     0.725 A
ENDROOT
BRANCH   5  14
HETATM   14  N4  UNL     1      -9.424  -3.360  -1.931  1.00  0.00    -0.128 N
ATOM     15  H4  UNL     1      -9.648  -4.327  -2.167  1.00  0.00     0.205 HD
BRANCH  14  16
HETATM   16  N5  UNL     1     -10.088  -2.371  -2.619  1.00  0.00    -0.258 N
HETATM   17  C5  UNL     1     -11.317  -2.393  -2.973  1.00  0.00     0.225 C
HETATM   18  N6  UNL     1     -11.832  -1.286  -3.676  1.00  0.00    -0.060 NA
HETATM   19  N7  UNL     1     -12.196  -3.474  -2.697  1.00  0.00    -0.231 N
ATOM     20  H7  UNL     1     -12.013  -4.055  -1.879  1.00  0.00     0.194 HD
ATOM     21  H5  UNL     1      -9.549  -1.542  -2.871  1.00  0.00     0.190 HD
BRANCH  19  22
HETATM   22  N8  UNL     1     -13.298  -3.775  -3.495  1.00  0.00    -0.099 N
HETATM   23  N9  UNL     1     -14.369  -3.110  -3.335  1.00  0.00    -0.303 N
ATOM     24  H92 UNL     1     -14.371  -2.381  -2.622  1.00  0.00     0.181 HD
ATOM     25  H91 UNL     1     -15.176  -3.330  -3.920  1.00  0.00     0.181 HD
BRANCH  22  26
HETATM   26  O1  UNL     1     -13.295  -4.759  -4.456  1.00  0.00    -0.254 OA
ATOM     27  H1  UNL     1     -14.060  -4.995  -4.969  1.00  0.00     0.248 HD
ENDBRANCH  22  26
ENDBRANCH  19  22
ENDBRANCH  14  16
ENDBRANCH   5  14
BRANCH   2  28
HETATM   28  N2  UNL     1      -5.666  -1.293  -0.237  1.00  0.00    -0.233 N
ATOM     29  H22 UNL     1      -4.894  -1.301   0.429  1.00  0.00     0.174 HD
ATOM     30  H21 UNL     1      -5.663  -0.605  -0.989  1.00  0.00     0.174 HD
ENDBRANCH   2  28
BRANCH   7  31
HETATM   31  O2  UNL     1     -10.592  -4.928  -0.793  1.00  0.00    -0.344 OA
ATOM     32  H2  UNL     1     -11.459  -4.552  -0.693  1.00  0.00     0.219 HD
ENDBRANCH   7  31
BRANCH   1  33
HETATM   33  C2  UNL     1      -5.864  -2.721   2.049  1.00  0.00     0.162 C
HETATM   34  C1  UNL     1      -6.273  -1.673   3.036  1.00  0.00     0.028 C
ENDBRANCH   1  33
BRANCH   8  35
HETATM   35  C8  UNL     1     -10.986  -6.509   1.484  1.00  0.00     0.165 C
HETATM   36  C9  UNL     1     -10.829  -7.964   1.333  1.00  0.00     0.097 C
HETATM   37  O3  UNL     1     -12.145  -6.016   1.709  1.00  0.00    -0.292 OA
ENDBRANCH   8  35
TORSDOF 8
ENDMDL