MODEL 2
REMARK VINA RESULT: -7.113337679      1.864      1.917
REMARK  8 active torsions:
REMARK  status: ('A' for Active; 'I' for Inactive)
REMARK    1  A    between atoms: N1_1  and  C1_4
REMARK    2  A    between atoms: C2_7  and  N3_8
REMARK    3  A    between atoms: C3_11  and  C4_12
REMARK    4  A    between atoms: C4_12  and  O4_14
REMARK    5  A    between atoms: O4_14  and  N4_15
REMARK    6  A    between atoms: N4_15  and  N5_17
REMARK    7  A    between atoms: N5_17  and  O5_18
REMARK    8  A    between atoms: N5_17  and  C5_20
ROOT
HETATM    1  C4  UNL     1     -13.552  -4.415  -3.667  1.00  0.00     0.326 C
HETATM    2  O3  UNL     1     -13.082  -5.247  -4.480  1.00  0.00    -0.257 OA
ENDROOT
BRANCH   1   3
HETATM    3  C3  UNL     1     -13.336  -2.966  -3.888  1.00  0.00     0.160 A
HETATM    4  C2  UNL     1     -12.166  -2.343  -3.515  1.00  0.00     0.210 A
HETATM    5  N2  UNL     1     -12.038  -1.022  -3.748  1.00  0.00    -0.170 N
HETATM    6  C1  UNL     1     -12.984  -0.263  -4.326  1.00  0.00     0.680 A
ATOM      7  H2  UNL     1     -11.168  -0.571  -3.468  1.00  0.00     0.186 HD
HETATM    8  N8  UNL     1     -14.119  -0.882  -4.683  1.00  0.00    -0.155 N
HETATM    9  C7  UNL     1     -14.312  -2.195  -4.481  1.00  0.00     0.280 A
ATOM     10  H8  UNL     1     -14.861  -0.338  -5.123  1.00  0.00     0.187 HD
HETATM   11  O7  UNL     1     -15.392  -2.749  -4.829  1.00  0.00    -0.266 OA
BRANCH   4  12
HETATM   12  N3  UNL     1     -11.107  -3.074  -2.894  1.00  0.00    -0.096 N
HETATM   13  O1  UNL     1     -10.180  -3.488  -3.577  1.00  0.00    -0.530 OA
HETATM   14  O2  UNL     1     -11.144  -3.301  -1.554  1.00  0.00    -0.530 OA
ENDBRANCH   4  12
BRANCH   6  15
HETATM   15  N1  UNL     1     -12.805   1.013  -4.526  1.00  0.00    -0.234 N
ATOM     16  H12 UNL     1     -12.069   1.534  -4.049  1.00  0.00     0.174 HD
ATOM     17  H11 UNL     1     -13.395   1.539  -5.170  1.00  0.00     0.174 HD
ENDBRANCH   6  15
ENDBRANCH   1   3
BRANCH   1  18
HETATM   18  O4  UNL     1     -14.260  -4.879  -2.590  1.00  0.00    -0.176 OA
BRANCH  18  19
HETATM   19  N4  UNL     1     -14.030  -4.561  -1.326  1.00  0.00    -0.169 N
ATOM     20  H4  UNL     1     -13.237  -3.964  -1.091  1.00  0.00     0.219 HD
BRANCH  19  21
HETATM   21  N5  UNL     1     -14.841  -5.023  -0.334  1.00  0.00    -0.117 N
BRANCH  21  22
HETATM   22  O5  UNL     1     -15.071  -4.306   0.775  1.00  0.00    -0.264 OA
ATOM     23  H5  UNL     1     -14.363  -3.892   1.255  1.00  0.00     0.247 HD
ENDBRANCH  21  22
BRANCH  21  24
HETATM   24  C5  UNL     1     -15.477  -6.291  -0.459  1.00  0.00     0.215 A
HETATM   25  N6  UNL     1     -15.313  -7.191  -1.417  1.00  0.00    -0.273 N
HETATM   26  N7  UNL     1     -15.953  -8.285  -1.393  1.00  0.00    -0.258 N
ATOM     27  H6  UNL     1     -14.665  -7.002  -2.182  1.00  0.00     0.189 HD
HETATM   28  C6  UNL     1     -16.797  -8.518  -0.386  1.00  0.00     0.306 A
ATOM     29  H7  UNL     1     -15.825  -8.976  -2.132  1.00  0.00     0.191 HD
HETATM   30  O6  UNL     1     -17.526  -9.553  -0.189  1.00  0.00    -0.258 OA
HETATM   31  S1  UNL     1     -16.628  -7.078   0.536  1.00  0.00     0.014 SA
ENDBRANCH  21  24
ENDBRANCH  19  21
ENDBRANCH  18  19
ENDBRANCH   1  18
TORSDOF 8
ENDMDL