MODEL 2
REMARK VINA RESULT: -7.081137115      2.449      3.291
REMARK  7 active torsions:
REMARK  status: ('A' for Active; 'I' for Inactive)
REMARK    1  A    between atoms: N1_1  and  C1_4
REMARK    2  A    between atoms: C1_4  and  C2_6
REMARK    3  A    between atoms: C3_7  and  S1_8
REMARK    4  A    between atoms: S1_8  and  C4_9
REMARK    5  A    between atoms: C5_14  and  C6_15
REMARK    6  A    between atoms: N10_27  and  N11_28
REMARK    7  A    between atoms: C8_31  and  N12_32
ROOT
HETATM    1  C2  UNL     1     -12.836  -6.345  -0.889  1.00  0.00     0.084 A
HETATM    2  C3  UNL     1     -12.339  -5.505  -1.860  1.00  0.00     0.098 A
HETATM    3  N9  UNL     1     -11.133  -4.917  -1.598  1.00  0.00    -0.300 N
ATOM      4  H9  UNL     1     -10.728  -4.288  -2.291  1.00  0.00     0.171 HD
HETATM    5  C7  UNL     1     -10.463  -5.147  -0.452  1.00  0.00     0.347 A
HETATM    6  O1  UNL     1      -9.360  -4.555  -0.310  1.00  0.00    -0.245 OA
HETATM    7  N10 UNL     1     -10.942  -5.974   0.517  1.00  0.00    -0.195 N
HETATM    8  C8  UNL     1     -12.127  -6.558   0.271  1.00  0.00     0.141 A
ENDROOT
BRANCH   2   9
HETATM    9  S1  UNL     1     -13.219  -5.208  -3.358  1.00  0.00    -0.045 SA
BRANCH   9  10
HETATM   10  C4  UNL     1     -13.170  -3.446  -3.760  1.00  0.00     0.135 A
HETATM   11  N3  UNL     1     -12.276  -2.540  -3.373  1.00  0.00    -0.287 N
HETATM   12  N4  UNL     1     -12.396  -1.341  -3.751  1.00  0.00    -0.289 N
ATOM     13  H3  UNL     1     -11.497  -2.814  -2.773  1.00  0.00     0.188 HD
HETATM   14  C5  UNL     1     -13.414  -0.995  -4.532  1.00  0.00     0.138 A
ATOM     15  H4  UNL     1     -11.714  -0.642  -3.459  1.00  0.00     0.188 HD
HETATM   16  S2  UNL     1     -14.217  -2.491  -4.712  1.00  0.00    -0.041 SA
BRANCH  14  17
HETATM   17  C6  UNL     1     -13.745   0.331  -5.087  1.00  0.00     0.167 A
HETATM   18  N5  UNL     1     -13.079   1.483  -4.960  1.00  0.00    -0.268 N
HETATM   19  N6  UNL     1     -13.702   2.452  -5.607  1.00  0.00    -0.007 NA
ATOM     20  H5  UNL     1     -12.211   1.597  -4.437  1.00  0.00     0.185 HD
HETATM   21  N7  UNL     1     -14.776   1.905  -6.149  1.00  0.00    -0.007 NA
HETATM   22  N8  UNL     1     -14.822   0.599  -5.842  1.00  0.00    -0.268 N
ATOM     23  H8  UNL     1     -15.542  -0.065  -6.128  1.00  0.00     0.185 HD
ENDBRANCH  14  17
ENDBRANCH   9  10
ENDBRANCH   2   9
BRANCH   1  24
HETATM   24  C1  UNL     1     -14.105  -7.018  -1.066  1.00  0.00     0.127 C
HETATM   25  N2  UNL     1     -14.185  -8.346  -1.552  1.00  0.00    -0.082 NA
BRANCH  24  26
HETATM   26  N1  UNL     1     -15.196  -6.402  -0.777  1.00  0.00    -0.387 N
ATOM     27  H12 UNL     1     -15.640  -6.562   0.128  1.00  0.00     0.157 HD
ATOM     28  H11 UNL     1     -15.592  -5.763  -1.465  1.00  0.00     0.157 HD
ENDBRANCH  24  26
ENDBRANCH   1  24
BRANCH   8  29
HETATM   29  N12 UNL     1     -12.625  -7.346   1.148  1.00  0.00    -0.383 N
ATOM     30 2H12 UNL     1     -13.167  -6.953   1.916  1.00  0.00     0.157 HD
ATOM     31 1H12 UNL     1     -12.460  -8.348   1.046  1.00  0.00     0.157 HD
ENDBRANCH   8  29
BRANCH   7  32
HETATM   32  N11 UNL     1     -10.238  -6.198   1.690  1.00  0.00    -0.333 N
ATOM     33 2H11 UNL     1      -9.225  -6.096   1.743  1.00  0.00     0.177 HD
ATOM     34 1H11 UNL     1     -10.712  -6.474   2.550  1.00  0.00     0.177 HD
ENDBRANCH   7  32
TORSDOF 7
ENDMDL