MODEL 3
REMARK VINA RESULT: -8.809273860      1.273      1.484
REMARK  11 active torsions:
REMARK  status: ('A' for Active; 'I' for Inactive)
REMARK    1  A    between atoms: O1_2  and  C2_3
REMARK       I    between atoms: C2_3  and  N1_5
REMARK    2  A    between atoms: C5_10  and  C6_11
REMARK       I    between atoms: C6_11  and  N2_13
REMARK    3  A    between atoms: N2_13  and  C7_15
REMARK    4  A    between atoms: C7_15  and  C8_16
REMARK       I    between atoms: N3_19  and  C11_20
REMARK    5  A    between atoms: C11_20  and  O5_22
REMARK    6  A    between atoms: O5_22  and  C12_23
REMARK    7  A    between atoms: C12_23  and  C13_24
REMARK    8  A    between atoms: C16_27  and  C17_28
REMARK    9  A    between atoms: C17_28  and  C18_29
REMARK   10  A    between atoms: C18_29  and  N4_31
REMARK   11  A    between atoms: C21_33  and  O6_34
ROOT
HETATM    1  C2  UNL     1       8.293  10.911  21.175  1.00  0.00     0.381 C
HETATM    2  O2  UNL     1       9.057  10.663  20.224  1.00  0.00    -0.236 OA
HETATM    3  N1  UNL     1       7.660   9.928  21.959  1.00  0.00    -0.223 N
HETATM    4  C3  UNL     1       6.773  10.222  23.103  1.00  0.00     0.236 C
HETATM    5  C4  UNL     1       6.613   8.885  23.785  1.00  0.00     0.292 C
HETATM    6  F1  UNL     1       5.397   8.300  23.494  1.00  0.00    -0.202 F
HETATM    7  F2  UNL     1       6.750   9.045  25.149  1.00  0.00    -0.202 F
HETATM    8  C5  UNL     1       7.734   8.057  23.202  1.00  0.00     0.279 C
HETATM    9  N3  UNL     1       7.734   8.546  21.819  1.00  0.00    -0.210 N
HETATM   10  C11 UNL     1       7.778   7.803  20.616  1.00  0.00     0.383 C
HETATM   11  O4  UNL     1       7.730   8.324  19.481  1.00  0.00    -0.236 OA
ENDROOT
BRANCH   8  12
HETATM   12  C6  UNL     1       9.017   8.380  23.853  1.00  0.00     0.248 C
HETATM   13  O3  UNL     1      10.026   8.696  23.145  1.00  0.00    -0.271 OA
HETATM   14  N2  UNL     1       9.197   8.358  25.263  1.00  0.00    -0.359 N
ATOM     15  H2  UNL     1       8.404   8.109  25.854  1.00  0.00     0.162 HD
BRANCH  14  16
HETATM   16  C7  UNL     1      10.460   8.675  25.891  1.00  0.00     0.127 C
BRANCH  16  17
HETATM   17  C8  UNL     1      11.254   7.427  26.161  1.00  0.00     0.003 A
HETATM   18  C9  UNL     1      12.743   7.517  26.265  1.00  0.00     0.007 A
HETATM   19  C10 UNL     1      11.910   7.157  27.440  1.00  0.00     0.007 A
ENDBRANCH  16  17
ENDBRANCH  14  16
ENDBRANCH   8  12
BRANCH  10  20
HETATM   20  O5  UNL     1       7.878   6.414  20.613  1.00  0.00    -0.302 OA
BRANCH  20  21
HETATM   21  C12 UNL     1       6.876   5.498  20.873  1.00  0.00     0.185 C
BRANCH  21  22
HETATM   22  C13 UNL     1       6.547   4.522  19.799  1.00  0.00     0.010 C
HETATM   23  C14 UNL     1       7.320   4.700  18.521  1.00  0.00     0.007 C
HETATM   24  C15 UNL     1       8.711   4.149  18.711  1.00  0.00     0.005 C
HETATM   25  C16 UNL     1       8.724   2.608  18.723  1.00  0.00    -0.013 C
HETATM   26  C23 UNL     1       7.351   2.211  19.196  1.00  0.00     0.005 C
HETATM   27  C24 UNL     1       6.885   3.141  20.329  1.00  0.00     0.007 C
BRANCH  25  28
HETATM   28  C17 UNL     1       9.096   2.188  17.354  1.00  0.00     0.040 C
BRANCH  28  29
HETATM   29  C18 UNL     1       8.750   0.812  16.917  1.00  0.00     0.219 C
HETATM   30  C19 UNL     1       9.854  -0.177  16.962  1.00  0.00     0.043 C
BRANCH  29  31
HETATM   31  N4  UNL     1       8.033   0.817  15.651  1.00  0.00     0.097 N
HETATM   32  C20 UNL     1       7.084  -0.225  15.434  1.00  0.00     0.306 C
HETATM   33  C21 UNL     1       6.014   0.650  16.037  1.00  0.00     0.174 C
HETATM   34  C22 UNL     1       6.933   1.772  15.600  1.00  0.00     0.306 C
BRANCH  33  35
HETATM   35  O6  UNL     1       4.780   0.612  15.389  1.00  0.00    -0.392 OA
ATOM     36  H6  UNL     1       4.716   1.149  14.608  1.00  0.00     0.210 HD
ENDBRANCH  33  35
ENDBRANCH  29  31
ENDBRANCH  28  29
ENDBRANCH  25  28
ENDBRANCH  21  22
ENDBRANCH  20  21
ENDBRANCH  10  20
BRANCH   1  37
HETATM   37  O1  UNL     1       8.072  12.274  21.455  1.00  0.00    -0.308 OA
HETATM   38  C1  UNL     1       7.291  13.011  20.548  1.00  0.00     0.215 C
ENDBRANCH   1  37
TORSDOF 11
ENDMDL