MODEL 1
REMARK VINA RESULT: -8.367001883      0.000      0.000
REMARK  8 active torsions:
REMARK  status: ('A' for Active; 'I' for Inactive)
REMARK       I    between atoms: C2_2  and  N1_4
REMARK    1  A    between atoms: C4_6  and  C5_7
REMARK       I    between atoms: C5_7  and  N2_9
REMARK    2  A    between atoms: N2_9  and  C6_11
REMARK       I    between atoms: N4_14  and  C8_15
REMARK       I    between atoms: C8_15  and  N5_17
REMARK    3  A    between atoms: N5_17  and  C9_19
REMARK    4  A    between atoms: C9_19  and  C10_20
REMARK    5  A    between atoms: C10_20  and  C11_21
REMARK    6  A    between atoms: N6_24  and  C14_25
REMARK    7  A    between atoms: C14_25  and  C15_26
REMARK    8  A    between atoms: C15_26  and  C16_27
ROOT
HETATM    1  C6  UNL     1       7.027   7.301  23.881  1.00  0.00     0.247 C
HETATM    2  C7  UNL     1       6.731   8.590  24.492  1.00  0.00     0.078 C
HETATM    3  N3  UNL     1       6.483   9.619  24.998  1.00  0.00    -0.196 NA
ENDROOT
BRANCH   1   4
HETATM    4  N2  UNL     1       6.047   6.997  22.835  1.00  0.00    -0.347 N
HETATM    5  C5  UNL     1       6.403   6.779  21.506  1.00  0.00     0.243 C
HETATM    6  O2  UNL     1       7.617   6.845  21.191  1.00  0.00    -0.271 OA
ATOM      7  H2  UNL     1       5.061   6.943  23.091  1.00  0.00     0.163 HD
BRANCH   5   8
HETATM    8  C4  UNL     1       5.438   6.476  20.459  1.00  0.00     0.199 C
HETATM    9  C3  UNL     1       4.848   5.081  20.605  1.00  0.00     0.167 C
HETATM   10  N1  UNL     1       5.831   4.028  20.510  1.00  0.00    -0.287 N
HETATM   11  C2  UNL     1       5.524   2.949  21.400  1.00  0.00     0.220 C
HETATM   12  C25 UNL     1       7.020   3.802  19.746  1.00  0.00     0.327 C
HETATM   13  C1  UNL     1       4.353   2.923  22.283  1.00  0.00     0.117 C
HETATM   14  O1  UNL     1       6.302   1.968  21.424  1.00  0.00    -0.274 OA
HETATM   15  C24 UNL     1       7.327   4.765  18.668  1.00  0.00     0.124 C
HETATM   16  F1  UNL     1       6.878   2.529  19.174  1.00  0.00    -0.182 F
HETATM   17  F2  UNL     1       8.133   3.737  20.586  1.00  0.00    -0.182 F
HETATM   18  C23 UNL     1       6.186   5.593  18.172  1.00  0.00     0.136 C
HETATM   19  N4  UNL     1       5.878   6.655  19.107  1.00  0.00    -0.319 N
HETATM   20  C8  UNL     1       6.021   7.953  18.593  1.00  0.00     0.319 C
HETATM   21  O3  UNL     1       6.420   8.112  17.415  1.00  0.00    -0.247 OA
HETATM   22  N5  UNL     1       5.725   9.091  19.372  1.00  0.00    -0.343 N
ATOM     23  H5  UNL     1       5.396   8.935  20.324  1.00  0.00     0.164 HD
BRANCH  22  24
HETATM   24  C9  UNL     1       5.852  10.459  18.928  1.00  0.00     0.125 C
BRANCH  24  25
HETATM   25  C10 UNL     1       7.069  11.113  19.487  1.00  0.00     0.024 C
BRANCH  25  26
HETATM   26  C11 UNL     1       7.535  10.470  20.775  1.00  0.00    -0.010 C
HETATM   27  C12 UNL     1       7.456  11.369  21.968  1.00  0.00     0.024 C
HETATM   28  C13 UNL     1       8.745  11.480  22.719  1.00  0.00     0.117 C
HETATM   29  N6  UNL     1       9.445  10.257  22.882  1.00  0.00    -0.412 N
HETATM   30  C21 UNL     1       9.550   9.397  21.766  1.00  0.00     0.117 C
HETATM   31  C22 UNL     1       8.973  10.055  20.537  1.00  0.00     0.024 C
BRANCH  29  32
HETATM   32  C14 UNL     1      10.524  10.257  23.809  1.00  0.00     0.119 C
BRANCH  32  33
HETATM   33  C15 UNL     1      10.175   9.609  25.132  1.00  0.00     0.051 C
BRANCH  33  34
HETATM   34  C16 UNL     1      10.550   8.117  25.104  1.00  0.00     0.123 C
HETATM   35  C17 UNL     1       9.945   7.395  26.230  1.00  0.00     0.032 C
HETATM   36  C18 UNL     1      10.874   6.896  27.285  1.00  0.00     0.004 C
HETATM   37  C19 UNL     1      12.217   7.633  27.193  1.00  0.00     0.026 C
HETATM   38  C20 UNL     1      12.675   7.390  25.769  1.00  0.00     0.168 C
HETATM   39  O4  UNL     1      11.877   8.046  24.910  1.00  0.00    -0.386 OA
ENDBRANCH  33  34
ENDBRANCH  32  33
ENDBRANCH  29  32
ENDBRANCH  25  26
ENDBRANCH  24  25
ENDBRANCH  22  24
ENDBRANCH   5   8
ENDBRANCH   1   4
TORSDOF 8
ENDMDL