MODEL 5
REMARK VINA RESULT: -8.287469775      2.582      4.309
REMARK  9 active torsions:
REMARK  status: ('A' for Active; 'I' for Inactive)
REMARK    1  A    between atoms: N1_1  and  C1_5
REMARK    2  A    between atoms: C4_8  and  S1_9
REMARK    3  A    between atoms: S1_9  and  C5_12
REMARK    4  A    between atoms: C9_16  and  N2_17
REMARK    5  A    between atoms: N2_17  and  S2_19
REMARK    6  A    between atoms: S2_19  and  C10_22
REMARK    7  A    between atoms: C10_22  and  C11_23
REMARK    8  A    between atoms: C11_23  and  C12_24
REMARK       I    between atoms: N3_27  and  C15_28
REMARK    9  A    between atoms: C15_28  and  C16_30
ROOT
HETATM    1  S2  UNL     1       4.157   6.207  22.989  1.00  0.00     0.227 S
HETATM    2  O3  UNL     1       3.790   4.826  23.518  1.00  0.00    -0.206 OA
HETATM    3  O4  UNL     1       3.223   7.167  23.684  1.00  0.00    -0.206 OA
ENDROOT
BRANCH   1   4
HETATM    4  N2  UNL     1       5.779   6.591  23.291  1.00  0.00    -0.313 N
ATOM      5  H2  UNL     1       6.353   6.062  23.947  1.00  0.00     0.172 HD
BRANCH   4   6
HETATM    6  C9  UNL     1       6.293   7.730  22.547  1.00  0.00     0.124 C
HETATM    7  C1  UNL     1       6.355   8.880  23.492  1.00  0.00     0.206 C
HETATM    8  C2  UNL     1       7.486   9.821  23.309  1.00  0.00     0.036 C
HETATM    9  C3  UNL     1       8.798   9.165  22.962  1.00  0.00     0.022 C
HETATM   10  C4  UNL     1       8.591   8.363  21.711  1.00  0.00     0.111 C
HETATM   11  C8  UNL     1       7.494   7.370  21.802  1.00  0.00     0.048 C
BRANCH   7  12
HETATM   12  N1  UNL     1       5.126   9.668  23.474  1.00  0.00    -0.073 N
ATOM     13  H13 UNL     1       4.341   9.194  23.921  1.00  0.00     0.274 HD
ATOM     14  H12 UNL     1       5.163  10.477  24.094  1.00  0.00     0.274 HD
ATOM     15  H11 UNL     1       4.940   9.918  22.503  1.00  0.00     0.274 HD
ENDBRANCH   7  12
BRANCH  10  16
HETATM   16  S1  UNL     1       8.446   9.417  20.270  1.00  0.00     0.152 S
HETATM   17  O1  UNL     1       9.249  10.664  20.576  1.00  0.00    -0.227 OA
HETATM   18  O2  UNL     1       9.003   8.811  19.050  1.00  0.00    -0.227 OA
BRANCH  16  19
HETATM   19  C5  UNL     1       6.753   9.925  20.111  1.00  0.00     0.109 A
HETATM   20  C6  UNL     1       6.089  10.021  18.809  1.00  0.00     0.021 A
HETATM   21  C7  UNL     1       6.572  11.299  19.473  1.00  0.00     0.021 A
ENDBRANCH  16  19
ENDBRANCH  10  16
ENDBRANCH   4   6
ENDBRANCH   1   4
BRANCH   1  22
HETATM   22  C10 UNL     1       3.803   6.256  21.262  1.00  0.00     0.163 C
BRANCH  22  23
HETATM   23  C11 UNL     1       4.303   5.032  20.574  1.00  0.00     0.023 C
BRANCH  23  24
HETATM   24  C12 UNL     1       4.697   5.312  19.127  1.00  0.00     0.006 C
HETATM   25  C13 UNL     1       5.632   6.468  19.012  1.00  0.00     0.026 C
HETATM   26  C14 UNL     1       6.894   5.896  18.459  1.00  0.00     0.126 C
HETATM   27  N3  UNL     1       6.725   4.466  18.415  1.00  0.00    -0.351 N
HETATM   28  C15 UNL     1       7.763   3.482  18.353  1.00  0.00     0.224 C
HETATM   29  C22 UNL     1       5.317   4.145  18.440  1.00  0.00     0.130 C
HETATM   30  O5  UNL     1       8.948   3.876  18.340  1.00  0.00    -0.273 OA
BRANCH  28  31
HETATM   31  C16 UNL     1       7.443   2.020  18.307  1.00  0.00     0.078 C
HETATM   32  C17 UNL     1       7.121   1.594  16.889  1.00  0.00     0.020 C
HETATM   33  C18 UNL     1       7.851   0.310  16.538  1.00  0.00     0.080 C
HETATM   34  C19 UNL     1       9.352   0.537  16.610  1.00  0.00     0.243 C
HETATM   35  F1  UNL     1       9.705   1.375  15.559  1.00  0.00    -0.206 F
HETATM   36  F2  UNL     1       9.961  -0.691  16.433  1.00  0.00    -0.206 F
HETATM   37  C20 UNL     1       9.749   1.112  17.943  1.00  0.00     0.080 C
HETATM   38  C21 UNL     1       8.575   1.241  18.893  1.00  0.00     0.020 C
ENDBRANCH  28  31
ENDBRANCH  23  24
ENDBRANCH  22  23
ENDBRANCH   1  22
TORSDOF 9
ENDMDL