MODEL 1
REMARK VINA RESULT: -8.115846113      0.000      0.000
REMARK  11 active torsions:
REMARK  status: ('A' for Active; 'I' for Inactive)
REMARK    1  A    between atoms: C2_2  and  O1_3
REMARK    2  A    between atoms: O1_3  and  C3_4
REMARK    3  A    between atoms: C3_4  and  C4_6
REMARK    4  A    between atoms: C8_15  and  C9_16
REMARK    5  A    between atoms: C9_16  and  N3_17
REMARK       I    between atoms: N3_17  and  C10_19
REMARK    6  A    between atoms: C10_19  and  C11_21
REMARK    7  A    between atoms: C18_28  and  C19_29
REMARK    8  A    between atoms: C20_31  and  C21_32
REMARK    9  A    between atoms: C21_32  and  O5_33
REMARK   10  A    between atoms: O5_33  and  C22_34
REMARK   11  A    between atoms: C22_34  and  C23_36
ROOT
HETATM    1  N3  UNL     1       6.772   6.558  18.761  1.00  0.00    -0.359 N
ATOM      2  H3  UNL     1       7.651   6.888  18.363  1.00  0.00     0.162 HD
HETATM    3  C10 UNL     1       6.675   5.188  19.089  1.00  0.00     0.222 C
HETATM    4  O4  UNL     1       5.606   4.761  19.577  1.00  0.00    -0.273 OA
ENDROOT
BRANCH   3   5
HETATM    5  C11 UNL     1       7.781   4.208  18.888  1.00  0.00     0.083 C
HETATM    6  C12 UNL     1       7.939   3.312  20.045  1.00  0.00     0.015 C
HETATM    7  C13 UNL     1       7.648   1.871  19.907  1.00  0.00     0.006 C
HETATM    8  C14 UNL     1       8.228   1.169  18.749  1.00  0.00    -0.009 C
HETATM    9  C15 UNL     1       9.416   1.952  18.234  1.00  0.00     0.010 C
HETATM   10  C17 UNL     1       7.587   1.332  17.431  1.00  0.00    -0.000 C
HETATM   11  C16 UNL     1       8.507   2.490  17.174  1.00  0.00    -0.004 C
HETATM   12  C24 UNL     1       7.696   3.662  17.532  1.00  0.00     0.010 C
HETATM   13  C20 UNL     1       6.309   3.246  17.051  1.00  0.00     0.021 C
HETATM   14  C18 UNL     1       6.172   1.799  17.364  1.00  0.00     0.011 C
BRANCH  13  15
HETATM   15  C21 UNL     1       6.127   3.601  15.593  1.00  0.00     0.184 C
BRANCH  15  16
HETATM   16  O5  UNL     1       5.322   4.751  15.439  1.00  0.00    -0.320 OA
BRANCH  16  17
HETATM   17  C22 UNL     1       5.800   5.947  14.956  1.00  0.00     0.272 C
HETATM   18  O6  UNL     1       6.045   6.842  15.825  1.00  0.00    -0.264 OA
BRANCH  17  19
HETATM   19  C23 UNL     1       6.057   6.301  13.560  1.00  0.00     0.225 C
HETATM   20 CL2  UNL     1       6.836   7.870  13.340  1.00  0.00    -0.120 Cl
ENDBRANCH  17  19
ENDBRANCH  16  17
ENDBRANCH  15  16
ENDBRANCH  13  15
BRANCH  14  21
HETATM   21  C19 UNL     1       5.373   0.990  16.378  1.00  0.00     0.120 C
HETATM   22 CL1  UNL     1       6.348  -0.196  15.499  1.00  0.00    -0.130 Cl
ENDBRANCH  14  21
ENDBRANCH   3   5
BRANCH   1  23
HETATM   23  C9  UNL     1       5.736   7.508  18.945  1.00  0.00     0.149 C
BRANCH  23  24
HETATM   24  C8  UNL     1       6.128   8.941  18.803  1.00  0.00     0.123 C
HETATM   25  C4  UNL     1       7.097   9.449  19.830  1.00  0.00     0.155 C
HETATM   26  C5  UNL     1       7.472  10.855  19.508  1.00  0.00     0.003 C
HETATM   27  C6  UNL     1       7.860  11.770  20.645  1.00  0.00     0.064 C
HETATM   28  N1  UNL     1       7.468  11.282  18.307  1.00  0.00    -0.316 N
HETATM   29  C7  UNL     1       7.115  10.498  17.191  1.00  0.00     0.320 C
ATOM     30  H1  UNL     1       7.736  12.253  18.144  1.00  0.00     0.170 HD
HETATM   31  O3  UNL     1       7.113  10.904  16.022  1.00  0.00    -0.247 OA
HETATM   32  N2  UNL     1       6.739   9.144  17.471  1.00  0.00    -0.335 N
ATOM     33  H2  UNL     1       6.881   8.383  16.807  1.00  0.00     0.164 HD
BRANCH  25  34
HETATM   34  C3  UNL     1       8.320   8.616  19.971  1.00  0.00     0.270 C
HETATM   35  O2  UNL     1       9.201   8.682  19.079  1.00  0.00    -0.264 OA
BRANCH  34  36
HETATM   36  O1  UNL     1       8.525   7.775  21.039  1.00  0.00    -0.321 OA
BRANCH  36  37
HETATM   37  C2  UNL     1       8.439   8.221  22.377  1.00  0.00     0.174 C
HETATM   38  C1  UNL     1       9.598   9.137  22.733  1.00  0.00     0.034 C
ENDBRANCH  36  37
ENDBRANCH  34  36
ENDBRANCH  25  34
ENDBRANCH  23  24
ENDBRANCH   1  23
TORSDOF 11
ENDMDL