MODEL 2
REMARK VINA RESULT: -8.098038288      0.907      1.082
REMARK  11 active torsions:
REMARK  status: ('A' for Active; 'I' for Inactive)
REMARK    1  A    between atoms: N1_1  and  N2_4
REMARK    2  A    between atoms: N2_4  and  N3_5
REMARK    3  A    between atoms: N3_5  and  S1_7
REMARK    4  A    between atoms: S1_7  and  C1_10
REMARK    5  A    between atoms: C1_10  and  C2_11
REMARK    6  A    between atoms: C2_11  and  N4_12
REMARK       I    between atoms: N4_12  and  C3_14
REMARK    7  A    between atoms: C3_14  and  C4_16
REMARK    8  A    between atoms: C4_16  and  C5_17
REMARK    9  A    between atoms: C5_17  and  C6_18
REMARK   10  A    between atoms: C19_33  and  O4_34
REMARK   11  A    between atoms: C19_33  and  C20_36
ROOT
HETATM    1  C6  UNL     1       6.489   3.820  19.493  1.00  0.00     0.040 C
HETATM    2  C7  UNL     1       7.142   2.584  20.118  1.00  0.00     0.005 C
HETATM    3 CL1  UNL     1       6.541   2.024  21.619  1.00  0.00    -0.092 Cl
HETATM    4  C8  UNL     1       7.407   1.618  19.026  1.00  0.00     0.079 C
HETATM    5  C9  UNL     1       7.929   2.560  17.961  1.00  0.00     0.041 C
HETATM    6  C10 UNL     1       9.459   2.582  18.125  1.00  0.00     0.032 C
HETATM    7  C11 UNL     1      10.076   1.228  17.991  1.00  0.00     0.004 C
HETATM    8  C12 UNL     1       9.362   0.335  17.026  1.00  0.00     0.020 C
HETATM    9  C13 UNL     1       8.608   1.236  16.053  1.00  0.00     0.123 C
HETATM   10  N5  UNL     1       7.658   2.064  16.693  1.00  0.00    -0.383 N
HETATM   11  C14 UNL     1       6.581   2.519  15.927  1.00  0.00     0.064 C
HETATM   12  C15 UNL     1       5.841   3.675  16.555  1.00  0.00     0.028 C
HETATM   13  C16 UNL     1       6.903   4.594  17.114  1.00  0.00     0.018 C
HETATM   14  C17 UNL     1       7.472   3.950  18.310  1.00  0.00     0.032 C
HETATM   15  C18 UNL     1       4.951   3.116  17.601  1.00  0.00     0.058 C
HETATM   16  C19 UNL     1       5.132   3.715  18.982  1.00  0.00     0.146 C
ENDROOT
BRANCH   1  17
HETATM   17  C5  UNL     1       6.746   4.852  20.527  1.00  0.00     0.028 C
BRANCH  17  18
HETATM   18  C4  UNL     1       7.942   5.646  20.619  1.00  0.00     0.104 C
BRANCH  18  19
HETATM   19  C3  UNL     1       7.588   6.913  21.382  1.00  0.00     0.217 C
HETATM   20  N4  UNL     1       6.632   7.776  20.819  1.00  0.00    -0.360 N
ATOM     21  H4  UNL     1       6.222   7.510  19.923  1.00  0.00     0.162 HD
HETATM   22  O3  UNL     1       8.110   7.210  22.475  1.00  0.00    -0.274 OA
BRANCH  20  23
HETATM   23  C2  UNL     1       6.193   9.006  21.419  1.00  0.00     0.139 C
BRANCH  23  24
HETATM   24  C1  UNL     1       6.436  10.225  20.550  1.00  0.00     0.185 C
BRANCH  24  25
HETATM   25  S1  UNL     1       8.177  10.670  20.601  1.00  0.00     0.256 S
HETATM   26  O1  UNL     1       8.660  10.685  22.018  1.00  0.00    -0.203 OA
HETATM   27  O2  UNL     1       8.967   9.685  19.788  1.00  0.00    -0.203 OA
BRANCH  25  28
HETATM   28  N3  UNL     1       8.432  12.223  19.936  1.00  0.00    -0.140 N
ATOM     29  H3  UNL     1       8.498  12.293  18.920  1.00  0.00     0.217 HD
BRANCH  28  30
HETATM   30  N2  UNL     1       8.540  13.250  20.574  1.00  0.00    -0.234 NA
BRANCH  30  31
HETATM   31  N1  UNL     1       8.842  14.403  20.935  1.00  0.00    -0.260 N
ATOM     32  H12 UNL     1       8.304  14.861  20.199  1.00  0.00     0.193 HD
ATOM     33  H11 UNL     1       9.240  15.197  21.438  1.00  0.00     0.193 HD
ENDBRANCH  30  31
ENDBRANCH  28  30
ENDBRANCH  25  28
ENDBRANCH  24  25
ENDBRANCH  23  24
ENDBRANCH  20  23
ENDBRANCH  18  19
ENDBRANCH  17  18
ENDBRANCH   1  17
BRANCH  16  34
HETATM   34  O4  UNL     1       4.691   5.065  18.761  1.00  0.00    -0.380 OA
ATOM     35  H4  UNL     1       3.761   5.068  18.953  1.00  0.00     0.211 HD
ENDBRANCH  16  34
BRANCH  16  36
HETATM   36  C20 UNL     1       4.075   3.125  19.815  1.00  0.00     0.254 C
HETATM   37  O5  UNL     1       3.467   3.704  20.708  1.00  0.00    -0.276 OA
HETATM   38 CL2  UNL     1       3.543   1.440  19.608  1.00  0.00    -0.041 Cl
ENDBRANCH  16  36
TORSDOF 11
ENDMDL