MODEL 5
REMARK VINA RESULT: -9.730937543      1.878      2.726
REMARK  10 active torsions:
REMARK  status: ('A' for Active; 'I' for Inactive)
REMARK    1  A    between atoms: C2_2  and  N1_3
REMARK    2  A    between atoms: C2_2  and  C3_7
REMARK    3  A    between atoms: C3_7  and  C4_8
REMARK       I    between atoms: C4_8  and  N2_10
REMARK    4  A    between atoms: N3_13  and  C7_14
REMARK    5  A    between atoms: C7_14  and  C8_15
REMARK    6  A    between atoms: C8_15  and  N4_16
REMARK       I    between atoms: N4_16  and  C9_18
REMARK    7  A    between atoms: C9_18  and  C10_20
REMARK    8  A    between atoms: C10_20  and  C11_21
REMARK    9  A    between atoms: C11_21  and  C12_22
REMARK   10  A    between atoms: C16_26  and  C17_27
ROOT
HETATM    1  C7  UNL     1       5.354   8.139  23.189  1.00  0.00     0.069 C
HETATM    2  C22 UNL     1       4.610   9.387  22.892  1.00  0.00     0.042 C
HETATM    3  C23 UNL     1       3.155   9.075  23.203  1.00  0.00     0.082 C
HETATM    4  C24 UNL     1       3.182   8.077  24.320  1.00  0.00     0.246 C
HETATM    5  F1  UNL     1       2.643   8.678  25.467  1.00  0.00    -0.206 F
HETATM    6  F2  UNL     1       2.406   6.961  24.092  1.00  0.00    -0.206 F
HETATM    7  C25 UNL     1       4.625   7.790  24.554  1.00  0.00     0.115 C
ENDROOT
BRANCH   1   8
HETATM    8  N3  UNL     1       6.672   8.426  23.585  1.00  0.00    -0.376 N
HETATM    9  C6  UNL     1       7.536   9.121  22.719  1.00  0.00     0.143 C
HETATM   10  C5  UNL     1       8.886   8.387  22.762  1.00  0.00     0.146 C
HETATM   11  N2  UNL     1       9.313   8.406  24.168  1.00  0.00    -0.346 N
HETATM   12  C4  UNL     1      10.626   8.802  24.485  1.00  0.00     0.222 C
HETATM   13  C27 UNL     1       8.368   8.014  25.201  1.00  0.00     0.170 C
HETATM   14  O1  UNL     1      11.416   9.132  23.583  1.00  0.00    -0.273 OA
HETATM   15  C26 UNL     1       6.975   8.557  24.956  1.00  0.00     0.079 C
BRANCH  12  16
HETATM   16  C3  UNL     1      11.070   8.827  25.891  1.00  0.00     0.135 C
BRANCH  16  17
HETATM   17  C2  UNL     1      11.549   7.454  26.345  1.00  0.00     0.188 C
HETATM   18  C1  UNL     1      13.046   7.429  26.266  1.00  0.00     0.040 C
BRANCH  17  19
HETATM   19  N1  UNL     1      11.163   7.183  27.705  1.00  0.00    -0.075 N
ATOM     20  H13 UNL     1      11.360   6.223  27.986  1.00  0.00     0.274 HD
ATOM     21  H12 UNL     1      11.763   7.653  28.384  1.00  0.00     0.274 HD
ATOM     22  H11 UNL     1      10.180   7.430  27.815  1.00  0.00     0.274 HD
ENDBRANCH  17  19
ENDBRANCH  16  17
ENDBRANCH  12  16
ENDBRANCH   1   8
BRANCH   1  23
HETATM   23  C8  UNL     1       5.143   6.931  22.383  1.00  0.00     0.095 C
BRANCH  23  24
HETATM   24  N4  UNL     1       5.778   6.693  21.166  1.00  0.00    -0.338 N
HETATM   25  C9  UNL     1       5.641   7.246  19.882  1.00  0.00     0.221 C
HETATM   26  O2  UNL     1       4.790   8.141  19.678  1.00  0.00    -0.273 OA
ATOM     27  H4  UNL     1       6.491   5.965  21.218  1.00  0.00     0.167 HD
BRANCH  25  28
HETATM   28  C10 UNL     1       6.488   6.798  18.733  1.00  0.00     0.107 C
BRANCH  28  29
HETATM   29  C11 UNL     1       7.775   6.155  19.160  1.00  0.00     0.043 C
BRANCH  29  30
HETATM   30  C12 UNL     1       7.769   4.720  18.768  1.00  0.00    -0.082 C
HETATM   31  C13 UNL     1       8.640   3.742  19.021  1.00  0.00    -0.018 C
HETATM   32  C14 UNL     1       8.144   2.548  18.395  1.00  0.00     0.023 A
HETATM   33  C15 UNL     1       7.214   1.528  18.631  1.00  0.00     0.025 A
HETATM   34  C16 UNL     1       6.657   2.796  18.800  1.00  0.00     0.021 A
HETATM   35  C21 UNL     1       6.628   4.062  17.988  1.00  0.00     0.049 C
BRANCH  34  36
HETATM   36  C17 UNL     1       6.361   3.169  20.245  1.00  0.00     0.269 C
HETATM   37  O3  UNL     1       6.387   2.070  21.092  1.00  0.00    -0.360 OA
HETATM   38  C18 UNL     1       5.198   1.771  21.697  1.00  0.00     0.173 C
HETATM   39  C19 UNL     1       4.013   1.785  20.757  1.00  0.00     0.053 C
HETATM   40  C20 UNL     1       4.140   2.874  19.714  1.00  0.00     0.173 C
HETATM   41  O4  UNL     1       5.095   3.772  20.198  1.00  0.00    -0.360 OA
ENDBRANCH  34  36
ENDBRANCH  29  30
ENDBRANCH  28  29
ENDBRANCH  25  28
ENDBRANCH  23  24
ENDBRANCH   1  23
TORSDOF 10
ENDMDL