MODEL 2
REMARK VINA RESULT: -7.861731427      1.721      2.116
REMARK  10 active torsions:
REMARK  status: ('A' for Active; 'I' for Inactive)
REMARK    1  A    between atoms: C2_2  and  C3_4
REMARK    2  A    between atoms: C4_6  and  N1_7
REMARK    3  A    between atoms: C4_6  and  C12_20
REMARK       I    between atoms: N1_7  and  C5_9
REMARK    4  A    between atoms: C5_9  and  C6_11
REMARK    5  A    between atoms: C12_20  and  O2_22
REMARK    6  A    between atoms: O2_22  and  C14_23
REMARK    7  A    between atoms: C14_23  and  C15_25
REMARK    8  A    between atoms: C15_25  and  N3_26
REMARK    9  A    between atoms: N3_26  and  S1_28
REMARK   10  A    between atoms: S1_28  and  N4_31
ROOT
HETATM    1  C3  UNL     1       5.756   8.018  18.175  1.00  0.00     0.055 C
HETATM    2 CL2  UNL     1       5.090   9.476  18.956  1.00  0.00    -0.085 Cl
HETATM    3  C4  UNL     1       6.502   7.209  18.871  1.00  0.00     0.060 C
ENDROOT
BRANCH   3   4
HETATM    4  N1  UNL     1       7.044   6.045  18.320  1.00  0.00    -0.325 N
HETATM    5  C5  UNL     1       6.484   4.780  18.119  1.00  0.00     0.253 C
HETATM    6  O1  UNL     1       5.336   4.461  18.418  1.00  0.00    -0.271 OA
ATOM      7  H1  UNL     1       8.012   6.133  18.012  1.00  0.00     0.168 HD
BRANCH   5   8
HETATM    8  C6  UNL     1       7.329   3.710  17.490  1.00  0.00     0.281 C
HETATM    9  N2  UNL     1       6.644   2.433  17.466  1.00  0.00    -0.058 N
HETATM   10  C7  UNL     1       7.443   1.510  18.247  1.00  0.00     0.187 C
ATOM     11  H22 UNL     1       5.676   2.492  17.781  1.00  0.00     0.278 HD
ATOM     12  H21 UNL     1       6.453   2.099  16.521  1.00  0.00     0.278 HD
HETATM   13  C8  UNL     1       7.364   1.929  19.677  1.00  0.00     0.033 C
HETATM   14  C11 UNL     1       8.853   2.009  17.881  1.00  0.00     0.040 C
HETATM   15  C9  UNL     1       8.137   3.239  19.731  1.00  0.00     0.009 C
HETATM   16  C10 UNL     1       8.574   3.461  18.303  1.00  0.00     0.028 C
ENDBRANCH   5   8
ENDBRANCH   3   4
BRANCH   3  17
HETATM   17  C12 UNL     1       6.746   7.569  20.308  1.00  0.00     0.179 C
HETATM   18  C13 UNL     1       5.875   6.776  21.259  1.00  0.00     0.047 C
BRANCH  17  19
HETATM   19  O2  UNL     1       8.109   7.572  20.649  1.00  0.00    -0.309 OA
BRANCH  19  20
HETATM   20  C14 UNL     1       8.891   8.702  20.768  1.00  0.00     0.273 C
HETATM   21  O3  UNL     1       9.015   9.433  19.753  1.00  0.00    -0.264 OA
BRANCH  20  22
HETATM   22  C15 UNL     1       9.566   9.040  22.065  1.00  0.00     0.219 C
BRANCH  22  23
HETATM   23  N3  UNL     1       8.650   9.701  22.965  1.00  0.00    -0.188 NA
HETATM   24  C16 UNL     1       9.048  11.069  23.182  1.00  0.00     0.131 C
BRANCH  23  25
HETATM   25  S1  UNL     1       8.284   8.823  24.378  1.00  0.00     0.307 S
HETATM   26  O4  UNL     1       7.846   7.424  23.957  1.00  0.00    -0.188 OA
HETATM   27  O5  UNL     1       7.079   9.442  25.076  1.00  0.00    -0.188 OA
BRANCH  25  28
HETATM   28  N4  UNL     1       9.526   8.657  25.495  1.00  0.00    -0.257 N
HETATM   29  C17 UNL     1       9.289   7.971  26.692  1.00  0.00     0.082 C
HETATM   30  C18 UNL     1      10.324   6.932  27.054  1.00  0.00     0.046 C
HETATM   31  C19 UNL     1      11.673   7.626  26.989  1.00  0.00     0.010 C
HETATM   32  C20 UNL     1      11.896   7.963  25.518  1.00  0.00     0.046 C
HETATM   33  C21 UNL     1      10.840   8.952  25.096  1.00  0.00     0.082 C
ENDBRANCH  25  28
ENDBRANCH  23  25
ENDBRANCH  22  23
ENDBRANCH  20  22
ENDBRANCH  19  20
ENDBRANCH  17  19
ENDBRANCH   3  17
BRANCH   1  34
HETATM   34  C2  UNL     1       5.380   7.855  16.769  1.00  0.00     0.125 C
HETATM   35  C1  UNL     1       3.869   7.543  16.673  1.00  0.00     0.032 C
HETATM   36 CL1  UNL     1       5.562   9.403  15.872  1.00  0.00    -0.119 Cl
ENDBRANCH   1  34
TORSDOF 10
ENDMDL