MODEL 2
REMARK VINA RESULT: -8.469228189      4.026      8.966
REMARK  8 active torsions:
REMARK  status: ('A' for Active; 'I' for Inactive)
REMARK    1  A    between atoms: O1_2  and  C2_3
REMARK    2  A    between atoms: C8_10  and  O2_11
REMARK    3  A    between atoms: C10_15  and  C11_16
REMARK    4  A    between atoms: C15_22  and  C16_23
REMARK    5  A    between atoms: C16_23  and  N1_24
REMARK    6  A    between atoms: N1_24  and  S1_26
REMARK    7  A    between atoms: S1_26  and  C17_29
REMARK    8  A    between atoms: C17_29  and  C18_30
ROOT
HETATM    1  C2  UNL     1       5.451   0.847  16.652  1.00  0.00     0.167 C
HETATM    2  C3  UNL     1       5.141   1.498  18.000  1.00  0.00     0.080 C
HETATM    3  C4  UNL     1       6.459   2.071  18.503  1.00  0.00     0.122 C
HETATM    4  F1  UNL     1       6.671   1.804  19.831  1.00  0.00    -0.242 F
HETATM    5  C5  UNL     1       6.509   3.521  18.271  1.00  0.00     0.062 C
HETATM    6  C6  UNL     1       5.933   4.022  16.977  1.00  0.00     0.132 C
HETATM    7  C7  UNL     1       6.901   3.740  15.901  1.00  0.00     0.067 C
HETATM    8  C8  UNL     1       7.050   2.355  15.438  1.00  0.00     0.163 C
HETATM    9  C9  UNL     1       6.884   1.232  16.336  1.00  0.00     0.165 C
HETATM   10  F2  UNL     1       7.392   0.099  15.693  1.00  0.00    -0.237 F
HETATM   11  C10 UNL     1       7.417   1.246  17.701  1.00  0.00     0.110 C
HETATM   12  O3  UNL     1       5.950   5.406  17.224  1.00  0.00    -0.379 OA
HETATM   13  C14 UNL     1       5.559   5.602  18.528  1.00  0.00     0.132 C
HETATM   14  C15 UNL     1       6.598   6.333  19.292  1.00  0.00     0.033 C
HETATM   15  C22 UNL     1       6.258   5.967  20.718  1.00  0.00     0.009 C
HETATM   16  C23 UNL     1       6.158   4.449  20.585  1.00  0.00     0.008 C
HETATM   17  C24 UNL     1       5.573   4.242  19.224  1.00  0.00     0.025 C
ENDROOT
BRANCH  14  18
HETATM   18  C16 UNL     1       6.780   7.771  19.062  1.00  0.00     0.139 C
BRANCH  18  19
HETATM   19  N1  UNL     1       6.922   8.550  20.254  1.00  0.00    -0.319 N
ATOM     20  H1  UNL     1       6.242   8.597  21.013  1.00  0.00     0.172 HD
BRANCH  19  21
HETATM   21  S1  UNL     1       8.429   9.398  20.203  1.00  0.00     0.227 S
HETATM   22  O4  UNL     1       9.205   8.723  19.040  1.00  0.00    -0.206 OA
HETATM   23  O5  UNL     1       8.351  10.817  19.823  1.00  0.00    -0.206 OA
BRANCH  21  24
HETATM   24  C17 UNL     1       9.432   9.081  21.619  1.00  0.00     0.176 C
BRANCH  24  25
HETATM   25  C18 UNL     1       8.695   9.130  22.916  1.00  0.00     0.013 C
HETATM   26  C19 UNL     1       7.923  10.435  23.025  1.00  0.00     0.020 C
HETATM   27  C20 UNL     1       9.408   8.838  24.185  1.00  0.00     0.179 C
HETATM   28  O6  UNL     1       8.797   7.597  24.224  1.00  0.00    -0.389 OA
HETATM   29  C21 UNL     1       7.843   7.963  23.294  1.00  0.00     0.179 C
ENDBRANCH  24  25
ENDBRANCH  21  24
ENDBRANCH  19  21
ENDBRANCH  18  19
ENDBRANCH  14  18
BRANCH   8  30
HETATM   30  O2  UNL     1       6.176   2.187  14.343  1.00  0.00    -0.392 OA
ATOM     31  H2  UNL     1       5.489   1.594  14.622  1.00  0.00     0.210 HD
ENDBRANCH   8  30
BRANCH  11  32
HETATM   32  C11 UNL     1       8.840   1.350  17.982  1.00  0.00     0.106 C
HETATM   33  C12 UNL     1       9.720   0.802  16.852  1.00  0.00     0.052 C
HETATM   34  C13 UNL     1       9.411   2.699  18.275  1.00  0.00     0.052 C
HETATM   35  F3  UNL     1       9.260   0.540  19.056  1.00  0.00    -0.243 F
ENDBRANCH  11  32
BRANCH   1  36
HETATM   36  O1  UNL     1       4.536   1.163  15.692  1.00  0.00    -0.387 OA
HETATM   37  C1  UNL     1       3.322   1.408  16.292  1.00  0.00     0.202 C
ENDBRANCH   1  36
TORSDOF 8
ENDMDL