MODEL 3
REMARK VINA RESULT: -8.481476151      1.541      1.625
REMARK  8 active torsions:
REMARK  status: ('A' for Active; 'I' for Inactive)
REMARK       I    between atoms: C2_2  and  N1_4
REMARK    1  A    between atoms: N1_4  and  C3_6
REMARK    2  A    between atoms: C3_6  and  N2_7
REMARK    3  A    between atoms: C3_6  and  C14_26
REMARK       I    between atoms: N2_7  and  C4_9
REMARK    4  A    between atoms: C4_9  and  C5_11
REMARK    5  A    between atoms: C6_12  and  S1_13
REMARK    6  A    between atoms: S1_13  and  C7_14
REMARK    7  A    between atoms: C7_14  and  C8_15
REMARK    8  A    between atoms: N4_29  and  C17_30
ROOT
HETATM    1  N2  UNL     1       7.300   6.718  20.469  1.00  0.00    -0.339 N
ATOM      2  H2  UNL     1       7.679   6.856  21.406  1.00  0.00     0.164 HD
HETATM    3  C4  UNL     1       7.570   7.760  19.604  1.00  0.00     0.229 C
HETATM    4  O2  UNL     1       7.192   7.761  18.411  1.00  0.00    -0.273 OA
ENDROOT
BRANCH   1   5
HETATM    5  C3  UNL     1       6.590   5.475  20.311  1.00  0.00     0.190 C
BRANCH   5   6
HETATM    6  N1  UNL     1       5.785   5.276  21.500  1.00  0.00    -0.340 N
HETATM    7  C2  UNL     1       4.764   6.126  21.935  1.00  0.00     0.215 C
HETATM    8  C1  UNL     1       3.998   5.836  23.164  1.00  0.00     0.117 C
HETATM    9  O1  UNL     1       4.478   7.155  21.286  1.00  0.00    -0.274 OA
ATOM     10  H1  UNL     1       5.979   4.448  22.064  1.00  0.00     0.164 HD
ENDBRANCH   5   6
BRANCH   5  11
HETATM   11  C14 UNL     1       7.436   4.271  20.032  1.00  0.00     0.031 C
HETATM   12  C15 UNL     1       6.486   3.060  20.079  1.00  0.00     0.038 C
HETATM   13  C16 UNL     1       7.024   1.942  19.215  1.00  0.00     0.273 C
HETATM   14  N4  UNL     1       8.441   1.965  19.099  1.00  0.00     0.093 N
HETATM   15  C21 UNL     1       8.945   3.192  18.499  1.00  0.00     0.273 C
HETATM   16  C22 UNL     1       7.881   4.264  18.569  1.00  0.00     0.038 C
BRANCH  14  17
HETATM   17  C17 UNL     1       9.032   0.865  18.436  1.00  0.00     0.223 C
HETATM   18  C18 UNL     1       8.427   0.574  17.091  1.00  0.00     0.036 C
HETATM   19  C19 UNL     1       9.835   0.364  16.551  1.00  0.00     0.004 C
HETATM   20  C20 UNL     1      10.376   1.071  17.776  1.00  0.00     0.036 C
ENDBRANCH  14  17
ENDBRANCH   5  11
ENDBRANCH   1   5
BRANCH   3  21
HETATM   21  C5  UNL     1       8.336   8.981  20.012  1.00  0.00     0.149 C
HETATM   22  C6  UNL     1       7.832  10.250  19.433  1.00  0.00     0.156 C
HETATM   23  C9  UNL     1       8.408  11.283  20.362  1.00  0.00     0.236 C
HETATM   24  O3  UNL     1       8.696  12.450  20.018  1.00  0.00    -0.272 OA
HETATM   25  N3  UNL     1       8.524  10.637  21.605  1.00  0.00    -0.323 N
HETATM   26  C10 UNL     1       8.730  11.250  22.931  1.00  0.00     0.130 C
HETATM   27  C13 UNL     1       8.428   9.198  21.476  1.00  0.00     0.240 C
HETATM   28  C11 UNL     1       8.849  10.030  23.855  1.00  0.00     0.046 C
HETATM   29  C12 UNL     1       9.902   9.132  23.254  1.00  0.00     0.172 C
HETATM   30  O4  UNL     1       9.556   8.577  22.037  1.00  0.00    -0.366 OA
BRANCH  22  31
HETATM   31  S1  UNL     1       6.068  10.414  19.490  1.00  0.00    -0.151 SA
BRANCH  31  32
HETATM   32  C7  UNL     1       5.440  11.793  20.446  1.00  0.00     0.110 C
BRANCH  32  33
HETATM   33  C8  UNL     1       4.743  12.795  19.524  1.00  0.00     0.187 C
HETATM   34 CL1  UNL     1       5.318  12.476  17.876  1.00  0.00    -0.107 Cl
HETATM   35 CL2  UNL     1       5.032  14.464  19.969  1.00  0.00    -0.107 Cl
ENDBRANCH  32  33
ENDBRANCH  31  32
ENDBRANCH  22  31
ENDBRANCH   3  21
TORSDOF 8
ENDMDL