MODEL 2
REMARK VINA RESULT: -7.176700601      1.169      1.645
REMARK  9 active torsions:
REMARK  status: ('A' for Active; 'I' for Inactive)
REMARK       I    between atoms: N1_2  and  C2_3
REMARK    1  A    between atoms: N1_2  and  C12_15
REMARK    2  A    between atoms: C2_3  and  C3_5
REMARK    3  A    between atoms: C7_9  and  C9_11
REMARK    4  A    between atoms: C12_15  and  C13_16
REMARK    5  A    between atoms: C12_15  and  C18_24
REMARK    6  A    between atoms: C13_16  and  C14_17
REMARK    7  A    between atoms: C14_17  and  S1_18
REMARK    8  A    between atoms: S1_18  and  C15_21
REMARK       I    between atoms: C18_24  and  N2_26
REMARK    9  A    between atoms: C22_31  and  C23_32
ROOT
HETATM    1  C12 UNL     1       6.469   8.270  19.351  1.00  0.00     0.179 C
ENDROOT
BRANCH   1   2
HETATM    2  N1  UNL     1       6.243   6.952  19.857  1.00  0.00    -0.343 N
HETATM    3  C1  UNL     1       5.157   6.757  20.841  1.00  0.00     0.153 C
HETATM    4  C2  UNL     1       6.955   5.776  19.493  1.00  0.00     0.226 C
HETATM    5  O1  UNL     1       7.890   5.915  18.685  1.00  0.00    -0.273 OA
BRANCH   4   6
HETATM    6  C3  UNL     1       6.636   4.453  20.017  1.00  0.00     0.097 A
HETATM    7  C4  UNL     1       5.456   3.646  19.581  1.00  0.00    -0.025 A
HETATM    8  C5  UNL     1       4.590   3.006  20.694  1.00  0.00     0.016 C
HETATM    9  C6  UNL     1       4.599   4.007  18.417  1.00  0.00     0.016 C
HETATM   10  C7  UNL     1       6.858   3.148  19.452  1.00  0.00    -0.003 A
HETATM   11  C8  UNL     1       7.176   2.052  20.528  1.00  0.00     0.019 C
BRANCH  10  12
HETATM   12  C9  UNL     1       7.486   2.736  18.182  1.00  0.00     0.038 C
HETATM   13  C10 UNL     1       7.212   1.226  17.985  1.00  0.00     0.033 C
HETATM   14  C11 UNL     1       9.015   2.806  18.352  1.00  0.00     0.033 C
HETATM   15 CL1  UNL     1       7.123   3.617  16.726  1.00  0.00    -0.119 Cl
ENDBRANCH  10  12
ENDBRANCH   4   6
ENDBRANCH   1   2
BRANCH   1  16
HETATM   16  C13 UNL     1       5.258   9.134  19.498  1.00  0.00     0.050 C
BRANCH  16  17
HETATM   17  C14 UNL     1       4.978   9.700  18.092  1.00  0.00     0.143 C
BRANCH  17  18
HETATM   18  S1  UNL     1       4.806  11.456  18.164  1.00  0.00     0.148 S
HETATM   19  O2  UNL     1       3.369  11.792  17.876  1.00  0.00    -0.227 OA
HETATM   20  O3  UNL     1       5.640  12.101  17.085  1.00  0.00    -0.227 OA
BRANCH  18  21
HETATM   21  C15 UNL     1       5.254  12.091  19.751  1.00  0.00     0.108 A
HETATM   22  C16 UNL     1       6.697  12.476  19.907  1.00  0.00     0.021 A
HETATM   23  C17 UNL     1       5.640  13.498  19.853  1.00  0.00     0.021 A
ENDBRANCH  18  21
ENDBRANCH  17  18
ENDBRANCH  16  17
ENDBRANCH   1  16
BRANCH   1  24
HETATM   24  C18 UNL     1       7.717   8.880  19.874  1.00  0.00     0.243 C
HETATM   25  O4  UNL     1       8.640   9.101  19.005  1.00  0.00    -0.271 OA
HETATM   26  N2  UNL     1       7.995   9.240  21.196  1.00  0.00    -0.335 N
HETATM   27  C19 UNL     1       9.280   9.845  21.619  1.00  0.00     0.164 C
HETATM   28  C22 UNL     1       7.236   9.183  22.426  1.00  0.00     0.179 C
HETATM   29  C20 UNL     1       8.961  10.733  22.773  1.00  0.00     0.190 C
HETATM   30  F1  UNL     1       9.645  10.373  23.919  1.00  0.00    -0.248 F
HETATM   31  C21 UNL     1       7.461  10.601  22.950  1.00  0.00     0.073 C
BRANCH  28  32
HETATM   32  C23 UNL     1       7.765   8.200  23.395  1.00  0.00     0.254 C
HETATM   33  N3  UNL     1       7.535   8.338  24.779  1.00  0.00    -0.060 NA
HETATM   34  O5  UNL     1       8.431   7.226  22.980  1.00  0.00    -0.275 OA
ENDBRANCH  28  32
ENDBRANCH   1  24
TORSDOF 9
ENDMDL