MODEL 3
REMARK VINA RESULT: -8.135874263      1.688      2.899
REMARK  10 active torsions:
REMARK  status: ('A' for Active; 'I' for Inactive)
REMARK    1  A    between atoms: C4_4  and  O1_5
REMARK    2  A    between atoms: O1_5  and  C5_6
REMARK       I    between atoms: N1_11  and  C10_12
REMARK    3  A    between atoms: C10_12  and  O3_14
REMARK    4  A    between atoms: O3_14  and  C11_15
REMARK    5  A    between atoms: C11_15  and  C12_16
REMARK    6  A    between atoms: C20_29  and  N4_30
REMARK    7  A    between atoms: N4_30  and  C21_32
REMARK    8  A    between atoms: C21_32  and  C22_33
REMARK    9  A    between atoms: C22_33  and  C23_34
REMARK   10  A    between atoms: C23_34  and  N5_35
ROOT
HETATM    1  C1  UNL     1       9.027   3.294  17.905  1.00  0.00     0.049 C
HETATM    2  C2  UNL     1       7.733   3.973  17.989  1.00  0.00    -0.044 A
HETATM    3  C3  UNL     1       7.415   4.832  19.032  1.00  0.00     0.044 A
HETATM    4  C4  UNL     1       6.233   5.507  19.182  1.00  0.00     0.072 A
HETATM    5  C15 UNL     1       5.276   5.323  18.222  1.00  0.00     0.067 A
HETATM    6  C16 UNL     1       5.535   4.471  17.146  1.00  0.00     0.047 A
HETATM    7  N2  UNL     1       4.534   4.345  16.228  1.00  0.00    -0.364 N
ATOM      8  H2  UNL     1       3.655   4.848  16.342  1.00  0.00     0.165 HD
HETATM    9  C17 UNL     1       4.730   3.551  15.179  1.00  0.00     0.113 A
HETATM   10  C18 UNL     1       5.902   2.857  14.990  1.00  0.00     0.087 A
HETATM   11  C19 UNL     1       6.054   2.017  13.823  1.00  0.00     0.103 C
HETATM   12  N3  UNL     1       6.143   1.363  12.886  1.00  0.00    -0.191 NA
HETATM   13  C20 UNL     1       6.925   2.979  15.919  1.00  0.00     0.067 A
HETATM   14  C29 UNL     1       6.723   3.817  17.031  1.00  0.00     0.025 A
ENDROOT
BRANCH  13  15
HETATM   15  N4  UNL     1       8.002   2.401  15.833  1.00  0.00    -0.367 N
ATOM     16  H4  UNL     1       8.564   2.730  16.617  1.00  0.00     0.165 HD
BRANCH  15  17
HETATM   17  C21 UNL     1       8.787   1.508  15.149  1.00  0.00     0.066 C
BRANCH  17  18
HETATM   18  C22 UNL     1       8.663   0.055  15.577  1.00  0.00     0.089 C
BRANCH  18  19
HETATM   19  C23 UNL     1       9.990  -0.669  15.585  1.00  0.00     0.073 C
BRANCH  19  20
HETATM   20  N5  UNL     1       9.967  -1.986  15.090  1.00  0.00    -0.351 N
HETATM   21  C24 UNL     1       8.724  -2.499  14.683  1.00  0.00     0.098 C
HETATM   22  C25 UNL     1       8.706  -3.770  13.922  1.00  0.00     0.317 C
HETATM   23  N6  UNL     1       9.965  -4.232  13.423  1.00  0.00     0.093 N
HETATM   24  C26 UNL     1      10.204  -3.722  12.102  1.00  0.00     0.310 C
HETATM   25  C27 UNL     1      11.056  -4.042  14.324  1.00  0.00     0.317 C
HETATM   26  C28 UNL     1      11.157  -2.596  14.677  1.00  0.00     0.098 C
ENDBRANCH  19  20
ENDBRANCH  18  19
ENDBRANCH  17  18
ENDBRANCH  15  17
ENDBRANCH  13  15
BRANCH   4  27
HETATM   27  O1  UNL     1       6.011   6.359  20.280  1.00  0.00    -0.338 OA
BRANCH  27  28
HETATM   28  C5  UNL     1       6.758   7.506  20.559  1.00  0.00     0.084 C
HETATM   29  C6  UNL     1       8.171   7.473  20.059  1.00  0.00     0.041 C
HETATM   30  C7  UNL     1       8.551   8.893  19.691  1.00  0.00     0.009 C
HETATM   31  C8  UNL     1       7.332   9.717  19.988  1.00  0.00     0.007 C
HETATM   32  C9  UNL     1       7.325  10.166  21.424  1.00  0.00     0.133 C
HETATM   33  C14 UNL     1       6.203   8.712  19.844  1.00  0.00     0.046 C
HETATM   34  N1  UNL     1       7.583   8.995  22.255  1.00  0.00    -0.325 N
HETATM   35  C10 UNL     1       8.596   9.058  23.240  1.00  0.00     0.363 C
HETATM   36  C13 UNL     1       6.779   7.804  22.037  1.00  0.00     0.166 C
HETATM   37  O2  UNL     1       9.251  10.120  23.367  1.00  0.00    -0.238 OA
BRANCH  35  38
HETATM   38  O3  UNL     1       8.899   8.000  24.072  1.00  0.00    -0.298 OA
BRANCH  38  39
HETATM   39  C11 UNL     1       9.132   8.171  25.467  1.00  0.00     0.251 C
BRANCH  39  40
HETATM   40  C12 UNL     1      10.510   7.730  25.841  1.00  0.00     0.377 C
HETATM   41  F1  UNL     1      11.421   8.714  25.479  1.00  0.00    -0.212 F
HETATM   42  F2  UNL     1      10.598   7.527  27.201  1.00  0.00    -0.212 F
ENDBRANCH  39  40
ENDBRANCH  38  39
ENDBRANCH  35  38
ENDBRANCH  27  28
ENDBRANCH   4  27
TORSDOF 10
ENDMDL