MODEL 2
REMARK VINA RESULT: -10.326842013      1.830      2.347
REMARK  9 active torsions:
REMARK  status: ('A' for Active; 'I' for Inactive)
REMARK    1  A    between atoms: C1_2  and  C2_3
REMARK       I    between atoms: C1_2  and  N1_10
REMARK    2  A    between atoms: C2_3  and  C3_4
REMARK    3  A    between atoms: N1_10  and  C9_12
REMARK    4  A    between atoms: C9_12  and  C10_13
REMARK    5  A    between atoms: N2_17  and  C13_18
REMARK    6  A    between atoms: C13_18  and  O2_19
REMARK    7  A    between atoms: C13_18  and  C14_21
REMARK    8  A    between atoms: N3_30  and  C23_31
REMARK    9  A    between atoms: C23_31  and  C24_32
ROOT
HETATM    1  C13 UNL     1       3.578   6.483  21.098  1.00  0.00     0.149 C
ENDROOT
BRANCH   1   2
HETATM    2  N2  UNL     1       4.091   5.226  20.869  1.00  0.00    -0.360 N
HETATM    3  C12 UNL     1       5.420   4.921  20.461  1.00  0.00     0.128 C
HETATM    4  C11 UNL     1       5.308   4.303  19.079  1.00  0.00     0.068 C
HETATM    5  C10 UNL     1       4.448   3.079  19.060  1.00  0.00     0.152 C
HETATM    6  F1  UNL     1       5.245   2.015  19.496  1.00  0.00    -0.238 F
HETATM    7  C30 UNL     1       3.195   3.167  19.851  1.00  0.00     0.229 C
HETATM    8  C29 UNL     1       3.237   4.046  21.045  1.00  0.00     0.165 C
HETATM    9  F2  UNL     1       2.085   3.525  19.092  1.00  0.00    -0.244 F
BRANCH   5  10
HETATM   10  C9  UNL     1       4.107   2.783  17.614  1.00  0.00     0.169 C
BRANCH  10  11
HETATM   11  N1  UNL     1       5.158   2.068  16.945  1.00  0.00    -0.358 N
HETATM   12  C1  UNL     1       5.912   2.716  15.935  1.00  0.00     0.217 C
HETATM   13  O1  UNL     1       5.634   3.909  15.653  1.00  0.00    -0.274 OA
ATOM     14  H1  UNL     1       5.361   1.100  17.195  1.00  0.00     0.162 HD
BRANCH  12  15
HETATM   15  C2  UNL     1       6.987   2.012  15.238  1.00  0.00     0.107 C
BRANCH  15  16
HETATM   16  C3  UNL     1       7.961   1.279  16.097  1.00  0.00    -0.006 C
HETATM   17  C4  UNL     1       8.600   2.068  17.183  1.00  0.00     0.005 C
HETATM   18  C5  UNL     1       9.470   1.127  17.993  1.00  0.00     0.000 C
HETATM   19  C6  UNL     1      10.481   0.391  17.177  1.00  0.00     0.000 C
HETATM   20  C7  UNL     1       9.931  -0.179  15.895  1.00  0.00     0.000 C
HETATM   21  C8  UNL     1       9.088   0.817  15.162  1.00  0.00     0.005 C
ENDBRANCH  15  16
ENDBRANCH  12  15
ENDBRANCH  10  11
ENDBRANCH   5  10
ENDBRANCH   1   2
BRANCH   1  22
HETATM   22  O2  UNL     1       2.410   6.722  20.554  1.00  0.00    -0.347 OA
ATOM     23  H2  UNL     1       2.294   6.385  19.674  1.00  0.00     0.219 HD
ENDBRANCH   1  22
BRANCH   1  24
HETATM   24  C14 UNL     1       4.094   7.625  21.843  1.00  0.00     0.126 C
HETATM   25  C15 UNL     1       2.906   8.516  22.258  1.00  0.00     0.047 C
HETATM   26  C16 UNL     1       3.325   9.688  23.068  1.00  0.00     0.004 C
HETATM   27  C17 UNL     1       4.508   9.505  23.935  1.00  0.00     0.008 C
HETATM   28  C18 UNL     1       5.469   8.448  23.509  1.00  0.00     0.024 C
HETATM   29  C19 UNL     1       4.669   7.190  23.207  1.00  0.00     0.054 C
HETATM   30  C20 UNL     1       6.037   8.722  22.132  1.00  0.00     0.069 C
HETATM   31  C21 UNL     1       7.161   7.759  21.836  1.00  0.00     0.069 C
HETATM   32  C28 UNL     1       6.542  10.120  21.977  1.00  0.00     0.069 C
HETATM   33  O4  UNL     1       5.001   8.439  21.271  1.00  0.00    -0.360 OA
HETATM   34  C22 UNL     1       8.530   8.405  22.074  1.00  0.00     0.276 C
HETATM   35  N3  UNL     1       8.397   9.230  23.230  1.00  0.00     0.094 N
HETATM   36  C27 UNL     1       7.682  10.415  22.893  1.00  0.00     0.276 C
BRANCH  35  37
HETATM   37  C23 UNL     1       9.578   9.406  23.991  1.00  0.00     0.339 C
BRANCH  37  38
HETATM   38  C24 UNL     1       9.671   8.533  25.178  1.00  0.00     0.106 A
HETATM   39  C25 UNL     1      10.880   7.937  25.549  1.00  0.00     0.055 A
HETATM   40  C26 UNL     1      10.646   7.201  26.670  1.00  0.00     0.117 A
HETATM   41  N4  UNL     1       9.335   7.359  26.953  1.00  0.00    -0.272 N
HETATM   42  O3  UNL     1       8.802   8.147  26.051  1.00  0.00    -0.241 OA
ATOM     43  H4  UNL     1       8.842   6.936  27.739  1.00  0.00     0.193 HD
ENDBRANCH  37  38
ENDBRANCH  35  37
ENDBRANCH   1  24
TORSDOF 9
ENDMDL