MODEL 2
REMARK VINA RESULT: -7.565218221      1.058      1.530
REMARK  8 active torsions:
REMARK  status: ('A' for Active; 'I' for Inactive)
REMARK    1  A    between atoms: O1_2  and  C2_3
REMARK    2  A    between atoms: C8_10  and  N1_11
REMARK    3  A    between atoms: C10_13  and  C11_14
REMARK    4  A    between atoms: C11_14  and  C12_15
REMARK    5  A    between atoms: C12_15  and  N2_16
REMARK    6  A    between atoms: C15_19  and  N3_20
REMARK    7  A    between atoms: C24_32  and  O2_33
REMARK    8  A    between atoms: C25_35  and  C26_36
ROOT
HETATM    1  N1  UNL     1       5.396   3.366  20.552  1.00  0.00    -0.276 N
HETATM    2  C9  UNL     1       5.095   4.675  20.518  1.00  0.00     0.135 A
HETATM    3  C10 UNL     1       4.060   4.928  21.390  1.00  0.00     0.042 A
HETATM    4  N4  UNL     1       3.760   3.735  21.936  1.00  0.00    -0.287 N
ATOM      5  H4  UNL     1       3.031   3.565  22.630  1.00  0.00     0.184 HD
HETATM    6  N5  UNL     1       4.571   2.812  21.421  1.00  0.00    -0.020 NA
ENDROOT
BRANCH   1   7
HETATM    7  C8  UNL     1       6.450   2.742  19.754  1.00  0.00     0.141 C
HETATM    8  C5  UNL     1       5.900   2.345  18.452  1.00  0.00    -0.025 A
HETATM    9  C4  UNL     1       6.709   2.210  17.349  1.00  0.00    -0.038 A
HETATM   10  C6  UNL     1       4.557   2.094  18.310  1.00  0.00     0.032 A
HETATM   11  C3  UNL     1       6.191   1.835  16.133  1.00  0.00     0.046 A
HETATM   12  C25 UNL     1       8.155   2.484  17.496  1.00  0.00     0.077 C
HETATM   13  C2  UNL     1       4.859   1.582  15.975  1.00  0.00     0.086 A
HETATM   14  C7  UNL     1       4.030   1.715  17.080  1.00  0.00     0.044 A
HETATM   15 BR1  UNL     1       2.180   1.355  16.828  1.00  0.00    -0.048 Br
HETATM   16  C24 UNL     1       8.306   3.705  18.340  1.00  0.00     0.131 C
HETATM   17  C23 UNL     1       7.655   3.629  19.677  1.00  0.00     0.064 C
BRANCH  13  18
HETATM   18  O1  UNL     1       4.372   1.208  14.736  1.00  0.00    -0.355 OA
HETATM   19  C1  UNL     1       5.125   0.340  13.934  1.00  0.00     0.210 C
ENDBRANCH  13  18
BRANCH  12  20
HETATM   20  C26 UNL     1       8.912   1.312  18.046  1.00  0.00     0.234 C
HETATM   21  F1  UNL     1      10.261   1.492  17.742  1.00  0.00    -0.255 F
ENDBRANCH  12  20
BRANCH  16  22
HETATM   22  O2  UNL     1       7.829   4.819  17.639  1.00  0.00    -0.395 OA
ATOM     23  H2  UNL     1       7.490   4.550  16.795  1.00  0.00     0.210 HD
ENDBRANCH  16  22
ENDBRANCH   1   7
BRANCH   3  24
HETATM   24  C11 UNL     1       3.434   6.253  21.644  1.00  0.00     0.090 C
BRANCH  24  25
HETATM   25  C12 UNL     1       4.277   6.972  22.636  1.00  0.00     0.280 C
BRANCH  25  26
HETATM   26  N2  UNL     1       5.009   8.071  22.137  1.00  0.00     0.102 N
HETATM   27  C13 UNL     1       4.756   9.342  22.757  1.00  0.00     0.248 C
HETATM   28  C14 UNL     1       5.208  10.354  21.768  1.00  0.00     0.041 C
HETATM   29  C22 UNL     1       5.655   9.450  23.962  1.00  0.00     0.042 C
HETATM   30  C15 UNL     1       6.361  10.166  21.149  1.00  0.00     0.113 C
HETATM   31  C19 UNL     1       7.161   8.959  21.466  1.00  0.00     0.100 C
HETATM   32  C20 UNL     1       6.434   7.945  22.298  1.00  0.00     0.229 C
HETATM   33  C21 UNL     1       6.620   8.289  23.772  1.00  0.00     0.038 C
BRANCH  30  34
HETATM   34  N3  UNL     1       6.841  11.129  20.176  1.00  0.00    -0.052 N
HETATM   35  C16 UNL     1       7.206  12.360  20.808  1.00  0.00     0.278 C
HETATM   36  C17 UNL     1       7.964  10.505  19.478  1.00  0.00     0.278 C
HETATM   37  C18 UNL     1       5.824  11.372  19.156  1.00  0.00     0.278 C
ENDBRANCH  30  34
ENDBRANCH  25  26
ENDBRANCH  24  25
ENDBRANCH   3  24
TORSDOF 8
ENDMDL