MODEL 4
REMARK VINA RESULT: -7.947329510      2.172      2.549
REMARK  8 active torsions:
REMARK  status: ('A' for Active; 'I' for Inactive)
REMARK    1  A    between atoms: N2_5  and  C4_6
REMARK    2  A    between atoms: C4_6  and  C5_7
REMARK    3  A    between atoms: C5_7  and  C6_8
REMARK    4  A    between atoms: C9_12  and  N3_13
REMARK       I    between atoms: N3_13  and  C10_15
REMARK    5  A    between atoms: C10_15  and  C11_17
REMARK    6  A    between atoms: N6_23  and  C13_24
REMARK    7  A    between atoms: C13_24  and  C14_25
REMARK    8  A    between atoms: C14_25  and  C15_26
ROOT
HETATM    1  C6  UNL     1       5.569   8.462  22.171  1.00  0.00    -0.054 A
HETATM    2  C7  UNL     1       6.128   8.326  20.917  1.00  0.00     0.028 A
HETATM    3  C8  UNL     1       5.744   7.342  20.034  1.00  0.00     0.039 A
HETATM    4 BR1  UNL     1       6.550   7.200  18.312  1.00  0.00    -0.049 Br
HETATM    5  C9  UNL     1       4.766   6.438  20.383  1.00  0.00     0.070 A
HETATM    6  C19 UNL     1       4.189   6.550  21.633  1.00  0.00     0.039 A
HETATM    7 BR2  UNL     1       2.842   5.296  22.098  1.00  0.00    -0.049 Br
HETATM    8  C20 UNL     1       4.589   7.556  22.519  1.00  0.00     0.028 A
ENDROOT
BRANCH   5   9
HETATM    9  N3  UNL     1       4.397   5.439  19.460  1.00  0.00    -0.318 N
HETATM   10  C10 UNL     1       5.011   4.156  19.408  1.00  0.00     0.291 C
HETATM   11  O1  UNL     1       5.919   3.907  20.221  1.00  0.00    -0.264 OA
ATOM     12  H3  UNL     1       3.651   5.647  18.795  1.00  0.00     0.169 HD
BRANCH  10  13
HETATM   13  C11 UNL     1       4.568   3.183  18.423  1.00  0.00     0.192 A
HETATM   14  N4  UNL     1       3.440   2.416  18.504  1.00  0.00    -0.332 N
HETATM   15  C12 UNL     1       3.341   1.624  17.429  1.00  0.00     0.199 A
ATOM     16  H4  UNL     1       2.770   2.443  19.273  1.00  0.00     0.168 HD
HETATM   17  N5  UNL     1       4.404   1.890  16.668  1.00  0.00    -0.292 N
HETATM   18  N6  UNL     1       5.152   2.840  17.273  1.00  0.00    -0.271 N
ATOM     19  H5  UNL     1       4.618   1.449  15.773  1.00  0.00     0.188 HD
BRANCH  18  20
HETATM   20  C13 UNL     1       6.388   3.361  16.749  1.00  0.00     0.152 C
BRANCH  20  21
HETATM   21  C14 UNL     1       7.485   2.408  16.491  1.00  0.00     0.030 C
BRANCH  21  22
HETATM   22  C15 UNL     1       8.525   2.258  17.556  1.00  0.00    -0.050 C
HETATM   23  C16 UNL     1       7.976   1.600  18.809  1.00  0.00     0.014 C
HETATM   24  C17 UNL     1       9.837   1.706  17.142  1.00  0.00     0.014 C
HETATM   25  C18 UNL     1       8.827   3.724  18.020  1.00  0.00     0.014 C
ENDBRANCH  21  22
ENDBRANCH  20  21
ENDBRANCH  18  20
ENDBRANCH  10  13
ENDBRANCH   5   9
BRANCH   1  26
HETATM   26  C5  UNL     1       5.975   9.516  23.124  1.00  0.00     0.069 C
BRANCH  26  27
HETATM   27  C4  UNL     1       7.350  10.066  22.813  1.00  0.00     0.277 C
BRANCH  27  28
HETATM   28  N2  UNL     1       8.367   9.556  23.667  1.00  0.00     0.092 N
HETATM   29  C3  UNL     1       7.887   8.796  24.776  1.00  0.00     0.302 C
HETATM   30  C2  UNL     1       9.033   8.160  25.525  1.00  0.00     0.302 C
HETATM   31  N1  UNL     1      10.294   8.804  25.310  1.00  0.00     0.087 N
HETATM   32  C1  UNL     1      11.314   7.950  25.917  1.00  0.00     0.310 C
HETATM   33  C22 UNL     1      10.648   8.939  23.914  1.00  0.00     0.302 C
HETATM   34  C21 UNL     1       9.431   8.854  23.017  1.00  0.00     0.302 C
ENDBRANCH  27  28
ENDBRANCH  26  27
ENDBRANCH   1  26
TORSDOF 8
ENDMDL