MODEL 1
REMARK VINA RESULT: -9.412328385      0.000      0.000
REMARK  8 active torsions:
REMARK  status: ('A' for Active; 'I' for Inactive)
REMARK    1  A    between atoms: C3_3  and  O1_6
REMARK    2  A    between atoms: O1_6  and  C6_7
REMARK       I    between atoms: C6_7  and  N1_9
REMARK    3  A    between atoms: C9_12  and  C10_13
REMARK       I    between atoms: C10_13  and  N2_15
REMARK    4  A    between atoms: N2_15  and  C11_17
REMARK    5  A    between atoms: C14_20  and  C15_21
REMARK    6  A    between atoms: C15_21  and  C16_22
REMARK    7  A    between atoms: C16_22  and  N3_23
REMARK    8  A    between atoms: N4_26  and  C19_27
ROOT
HETATM    1  C1  UNL     1       9.300  -5.094  15.680  1.00  0.00     0.015 C
HETATM    2  C2  UNL     1       9.948  -4.194  15.253  1.00  0.00    -0.079 C
HETATM    3  C3  UNL     1      10.733  -3.061  14.719  1.00  0.00     0.127 C
HETATM    4  C4  UNL     1      10.354  -2.942  13.241  1.00  0.00     0.061 C
HETATM    5  C5  UNL     1      12.204  -3.295  14.813  1.00  0.00     0.061 C
ENDROOT
BRANCH   3   6
HETATM    6  O1  UNL     1      10.307  -1.861  15.336  1.00  0.00    -0.280 OA
BRANCH   6   7
HETATM    7  C6  UNL     1       9.086  -1.243  15.018  1.00  0.00     0.364 C
HETATM    8  O2  UNL     1       8.278  -1.931  14.347  1.00  0.00    -0.238 OA
HETATM    9  N1  UNL     1       8.809   0.086  15.441  1.00  0.00    -0.328 N
HETATM   10  C7  UNL     1       7.577   0.770  15.146  1.00  0.00     0.129 C
HETATM   11  C29 UNL     1       9.807   0.801  16.206  1.00  0.00     0.129 C
HETATM   12  C8  UNL     1       7.570   2.036  16.014  1.00  0.00     0.034 C
HETATM   13  C9  UNL     1       7.813   1.559  17.429  1.00  0.00     0.081 C
HETATM   14  C28 UNL     1       9.299   1.245  17.545  1.00  0.00     0.034 C
BRANCH  13  15
HETATM   15  C10 UNL     1       7.409   2.571  18.430  1.00  0.00     0.222 C
HETATM   16  O3  UNL     1       8.228   3.458  18.754  1.00  0.00    -0.273 OA
HETATM   17  N2  UNL     1       6.142   2.576  19.028  1.00  0.00    -0.356 N
ATOM     18  H2  UNL     1       5.483   1.848  18.755  1.00  0.00     0.162 HD
BRANCH  17  19
HETATM   19  C11 UNL     1       5.707   3.549  20.011  1.00  0.00     0.084 C
HETATM   20  C12 UNL     1       5.105   4.704  19.300  1.00  0.00     0.025 C
HETATM   21  C13 UNL     1       4.034   5.458  20.006  1.00  0.00     0.007 C
HETATM   22  C14 UNL     1       4.207   5.232  21.485  1.00  0.00    -0.013 C
HETATM   23  C26 UNL     1       3.866   3.769  21.710  1.00  0.00     0.007 C
HETATM   24  C27 UNL     1       4.850   2.864  21.015  1.00  0.00     0.025 C
BRANCH  22  25
HETATM   25  C15 UNL     1       3.356   6.067  22.371  1.00  0.00     0.024 C
BRANCH  25  26
HETATM   26  C16 UNL     1       3.790   7.489  22.308  1.00  0.00     0.117 C
BRANCH  26  27
HETATM   27  N3  UNL     1       5.099   7.743  22.840  1.00  0.00    -0.409 N
HETATM   28  C17 UNL     1       6.023   8.366  21.958  1.00  0.00     0.136 C
HETATM   29  C18 UNL     1       7.418   7.864  22.366  1.00  0.00     0.144 C
HETATM   30  N4  UNL     1       7.609   8.377  23.726  1.00  0.00    -0.362 N
HETATM   31  C24 UNL     1       6.461   9.065  24.286  1.00  0.00     0.144 C
HETATM   32  C25 UNL     1       5.173   8.284  24.142  1.00  0.00     0.136 C
BRANCH  30  33
HETATM   33  C19 UNL     1       8.812   8.222  24.442  1.00  0.00     0.142 A
HETATM   34  N5  UNL     1       8.767   7.621  25.643  1.00  0.00    -0.348 N
HETATM   35  C20 UNL     1       9.882   7.436  26.387  1.00  0.00     0.113 A
ATOM     36  H5  UNL     1       7.870   7.295  26.002  1.00  0.00     0.167 HD
HETATM   37  C21 UNL     1      11.099   7.869  25.920  1.00  0.00     0.052 A
HETATM   38 CL1  UNL     1      12.581   7.650  26.858  1.00  0.00    -0.083 Cl
HETATM   39  C22 UNL     1      11.192   8.492  24.692  1.00  0.00     0.071 A
HETATM   40  C23 UNL     1      10.012   8.654  23.970  1.00  0.00     0.161 A
HETATM   41  F1  UNL     1      10.069   9.257  22.768  1.00  0.00    -0.202 F
ENDBRANCH  30  33
ENDBRANCH  26  27
ENDBRANCH  25  26
ENDBRANCH  22  25
ENDBRANCH  17  19
ENDBRANCH  13  15
ENDBRANCH   6   7
ENDBRANCH   3   6
TORSDOF 8
ENDMDL