MODEL 4
REMARK VINA RESULT: -8.750777446      3.023      3.305
REMARK  8 active torsions:
REMARK  status: ('A' for Active; 'I' for Inactive)
REMARK    1  A    between atoms: C2_2  and  C3_3
REMARK    2  A    between atoms: C3_3  and  C4_4
REMARK    3  A    between atoms: C4_4  and  C5_5
REMARK    4  A    between atoms: C7_7  and  O1_8
REMARK       I    between atoms: N2_19  and  C14_20
REMARK    5  A    between atoms: C14_20  and  C15_22
REMARK    6  A    between atoms: C17_24  and  N3_25
REMARK    7  A    between atoms: N4_39  and  C30_40
REMARK    8  A    between atoms: C30_40  and  C31_41
ROOT
HETATM    1  C5  UNL     1       8.993   8.865  24.217  1.00  0.00     0.014 A
HETATM    2  C6  UNL     1       8.001   7.942  24.462  1.00  0.00     0.064 A
HETATM    3  C7  UNL     1       6.862   7.910  23.667  1.00  0.00     0.098 A
HETATM    4  C8  UNL     1       6.774   8.829  22.646  1.00  0.00     0.115 A
HETATM    5  C9  UNL     1       7.825   9.739  22.454  1.00  0.00     0.172 A
HETATM    6  N1  UNL     1       8.904   9.767  23.208  1.00  0.00    -0.339 N
ATOM      7  H1  UNL     1       9.649  10.445  23.039  1.00  0.00     0.168 HD
HETATM    8  O2  UNL     1       7.775  10.691  21.406  1.00  0.00    -0.333 OA
HETATM    9  C10 UNL     1       7.328  10.443  20.084  1.00  0.00     0.190 C
HETATM   10  C11 UNL     1       6.753   9.101  19.826  1.00  0.00     0.015 C
HETATM   11  C12 UNL     1       6.375   9.141  18.323  1.00  0.00     0.035 C
HETATM   12  C13 UNL     1       6.247   7.702  17.924  1.00  0.00     0.127 C
HETATM   13  N2  UNL     1       7.234   7.057  18.735  1.00  0.00    -0.347 N
HETATM   14  C14 UNL     1       7.701   5.741  18.541  1.00  0.00     0.254 C
HETATM   15  O3  UNL     1       8.569   5.271  19.307  1.00  0.00    -0.267 OA
HETATM   16  C28 UNL     1       7.696   7.953  19.804  1.00  0.00     0.139 C
HETATM   17  C29 UNL     1       5.450   8.770  20.510  1.00  0.00     0.136 C
HETATM   18  N4  UNL     1       5.521   8.673  21.949  1.00  0.00    -0.372 N
ENDROOT
BRANCH  18  19
HETATM   19  C30 UNL     1       4.448   8.367  22.820  1.00  0.00     0.154 C
BRANCH  19  20
HETATM   20  C31 UNL     1       3.850   9.731  23.262  1.00  0.00     0.241 C
HETATM   21  F2  UNL     1       4.263  10.137  24.500  1.00  0.00    -0.254 F
ENDBRANCH  19  20
ENDBRANCH  18  19
BRANCH  14  22
HETATM   22  C15 UNL     1       7.222   4.871  17.475  1.00  0.00     0.041 A
HETATM   23  C16 UNL     1       6.224   5.312  16.631  1.00  0.00     0.047 A
HETATM   24  C17 UNL     1       5.706   4.561  15.593  1.00  0.00     0.031 A
HETATM   25  C22 UNL     1       6.210   3.312  15.391  1.00  0.00     0.037 A
HETATM   26  C23 UNL     1       7.205   2.823  16.203  1.00  0.00    -0.049 A
HETATM   27  C24 UNL     1       7.713   3.603  17.247  1.00  0.00    -0.036 A
HETATM   28  C27 UNL     1       7.902   1.513  16.180  1.00  0.00     0.039 C
HETATM   29  C25 UNL     1       8.766   2.817  17.940  1.00  0.00     0.040 C
HETATM   30  C26 UNL     1       9.231   1.876  16.841  1.00  0.00     0.009 C
BRANCH  24  31
HETATM   31  N3  UNL     1       4.681   5.039  14.741  1.00  0.00    -0.378 N
HETATM   32  C18 UNL     1       4.100   4.347  13.625  1.00  0.00     0.126 C
HETATM   33  C19 UNL     1       3.449   5.404  12.754  1.00  0.00     0.058 C
HETATM   34  C20 UNL     1       3.364   6.647  13.618  1.00  0.00     0.189 C
HETATM   35  F1  UNL     1       2.044   6.963  13.859  1.00  0.00    -0.248 F
HETATM   36  C21 UNL     1       4.065   6.351  14.901  1.00  0.00     0.160 C
ENDBRANCH  24  31
ENDBRANCH  14  22
BRANCH   3  37
HETATM   37  O1  UNL     1       5.844   7.016  23.846  1.00  0.00    -0.358 OA
ATOM     38  H1  UNL     1       5.773   6.447  24.604  1.00  0.00     0.217 HD
ENDBRANCH   3  37
BRANCH   1  39
HETATM   39  C4  UNL     1      10.187   8.843  25.112  1.00  0.00     0.057 C
BRANCH  39  40
HETATM   40  C3  UNL     1      10.173   7.641  26.025  1.00  0.00     0.006 C
BRANCH  40  41
HETATM   41  C2  UNL     1      11.537   7.559  26.678  1.00  0.00    -0.004 C
HETATM   42  C1  UNL     1      12.652   7.585  25.663  1.00  0.00     0.005 C
ENDBRANCH  40  41
ENDBRANCH  39  40
ENDBRANCH   1  39
TORSDOF 8
ENDMDL