MODEL 1
REMARK VINA RESULT: -7.751057198      0.000      0.000
REMARK  12 active torsions:
REMARK  status: ('A' for Active; 'I' for Inactive)
REMARK    1  A    between atoms: C2_2  and  N1_3
REMARK    2  A    between atoms: N1_3  and  C3_4
REMARK    3  A    between atoms: N1_3  and  C10_15
REMARK    4  A    between atoms: C3_4  and  C4_5
REMARK    5  A    between atoms: C4_5  and  C5_7
REMARK    6  A    between atoms: C5_7  and  O2_8
REMARK    7  A    between atoms: O2_8  and  C6_9
REMARK    8  A    between atoms: C6_9  and  O4_11
REMARK    9  A    between atoms: C10_15  and  O5_16
REMARK   10  A    between atoms: C10_15  and  C11_18
REMARK   11  A    between atoms: C18_29  and  C19_30
REMARK       I    between atoms: C19_30  and  N3_32
REMARK   12  A    between atoms: N4_35  and  C22_36
ROOT
HETATM    1  C11 UNL     1       7.572   5.721  18.310  1.00  0.00     0.100 A
HETATM    2  N2  UNL     1       8.551   4.848  18.586  1.00  0.00    -0.351 N
ATOM      3  H2  UNL     1       9.260   4.985  19.307  1.00  0.00     0.166 HD
HETATM    4  C12 UNL     1       8.476   3.749  17.775  1.00  0.00     0.045 A
HETATM    5  C13 UNL     1       9.268   2.613  17.708  1.00  0.00     0.056 A
HETATM    6  C14 UNL     1       8.945   1.646  16.766  1.00  0.00     0.058 A
HETATM    7 CL1  UNL     1       9.945   0.212  16.678  1.00  0.00    -0.082 Cl
HETATM    8  C15 UNL     1       7.879   1.797  15.924  1.00  0.00     0.056 A
HETATM    9 CL2  UNL     1       7.507   0.544  14.745  1.00  0.00    -0.083 Cl
HETATM   10  C16 UNL     1       7.120   2.944  16.031  1.00  0.00     0.040 A
HETATM   11  C17 UNL     1       7.404   3.943  16.958  1.00  0.00     0.010 A
HETATM   12  C18 UNL     1       6.827   5.153  17.267  1.00  0.00     0.075 A
ENDROOT
BRANCH   1  13
HETATM   13  C10 UNL     1       7.260   6.996  18.902  1.00  0.00     0.167 C
BRANCH  13  14
HETATM   14  N1  UNL     1       6.766   7.324  20.158  1.00  0.00    -0.353 N
BRANCH  14  15
HETATM   15  C2  UNL     1       5.408   7.615  20.494  1.00  0.00     0.121 C
HETATM   16  C1  UNL     1       4.887   6.759  21.642  1.00  0.00     0.026 C
ENDBRANCH  14  15
BRANCH  14  17
HETATM   17  C3  UNL     1       7.743   7.409  21.274  1.00  0.00     0.206 C
BRANCH  17  18
HETATM   18  C4  UNL     1       8.113   8.793  21.593  1.00  0.00     0.179 C
HETATM   19  O1  UNL     1       8.591   9.522  20.744  1.00  0.00    -0.293 OA
BRANCH  18  20
HETATM   20  C5  UNL     1       7.920   9.344  22.949  1.00  0.00     0.135 A
HETATM   21  C8  UNL     1       7.242   8.555  24.006  1.00  0.00     0.050 A
HETATM   22  C9  UNL     1       6.496   9.706  23.354  1.00  0.00     0.050 A
BRANCH  20  23
HETATM   23  O2  UNL     1       8.983  10.171  23.442  1.00  0.00    -0.279 OA
BRANCH  23  24
HETATM   24  C6  UNL     1      10.075   9.550  24.034  1.00  0.00     0.407 C
HETATM   25  O3  UNL     1      10.983   9.121  23.284  1.00  0.00    -0.229 OA
BRANCH  24  26
HETATM   26  O4  UNL     1      10.195   9.392  25.403  1.00  0.00    -0.303 OA
HETATM   27  C7  UNL     1      10.432   8.089  25.947  1.00  0.00     0.215 C
ENDBRANCH  24  26
ENDBRANCH  23  24
ENDBRANCH  20  23
ENDBRANCH  18  20
ENDBRANCH  17  18
ENDBRANCH  14  17
ENDBRANCH  13  14
BRANCH  13  28
HETATM   28  O5  UNL     1       7.476   8.024  18.133  1.00  0.00    -0.344 OA
ATOM     29  H5  UNL     1       7.221   7.890  17.227  1.00  0.00     0.219 HD
ENDBRANCH  13  28
ENDBRANCH   1  13
BRANCH  12  30
HETATM   30  C19 UNL     1       5.663   5.709  16.615  1.00  0.00     0.257 C
HETATM   31  O6  UNL     1       5.892   6.512  15.654  1.00  0.00    -0.267 OA
HETATM   32  N3  UNL     1       4.338   5.430  16.963  1.00  0.00    -0.344 N
HETATM   33  C20 UNL     1       3.989   4.529  18.041  1.00  0.00     0.156 C
HETATM   34  C26 UNL     1       3.239   6.041  16.246  1.00  0.00     0.156 C
HETATM   35  C21 UNL     1       2.911   5.133  18.932  1.00  0.00     0.292 C
HETATM   36  N4  UNL     1       1.835   5.689  18.135  1.00  0.00     0.095 N
HETATM   37  C25 UNL     1       2.379   6.729  17.311  1.00  0.00     0.292 C
BRANCH  36  38
HETATM   38  C22 UNL     1       0.800   6.143  19.029  1.00  0.00     0.215 C
HETATM   39  C23 UNL     1       1.282   6.370  20.427  1.00  0.00     0.042 C
HETATM   40  C24 UNL     1       0.098   7.373  18.536  1.00  0.00     0.042 C
ENDBRANCH  36  38
ENDBRANCH  12  30
TORSDOF 12
ENDMDL