MODEL 4
REMARK VINA RESULT: -8.286177499      2.840      4.660
REMARK  8 active torsions:
REMARK  status: ('A' for Active; 'I' for Inactive)
REMARK    1  A    between atoms: C2_2  and  C3_3
REMARK    2  A    between atoms: N2_8  and  C6_9
REMARK    3  A    between atoms: C6_9  and  C7_10
REMARK    4  A    between atoms: C7_10  and  O2_11
REMARK    5  A    between atoms: O2_11  and  C8_12
REMARK    6  A    between atoms: C11_16  and  N3_17
REMARK    7  A    between atoms: N3_17  and  C12_19
REMARK    8  A    between atoms: C13_22  and  N5_23
ROOT
HETATM    1  C8  UNL     1       5.303   4.197  16.436  1.00  0.00     0.097 A
HETATM    2  C9  UNL     1       5.017   5.479  16.825  1.00  0.00     0.070 A
HETATM    3 CL1  UNL     1       3.506   6.281  16.488  1.00  0.00    -0.081 Cl
HETATM    4  C10 UNL     1       5.955   6.226  17.549  1.00  0.00     0.057 A
HETATM    5  C11 UNL     1       7.183   5.694  17.886  1.00  0.00     0.057 A
HETATM    6  C21 UNL     1       7.459   4.414  17.493  1.00  0.00    -0.022 A
HETATM    7  C22 UNL     1       6.532   3.684  16.781  1.00  0.00    -0.015 A
HETATM    8  C23 UNL     1       6.904   2.312  16.398  1.00  0.00     0.042 C
HETATM    9  C24 UNL     1       7.549   1.548  17.523  1.00  0.00     0.005 C
HETATM   10  C25 UNL     1       8.553   2.340  18.296  1.00  0.00     0.005 C
HETATM   11  C26 UNL     1       8.736   3.744  17.793  1.00  0.00     0.041 C
ENDROOT
BRANCH   5  12
HETATM   12  N3  UNL     1       8.148   6.431  18.624  1.00  0.00    -0.191 N
ATOM     13  H3  UNL     1       9.078   6.041  18.777  1.00  0.00     0.184 HD
BRANCH  12  14
HETATM   14  C12 UNL     1       7.847   7.611  19.110  1.00  0.00     0.684 A
HETATM   15  N4  UNL     1       7.169   7.723  20.262  1.00  0.00    -0.175 N
HETATM   16  C13 UNL     1       6.834   8.935  20.797  1.00  0.00     0.142 A
ATOM     17  H4  UNL     1       6.894   6.874  20.756  1.00  0.00     0.186 HD
HETATM   18  C19 UNL     1       7.203  10.078  20.133  1.00  0.00     0.094 A
HETATM   19 CL2  UNL     1       6.800  11.642  20.789  1.00  0.00    -0.079 Cl
HETATM   20  C20 UNL     1       7.911   9.967  18.930  1.00  0.00     0.133 A
HETATM   21  N6  UNL     1       8.199   8.738  18.476  1.00  0.00    -0.200 N
ATOM     22  H6  UNL     1       8.715   8.657  17.600  1.00  0.00     0.183 HD
BRANCH  16  23
HETATM   23  N5  UNL     1       6.110   9.024  22.013  1.00  0.00    -0.360 N
HETATM   24  C14 UNL     1       6.564   9.492  23.331  1.00  0.00     0.129 C
HETATM   25  C15 UNL     1       5.285   9.329  24.094  1.00  0.00     0.007 C
HETATM   26  C16 UNL     1       4.840   7.947  23.605  1.00  0.00     0.031 C
HETATM   27  C18 UNL     1       4.260   9.864  23.103  1.00  0.00     0.031 C
HETATM   28  C17 UNL     1       4.735   8.673  22.265  1.00  0.00     0.086 C
ENDBRANCH  16  23
ENDBRANCH  12  14
ENDBRANCH   5  12
BRANCH   1  29
HETATM   29  O2  UNL     1       4.436   3.429  15.733  1.00  0.00    -0.347 OA
BRANCH  29  30
HETATM   30  C7  UNL     1       3.289   2.765  16.133  1.00  0.00     0.206 C
BRANCH  30  31
HETATM   31  C6  UNL     1       3.446   1.620  17.068  1.00  0.00     0.299 C
BRANCH  31  32
HETATM   32  N2  UNL     1       3.061   2.060  18.403  1.00  0.00     0.090 N
HETATM   33  C5  UNL     1       2.308   3.268  18.438  1.00  0.00     0.273 C
HETATM   34  C4  UNL     1       2.165   3.675  19.910  1.00  0.00     0.048 C
HETATM   35  C2  UNL     1       3.473   4.089  20.493  1.00  0.00     0.038 C
HETATM   36  C1  UNL     1       3.693   5.573  20.222  1.00  0.00     0.025 C
HETATM   37  C28 UNL     1       4.587   3.347  19.818  1.00  0.00     0.048 C
HETATM   38  C27 UNL     1       4.195   2.013  19.265  1.00  0.00     0.273 C
BRANCH  35  39
HETATM   39  C3  UNL     1       3.417   3.819  21.951  1.00  0.00     0.239 C
HETATM   40  N1  UNL     1       2.960   2.547  22.381  1.00  0.00    -0.061 NA
HETATM   41  O1  UNL     1       3.750   4.654  22.831  1.00  0.00    -0.276 OA
ENDBRANCH  35  39
ENDBRANCH  31  32
ENDBRANCH  30  31
ENDBRANCH  29  30
ENDBRANCH   1  29
TORSDOF 8
ENDMDL