MODEL 2
REMARK VINA RESULT: -9.069522119      0.606      1.220
REMARK  7 active torsions:
REMARK  status: ('A' for Active; 'I' for Inactive)
REMARK    1  A    between atoms: C4_9  and  C5_10
REMARK    2  A    between atoms: C4_9  and  C16_25
REMARK    3  A    between atoms: C5_10  and  O1_11
REMARK    4  A    between atoms: O1_11  and  C6_12
REMARK    5  A    between atoms: C6_12  and  C7_13
REMARK    6  A    between atoms: C7_13  and  N3_14
REMARK       I    between atoms: N4_34  and  C23_35
REMARK    7  A    between atoms: C23_35  and  C24_37
ROOT
HETATM    1  C1  UNL     1       5.943   2.219  20.594  1.00  0.00     0.040 C
HETATM    2  C2  UNL     1       6.034   2.449  19.092  1.00  0.00     0.150 C
HETATM    3  C3  UNL     1       4.758   3.094  18.703  1.00  0.00     0.094 C
HETATM    4  N1  UNL     1       3.839   2.396  18.089  1.00  0.00    -0.387 N
ATOM      5  H11 UNL     1       2.961   2.840  17.821  1.00  0.00     0.157 HD
ATOM      6  H12 UNL     1       3.976   1.410  17.866  1.00  0.00     0.157 HD
HETATM    7  N2  UNL     1       4.568   4.461  19.013  1.00  0.00    -0.361 N
ATOM      8  H2  UNL     1       3.659   4.773  19.355  1.00  0.00     0.162 HD
HETATM    9  C4  UNL     1       5.631   5.424  18.855  1.00  0.00     0.096 C
HETATM   10  C22 UNL     1       6.944   4.801  19.212  1.00  0.00     0.165 C
HETATM   11  N4  UNL     1       7.082   3.410  18.843  1.00  0.00    -0.338 N
HETATM   12  C23 UNL     1       8.278   2.922  18.206  1.00  0.00     0.224 C
HETATM   13  O4  UNL     1       9.223   3.694  17.968  1.00  0.00    -0.273 OA
ENDROOT
BRANCH   9  14
HETATM   14  C5  UNL     1       5.334   6.570  19.840  1.00  0.00     0.205 C
BRANCH  14  15
HETATM   15  O1  UNL     1       6.410   6.800  20.657  1.00  0.00    -0.386 OA
BRANCH  15  16
HETATM   16  C6  UNL     1       6.148   7.610  21.757  1.00  0.00     0.198 C
BRANCH  16  17
HETATM   17  C7  UNL     1       7.228   8.717  21.713  1.00  0.00     0.053 C
HETATM   18  C12 UNL     1       6.502   9.955  21.257  1.00  0.00     0.059 C
HETATM   19  C13 UNL     1       7.318  10.866  20.384  1.00  0.00     0.170 C
HETATM   20  O3  UNL     1       7.748  10.058  19.303  1.00  0.00    -0.391 OA
HETATM   21  C14 UNL     1       8.831   9.339  19.860  1.00  0.00     0.170 C
HETATM   22  C15 UNL     1       8.235   8.237  20.696  1.00  0.00     0.059 C
BRANCH  17  23
HETATM   23  N3  UNL     1       7.812   8.807  22.966  1.00  0.00    -0.397 N
HETATM   24  C8  UNL     1       8.732   9.807  23.283  1.00  0.00     0.144 C
HETATM   25  C9  UNL     1      10.053   9.130  23.667  1.00  0.00     0.187 C
HETATM   26  O2  UNL     1       9.840   8.153  24.606  1.00  0.00    -0.388 OA
HETATM   27  C10 UNL     1       8.560   8.083  25.099  1.00  0.00     0.187 C
HETATM   28  C11 UNL     1       7.506   7.925  23.993  1.00  0.00     0.144 C
ENDBRANCH  17  23
ENDBRANCH  16  17
ENDBRANCH  15  16
ENDBRANCH  14  15
ENDBRANCH   9  14
BRANCH   9  29
HETATM   29  C16 UNL     1       5.525   5.985  17.508  1.00  0.00    -0.025 A
HETATM   30  C17 UNL     1       5.166   7.280  17.226  1.00  0.00     0.011 A
HETATM   31  C18 UNL     1       5.121   7.629  15.908  1.00  0.00     0.026 A
HETATM   32  C19 UNL     1       5.400   6.807  14.846  1.00  0.00     0.055 A
HETATM   33 CL1  UNL     1       5.310   7.369  13.198  1.00  0.00    -0.083 Cl
HETATM   34  C20 UNL     1       5.768   5.488  15.150  1.00  0.00     0.056 A
HETATM   35 CL2  UNL     1       6.118   4.433  13.809  1.00  0.00    -0.083 Cl
HETATM   36  C21 UNL     1       5.823   5.104  16.462  1.00  0.00     0.035 A
ENDBRANCH   9  29
BRANCH  12  37
HETATM   37  C24 UNL     1       8.434   1.507  17.817  1.00  0.00     0.078 C
HETATM   38  C25 UNL     1       9.837   0.996  17.646  1.00  0.00     0.014 C
HETATM   39  C26 UNL     1       9.570   0.590  16.211  1.00  0.00     0.002 C
HETATM   40  C27 UNL     1       8.204   1.245  16.348  1.00  0.00     0.014 C
ENDBRANCH  12  37
TORSDOF 7
ENDMDL