MODEL 1
REMARK VINA RESULT: -6.486373699      0.000      0.000
REMARK  9 active torsions:
REMARK  status: ('A' for Active; 'I' for Inactive)
REMARK    1  A    between atoms: C2_2  and  C3_3
REMARK    2  A    between atoms: C4_5  and  N1_6
REMARK       I    between atoms: N1_6  and  C5_8
REMARK    3  A    between atoms: C5_8  and  C6_10
REMARK    4  A    between atoms: C6_10  and  N2_11
REMARK    5  A    between atoms: N2_11  and  C7_12
REMARK    6  A    between atoms: N2_11  and  C9_14
REMARK    7  A    between atoms: C11_17  and  C12_18
REMARK    8  A    between atoms: C15_22  and  O3_23
REMARK    9  A    between atoms: O3_23  and  C16_24
REMARK       I    between atoms: C16_24  and  N3_26
ROOT
HETATM    1  C3  UNL     1       7.817   3.170  17.048  1.00  0.00     0.073 A
HETATM    2  O1  UNL     1       7.709   2.531  15.953  1.00  0.00    -0.290 OA
HETATM    3  C4  UNL     1       6.836   2.815  15.071  1.00  0.00     0.195 A
HETATM    4  S1  UNL     1       6.029   4.124  15.791  1.00  0.00    -0.043 SA
HETATM    5  C11 UNL     1       6.955   4.198  17.280  1.00  0.00     0.049 A
ENDROOT
BRANCH   5   6
HETATM    6  C12 UNL     1       6.735   5.172  18.329  1.00  0.00    -0.014 A
HETATM    7  C13 UNL     1       7.546   6.307  18.294  1.00  0.00     0.035 A
HETATM    8  C14 UNL     1       7.419   7.313  19.208  1.00  0.00     0.047 A
HETATM    9 BR1  UNL     1       8.558   8.827  19.102  1.00  0.00    -0.048 Br
HETATM   10  C15 UNL     1       6.463   7.207  20.194  1.00  0.00     0.115 A
HETATM   11  C19 UNL     1       5.642   6.106  20.263  1.00  0.00     0.047 A
HETATM   12 BR2  UNL     1       4.306   5.926  21.619  1.00  0.00    -0.048 Br
HETATM   13  C20 UNL     1       5.806   5.091  19.301  1.00  0.00     0.035 A
BRANCH  10  14
HETATM   14  O3  UNL     1       6.307   8.227  21.151  1.00  0.00    -0.259 OA
BRANCH  14  15
HETATM   15  C16 UNL     1       7.039   8.195  22.333  1.00  0.00     0.367 C
HETATM   16  O4  UNL     1       8.071   7.472  22.345  1.00  0.00    -0.238 OA
HETATM   17  N3  UNL     1       6.651   8.936  23.478  1.00  0.00    -0.336 N
HETATM   18  C17 UNL     1       7.431   8.873  24.677  1.00  0.00     0.154 C
HETATM   19  C18 UNL     1       5.461   9.756  23.418  1.00  0.00     0.154 C
ENDBRANCH  14  15
ENDBRANCH  10  14
ENDBRANCH   5   6
BRANCH   1  20
HETATM   20  C2  UNL     1       8.901   2.753  18.033  1.00  0.00     0.062 C
HETATM   21  C1  UNL     1       9.257   1.296  17.879  1.00  0.00     0.012 C
ENDBRANCH   1  20
BRANCH   3  22
HETATM   22  N1  UNL     1       6.626   2.234  13.907  1.00  0.00    -0.297 N
HETATM   23  C5  UNL     1       5.504   1.395  13.805  1.00  0.00     0.262 C
HETATM   24  O2  UNL     1       5.144   0.713  14.792  1.00  0.00    -0.267 OA
ATOM     25  H1  UNL     1       7.250   2.388  13.116  1.00  0.00     0.171 HD
BRANCH  23  26
HETATM   26  C6  UNL     1       4.740   1.301  12.553  1.00  0.00     0.160 C
BRANCH  26  27
HETATM   27  N2  UNL     1       5.454   1.020  11.371  1.00  0.00    -0.386 N
BRANCH  27  28
HETATM   28  C7  UNL     1       5.820  -0.323  11.139  1.00  0.00     0.118 C
HETATM   29  C8  UNL     1       5.370  -0.834   9.773  1.00  0.00     0.026 C
ENDBRANCH  27  28
BRANCH  27  30
HETATM   30  C9  UNL     1       5.084   1.718  10.192  1.00  0.00     0.118 C
HETATM   31  C10 UNL     1       5.817   3.028  10.018  1.00  0.00     0.026 C
ENDBRANCH  27  30
ENDBRANCH  26  27
ENDBRANCH  23  26
ENDBRANCH   3  22
TORSDOF 9
ENDMDL