MODEL 5
REMARK VINA RESULT: -8.686874193      7.655      9.797
REMARK  7 active torsions:
REMARK  status: ('A' for Active; 'I' for Inactive)
REMARK    1  A    between atoms: C3_5  and  N2_6
REMARK    2  A    between atoms: N2_6  and  C4_8
REMARK    3  A    between atoms: C4_8  and  C5_9
REMARK    4  A    between atoms: C4_8  and  C6_12
REMARK    5  A    between atoms: C5_9  and  O2_10
REMARK    6  A    between atoms: C7_13  and  O3_14
REMARK       I    between atoms: N5_22  and  C9_23
REMARK    7  A    between atoms: N6_27  and  C11_28
ROOT
HETATM    1  C1  UNL     1      85.197  57.588   3.442  1.00  0.00     0.182 C
HETATM    2  N1  UNL     1      85.339  57.544   4.887  1.00  0.00    -0.252 N
HETATM    3  C2  UNL     1      84.646  58.352   5.692  1.00  0.00     0.290 A
HETATM    4  O1  UNL     1      83.786  59.205   5.397  1.00  0.00    -0.264 OA
HETATM    5  C3  UNL     1      85.070  58.072   7.014  1.00  0.00     0.117 A
HETATM    6  C10 UNL     1      85.998  57.092   6.846  1.00  0.00     0.153 A
HETATM    7  N6  UNL     1      86.172  56.764   5.567  1.00  0.00    -0.240 N
ENDROOT
BRANCH   5   8
HETATM    8  N2  UNL     1      84.544  58.723   8.119  1.00  0.00    -0.372 N
ATOM      9  H2  UNL     1      84.889  59.667   8.291  1.00  0.00     0.160 HD
BRANCH   8  10
HETATM   10  C4  UNL     1      83.576  58.230   9.048  1.00  0.00     0.161 C
BRANCH  10  11
HETATM   11  C5  UNL     1      83.750  58.951  10.323  1.00  0.00     0.195 C
BRANCH  11  12
HETATM   12  O2  UNL     1      83.783  58.074  11.433  1.00  0.00    -0.398 OA
ATOM     13  H2  UNL     1      84.335  57.316  11.277  1.00  0.00     0.209 HD
ENDBRANCH  11  12
ENDBRANCH  10  11
BRANCH  10  14
HETATM   14  C6  UNL     1      82.213  58.219   8.422  1.00  0.00     0.116 A
HETATM   15  C7  UNL     1      81.555  57.004   8.103  1.00  0.00     0.181 A
HETATM   16  N3  UNL     1      80.407  57.320   7.526  1.00  0.00    -0.168 N
HETATM   17  C8  UNL     1      80.250  58.630   7.435  1.00  0.00     0.690 A
ATOM     18  H3  UNL     1      79.727  56.637   7.193  1.00  0.00     0.186 HD
HETATM   19  N4  UNL     1      79.270  59.318   6.926  1.00  0.00    -0.234 N
HETATM   20  N5  UNL     1      81.403  59.186   8.000  1.00  0.00    -0.086 N
ATOM     21  H42 UNL     1      78.430  58.912   6.514  1.00  0.00     0.174 HD
ATOM     22  H41 UNL     1      79.148  60.328   6.856  1.00  0.00     0.174 HD
HETATM   23  C9  UNL     1      81.638  60.569   7.903  1.00  0.00     0.309 C
HETATM   24  O4  UNL     1      82.689  61.172   8.069  1.00  0.00    -0.629 OA
HETATM   25  O5  UNL     1      80.550  61.413   7.574  1.00  0.00    -0.629 OA
BRANCH  15  26
HETATM   26  O3  UNL     1      82.062  55.747   8.371  1.00  0.00    -0.344 OA
ATOM     27  H3  UNL     1      81.941  54.988   7.811  1.00  0.00     0.219 HD
ENDBRANCH  15  26
ENDBRANCH  10  14
ENDBRANCH   8  10
ENDBRANCH   5   8
BRANCH   7  28
HETATM   28  C11 UNL     1      87.049  55.805   4.992  1.00  0.00     0.189 A
HETATM   29  N7  UNL     1      86.737  54.512   4.832  1.00  0.00    -0.266 N
HETATM   30  N8  UNL     1      87.580  53.650   4.240  1.00  0.00    -0.127 N
ATOM     31  H7  UNL     1      85.835  54.173   5.168  1.00  0.00     0.189 HD
HETATM   32  C12 UNL     1      88.779  54.045   3.781  1.00  0.00     0.737 A
ATOM     33  H8  UNL     1      87.303  52.674   4.137  1.00  0.00     0.206 HD
HETATM   34  N9  UNL     1      89.835  53.470   3.158  1.00  0.00    -0.113 N
HETATM   35  N12 UNL     1      89.122  55.347   3.928  1.00  0.00    -0.048 N
HETATM   36  N10 UNL     1      90.774  54.369   2.939  1.00  0.00    -0.213 N
ATOM     37  H9  UNL     1      89.896  52.486   2.897  1.00  0.00     0.207 HD
HETATM   38  N11 UNL     1      90.316  55.500   3.412  1.00  0.00    -0.205 N
ATOM     39  H10 UNL     1      91.676  54.213   2.491  1.00  0.00     0.210 HD
ATOM     40  H11 UNL     1      90.823  56.384   3.382  1.00  0.00     0.211 HD
HETATM   41  C13 UNL     1      88.260  56.229   4.532  1.00  0.00     0.188 A
HETATM   42  N13 UNL     1      88.592  57.440   4.669  1.00  0.00    -0.380 N
ATOM     43 2H13 UNL     1      87.952  58.096   5.117  1.00  0.00     0.157 HD
ATOM     44 1H13 UNL     1      89.498  57.757   4.325  1.00  0.00     0.157 HD
ENDBRANCH   7  28
TORSDOF 7
ENDMDL