MODEL 2
REMARK VINA RESULT: -8.373011851      3.360      8.721
REMARK  13 active torsions:
REMARK  status: ('A' for Active; 'I' for Inactive)
REMARK    1  A    between atoms: N1_1  and  C1_4
REMARK    2  A    between atoms: N5_11  and  C2_12
REMARK    3  A    between atoms: C2_12  and  C3_13
REMARK    4  A    between atoms: C5_23  and  N10_24
REMARK    5  A    between atoms: N10_24  and  C6_26
REMARK    6  A    between atoms: C6_26  and  N11_27
REMARK    7  A    between atoms: C6_26  and  C7_31
REMARK    8  A    between atoms: C7_31  and  C8_32
REMARK    9  A    between atoms: C8_32  and  N12_33
REMARK   10  A    between atoms: N13_35  and  C9_37
REMARK   11  A    between atoms: C9_37  and  N14_39
REMARK   12  A    between atoms: N14_39  and  N15_41
REMARK   13  A    between atoms: C10_44  and  O2_45
ROOT
HETATM    1  C3  UNL     1      82.017  47.190   4.187  1.00  0.00     0.144 A
HETATM    2  N6  UNL     1      82.041  45.901   3.755  1.00  0.00    -0.270 N
ATOM      3  H6  UNL     1      81.289  45.269   4.029  1.00  0.00     0.190 HD
HETATM    4  N7  UNL     1      83.013  45.451   2.990  1.00  0.00    -0.225 N
ATOM      5  H7  UNL     1      83.009  44.479   2.678  1.00  0.00     0.210 HD
HETATM    6  N8  UNL     1      83.989  46.258   2.628  1.00  0.00    -0.203 N
ATOM      7  H8  UNL     1      84.739  45.904   2.035  1.00  0.00     0.212 HD
HETATM    8  N9  UNL     1      84.009  47.517   3.023  1.00  0.00    -0.129 N
HETATM    9  C4  UNL     1      84.874  48.509   2.774  1.00  0.00     0.314 A
HETATM   10  O1  UNL     1      85.929  48.487   2.091  1.00  0.00    -0.262 OA
HETATM   11  C5  UNL     1      84.417  49.636   3.418  1.00  0.00     0.155 A
HETATM   12  C10 UNL     1      83.259  49.280   4.050  1.00  0.00     0.198 A
HETATM   13  N16 UNL     1      83.018  47.991   3.807  1.00  0.00    -0.190 N
ENDROOT
BRANCH  11  14
HETATM   14  N10 UNL     1      85.026  50.942   3.409  1.00  0.00    -0.355 N
ATOM     15  H10 UNL     1      84.489  51.767   3.675  1.00  0.00     0.162 HD
BRANCH  14  16
HETATM   16  C6  UNL     1      86.406  51.060   3.016  1.00  0.00     0.283 C
BRANCH  16  17
HETATM   17  N11 UNL     1      87.305  51.480   4.041  1.00  0.00    -0.058 N
ATOM     18 3H11 UNL     1      87.150  52.465   4.259  1.00  0.00     0.276 HD
ATOM     19 2H11 UNL     1      87.043  51.054   4.930  1.00  0.00     0.276 HD
ATOM     20 1H11 UNL     1      88.294  51.315   3.854  1.00  0.00     0.276 HD
ENDBRANCH  16  17
BRANCH  16  21
HETATM   21  C7  UNL     1      86.464  52.001   1.809  1.00  0.00     0.075 C
BRANCH  21  22
HETATM   22  C8  UNL     1      87.530  53.055   2.028  1.00  0.00     0.143 C
BRANCH  22  23
HETATM   23  N12 UNL     1      87.035  54.356   1.640  1.00  0.00    -0.334 N
HETATM   24  N13 UNL     1      87.144  55.391   2.370  1.00  0.00    -0.279 N
ATOM     25  H13 UNL     1      86.778  56.287   2.049  1.00  0.00     0.189 HD
ATOM     26  H12 UNL     1      86.574  54.448   0.735  1.00  0.00     0.180 HD
BRANCH  24  27
HETATM   27  C9  UNL     1      87.782  55.288   3.637  1.00  0.00     0.204 C
HETATM   28  S1  UNL     1      89.344  55.702   3.725  1.00  0.00    -0.038 SA
BRANCH  27  29
HETATM   29  N14 UNL     1      87.100  54.843   4.783  1.00  0.00    -0.282 N
ATOM     30  H14 UNL     1      87.338  53.942   5.196  1.00  0.00     0.189 HD
BRANCH  29  31
HETATM   31  N15 UNL     1      86.102  55.624   5.358  1.00  0.00    -0.343 N
ATOM     32 2H15 UNL     1      85.893  56.534   4.946  1.00  0.00     0.176 HD
ATOM     33 1H15 UNL     1      85.591  55.292   6.175  1.00  0.00     0.176 HD
ENDBRANCH  29  31
ENDBRANCH  27  29
ENDBRANCH  24  27
ENDBRANCH  22  23
ENDBRANCH  21  22
ENDBRANCH  16  21
ENDBRANCH  14  16
ENDBRANCH  11  14
BRANCH  12  34
HETATM   34  O2  UNL     1      82.503  50.149   4.800  1.00  0.00    -0.343 OA
ATOM     35  H2  UNL     1      82.542  51.094   4.710  1.00  0.00     0.219 HD
ENDBRANCH  12  34
BRANCH   1  36
HETATM   36  C2  UNL     1      80.904  47.593   5.013  1.00  0.00     0.249 C
BRANCH  36  37
HETATM   37  N5  UNL     1      79.691  47.019   4.396  1.00  0.00    -0.100 N
HETATM   38  C1  UNL     1      78.626  46.456   4.967  1.00  0.00     0.710 A
HETATM   39  N2  UNL     1      77.735  46.058   4.020  1.00  0.00    -0.115 N
HETATM   40  N3  UNL     1      78.294  46.395   2.873  1.00  0.00    -0.213 N
ATOM     41  H2  UNL     1      76.835  45.600   4.164  1.00  0.00     0.207 HD
HETATM   42  N4  UNL     1      79.459  46.969   3.078  1.00  0.00    -0.211 N
ATOM     43  H3  UNL     1      77.880  46.233   1.956  1.00  0.00     0.210 HD
ATOM     44  H4  UNL     1      80.084  47.320   2.352  1.00  0.00     0.210 HD
BRANCH  38  45
HETATM   45  N1  UNL     1      78.476  46.318   6.251  1.00  0.00    -0.232 N
ATOM     46  H12 UNL     1      77.580  46.139   6.707  1.00  0.00     0.174 HD
ATOM     47  H11 UNL     1      79.223  46.369   6.943  1.00  0.00     0.174 HD
ENDBRANCH  38  45
ENDBRANCH  36  37
ENDBRANCH   1  36
TORSDOF 13
ENDMDL