MODEL 5
REMARK VINA RESULT: -6.433417244      3.673      7.961
REMARK  10 active torsions:
REMARK  status: ('A' for Active; 'I' for Inactive)
REMARK    1  A    between atoms: C1_4  and  C2_5
REMARK    2  A    between atoms: C2_5  and  S1_6
REMARK    3  A    between atoms: S1_6  and  C3_7
REMARK    4  A    between atoms: C4_8  and  N2_9
REMARK    5  A    between atoms: N5_14  and  N6_15
REMARK    6  A    between atoms: N6_15  and  N7_16
REMARK    7  A    between atoms: N7_16  and  N8_17
REMARK    8  A    between atoms: N7_16  and  N9_20
REMARK    9  A    between atoms: N10_25  and  O2_26
REMARK   10  A    between atoms: C6_29  and  S3_30
ROOT
HETATM    1  N2  UNL     1      86.790  56.144   5.271  1.00  0.00    -0.142 N
HETATM    2  N3  UNL     1      86.670  54.885   4.898  1.00  0.00    -0.202 N
ATOM      3  H3  UNL     1      85.934  54.306   5.300  1.00  0.00     0.212 HD
HETATM    4  N4  UNL     1      87.514  54.358   3.987  1.00  0.00    -0.202 N
ATOM      5  H4  UNL     1      87.405  53.382   3.710  1.00  0.00     0.212 HD
HETATM    6  N5  UNL     1      88.480  55.081   3.447  1.00  0.00    -0.108 N
HETATM    7  C5  UNL     1      88.591  56.363   3.838  1.00  0.00     0.403 A
HETATM    8  O1  UNL     1      89.507  57.059   3.328  1.00  0.00    -0.239 OA
HETATM    9  N10 UNL     1      87.737  56.898   4.758  1.00  0.00    -0.080 N
ENDROOT
BRANCH   1  10
HETATM   10  C4  UNL     1      85.853  56.639   6.248  1.00  0.00     0.140 A
HETATM   11  C3  UNL     1      84.605  57.170   6.004  1.00  0.00     0.065 A
HETATM   12  C7  UNL     1      83.896  57.572   7.083  1.00  0.00     0.097 A
HETATM   13  C6  UNL     1      84.482  57.414   8.303  1.00  0.00     0.149 A
HETATM   14  N11 UNL     1      82.558  58.154   6.975  1.00  0.00    -0.099 NA
HETATM   15  S2  UNL     1      85.988  56.719   7.944  1.00  0.00    -0.051 SA
BRANCH  11  16
HETATM   16  S1  UNL     1      83.958  57.315   4.294  1.00  0.00    -0.120 SA
BRANCH  16  17
HETATM   17  C2  UNL     1      84.851  58.648   3.438  1.00  0.00     0.123 C
BRANCH  17  18
HETATM   18  C1  UNL     1      85.493  58.070   2.252  1.00  0.00     0.063 C
HETATM   19  N1  UNL     1      85.493  56.796   1.997  1.00  0.00    -0.410 N
ATOM     20  H12 UNL     1      85.020  56.183   2.662  1.00  0.00     0.155 HD
ATOM     21  H11 UNL     1      85.939  56.395   1.173  1.00  0.00     0.155 HD
ENDBRANCH  17  18
ENDBRANCH  16  17
ENDBRANCH  11  16
BRANCH  13  22
HETATM   22  S3  UNL     1      83.846  57.826   9.901  1.00  0.00     0.146 S
HETATM   23  O3  UNL     1      82.551  57.159  10.166  1.00  0.00    -0.591 OA
HETATM   24  O4  UNL     1      84.847  57.315  10.901  1.00  0.00    -0.591 OA
HETATM   25  O5  UNL     1      83.784  59.487  10.048  1.00  0.00    -0.591 OA
ENDBRANCH  13  22
ENDBRANCH   1  10
BRANCH   9  26
HETATM   26  O2  UNL     1      87.884  58.209   5.129  1.00  0.00    -0.262 OA
ATOM     27  H2  UNL     1      88.616  58.492   5.663  1.00  0.00     0.247 HD
ENDBRANCH   9  26
BRANCH   6  28
HETATM   28  N6  UNL     1      89.359  54.544   2.504  1.00  0.00     0.021 NA
BRANCH  28  29
HETATM   29  N7  UNL     1      90.259  53.654   3.040  1.00  0.00    -0.036 NA
BRANCH  29  30
HETATM   30  N8  UNL     1      89.594  52.447   3.312  1.00  0.00    -0.329 NA
ATOM     31  H82 UNL     1      89.066  52.485   4.184  1.00  0.00     0.174 HD
ATOM     32  H81 UNL     1      89.006  52.208   2.513  1.00  0.00     0.174 HD
ENDBRANCH  29  30
BRANCH  29  33
HETATM   33  N9  UNL     1      90.904  54.164   4.157  1.00  0.00    -0.329 NA
ATOM     34  H92 UNL     1      91.077  53.449   4.864  1.00  0.00     0.174 HD
ATOM     35  H91 UNL     1      90.386  54.932   4.587  1.00  0.00     0.174 HD
ENDBRANCH  29  33
ENDBRANCH  28  29
ENDBRANCH   6  28
TORSDOF 10
ENDMDL