MODEL 2
REMARK VINA RESULT: -10.232330324      2.013      9.552
REMARK  10 active torsions:
REMARK  status: ('A' for Active; 'I' for Inactive)
REMARK    1  A    between atoms: C2_2  and  C3_3
REMARK    2  A    between atoms: C2_2  and  C4_14
REMARK    3  A    between atoms: C3_3  and  N3_9
REMARK    4  A    between atoms: N1_4  and  N2_6
REMARK    5  A    between atoms: N3_9  and  N4_11
REMARK    6  A    between atoms: C6_16  and  C7_17
REMARK    7  A    between atoms: C7_17  and  S1_18
REMARK    8  A    between atoms: S1_18  and  C8_19
REMARK    9  A    between atoms: C9_22  and  N6_23
REMARK   10  A    between atoms: N6_23  and  C10_25
ROOT
HETATM    1  S1  UNL     1      85.514  48.707   2.197  1.00  0.00    -0.087 SA
ENDROOT
BRANCH   1   2
HETATM    2  C7  UNL     1      85.261  50.043   3.352  1.00  0.00     0.141 C
BRANCH   2   3
HETATM    3  C6  UNL     1      86.192  51.181   3.201  1.00  0.00     0.044 A
HETATM    4  C5  UNL     1      87.111  51.751   4.026  1.00  0.00     0.063 A
HETATM    5  C4  UNL     1      87.698  52.811   3.358  1.00  0.00     0.089 A
HETATM    6  O2  UNL     1      87.138  52.848   2.197  1.00  0.00    -0.241 OA
HETATM    7  N13 UNL     1      86.249  51.913   2.054  1.00  0.00    -0.264 N
ATOM      8  H13 UNL     1      85.684  51.754   1.219  1.00  0.00     0.194 HD
BRANCH   5   9
HETATM    9  C2  UNL     1      88.753  53.737   3.840  1.00  0.00     0.111 C
HETATM   10  C1  UNL     1      89.992  53.661   2.975  1.00  0.00     0.025 C
BRANCH   9  11
HETATM   11  C3  UNL     1      88.268  55.150   3.802  1.00  0.00     0.119 C
HETATM   12  N1  UNL     1      89.049  56.128   3.568  1.00  0.00    -0.294 N
ATOM     13  H1  UNL     1      90.036  55.931   3.402  1.00  0.00     0.187 HD
BRANCH  12  14
HETATM   14  N2  UNL     1      88.627  57.445   3.528  1.00  0.00    -0.344 N
ATOM     15  H22 UNL     1      87.636  57.624   3.696  1.00  0.00     0.176 HD
ATOM     16  H21 UNL     1      89.252  58.229   3.341  1.00  0.00     0.176 HD
ENDBRANCH  12  14
BRANCH  11  17
HETATM   17  N3  UNL     1      86.887  55.387   4.039  1.00  0.00    -0.294 N
ATOM     18  H3  UNL     1      86.262  55.540   3.248  1.00  0.00     0.187 HD
BRANCH  17  19
HETATM   19  N4  UNL     1      86.364  55.414   5.358  1.00  0.00    -0.344 N
ATOM     20  H42 UNL     1      86.885  55.915   6.077  1.00  0.00     0.176 HD
ATOM     21  H41 UNL     1      85.487  54.946   5.586  1.00  0.00     0.176 HD
ENDBRANCH  17  19
ENDBRANCH  11  17
ENDBRANCH   9  11
ENDBRANCH   5   9
ENDBRANCH   2   3
ENDBRANCH   1   2
BRANCH   1  22
HETATM   22  C8  UNL     1      84.538  47.270   2.573  1.00  0.00     0.163 A
HETATM   23  N5  UNL     1      83.179  47.366   2.657  1.00  0.00    -0.169 N
HETATM   24  C9  UNL     1      82.412  46.299   2.934  1.00  0.00     0.702 A
ATOM     25  H5  UNL     1      82.734  48.272   2.506  1.00  0.00     0.186 HD
HETATM   26  N11 UNL     1      82.943  45.081   3.144  1.00  0.00    -0.140 N
HETATM   27  C13 UNL     1      84.281  44.974   3.063  1.00  0.00     0.340 A
ATOM     28  H11 UNL     1      82.356  44.274   3.355  1.00  0.00     0.189 HD
HETATM   29  O1  UNL     1      84.779  43.824   3.262  1.00  0.00    -0.246 OA
HETATM   30  N12 UNL     1      85.043  46.047   2.785  1.00  0.00    -0.288 N
ATOM     31  H12 UNL     1      86.054  45.925   2.734  1.00  0.00     0.172 HD
BRANCH  24  32
HETATM   32  N6  UNL     1      80.985  46.416   3.019  1.00  0.00    -0.021 N
ATOM     33  H6  UNL     1      80.425  46.226   2.188  1.00  0.00     0.203 HD
BRANCH  32  34
HETATM   34  C10 UNL     1      80.330  46.785   4.217  1.00  0.00     0.708 C
HETATM   35  N7  UNL     1      80.985  47.288   5.219  1.00  0.00    -0.210 N
HETATM   36  C11 UNL     1      80.419  47.692   6.465  1.00  0.00     0.271 C
ATOM     37  H7  UNL     1      81.992  47.406   5.105  1.00  0.00     0.179 HD
HETATM   38  N8  UNL     1      78.970  47.693   6.458  1.00  0.00    -0.105 NA
HETATM   39  N9  UNL     1      78.450  46.632   5.715  1.00  0.00    -0.013 NA
HETATM   40  N10 UNL     1      78.925  46.630   4.400  1.00  0.00    -0.115 N
HETATM   41  C12 UNL     1      78.072  46.481   3.259  1.00  0.00     0.194 C
ENDBRANCH  32  34
ENDBRANCH  24  32
ENDBRANCH   1  22
TORSDOF 10
ENDMDL