MODEL 5
REMARK VINA RESULT: -8.923037289      1.859      2.858
REMARK  13 active torsions:
REMARK  status: ('A' for Active; 'I' for Inactive)
REMARK    1  A    between atoms: C2_3  and  C3_4
REMARK    2  A    between atoms: C3_4  and  O2_6
REMARK    3  A    between atoms: O2_6  and  C4_7
REMARK    4  A    between atoms: C4_7  and  O3_8
REMARK    5  A    between atoms: O3_8  and  C5_9
REMARK    6  A    between atoms: C6_14  and  C7_15
REMARK    7  A    between atoms: N4_16  and  N5_18
REMARK    8  A    between atoms: N5_18  and  C8_20
REMARK    9  A    between atoms: C9_21  and  N6_22
REMARK   10  A    between atoms: N8_29  and  O4_30
REMARK   11  A    between atoms: N9_32  and  O5_33
REMARK   12  A    between atoms: N11_38  and  N12_39
REMARK   13  A    between atoms: C13_42  and  N13_43
ROOT
HETATM    1  C7  UNL     1      84.441  45.929   2.233  1.00  0.00     0.142 C
HETATM    2  N4  UNL     1      83.450  45.911   2.957  1.00  0.00    -0.308 N
ATOM      3  H4  UNL     1      83.295  44.941   3.232  1.00  0.00     0.186 HD
ENDROOT
BRANCH   1   4
HETATM    4  C6  UNL     1      85.117  47.045   1.554  1.00  0.00     0.124 A
HETATM    5  C2  UNL     1      85.319  48.293   2.143  1.00  0.00     0.157 A
HETATM    6  N1  UNL     1      85.968  49.018   1.194  1.00  0.00    -0.178 N
HETATM    7  C1  UNL     1      86.388  50.408   1.376  1.00  0.00     0.176 C
HETATM    8  C13 UNL     1      86.172  48.321   0.096  1.00  0.00     0.699 A
HETATM    9  N11 UNL     1      85.644  47.103   0.328  1.00  0.00    -0.089 N
BRANCH   5  10
HETATM   10  C3  UNL     1      84.956  48.793   3.455  1.00  0.00     0.315 C
HETATM   11  O1  UNL     1      85.812  48.691   4.408  1.00  0.00    -0.257 OA
BRANCH  10  12
HETATM   12  O2  UNL     1      83.778  49.379   3.825  1.00  0.00    -0.290 OA
BRANCH  12  13
HETATM   13  C4  UNL     1      83.417  49.699   5.145  1.00  0.00     0.358 C
BRANCH  13  14
HETATM   14  O3  UNL     1      82.386  48.872   5.640  1.00  0.00    -0.298 OA
BRANCH  14  15
HETATM   15  C5  UNL     1      81.101  49.398   5.656  1.00  0.00     0.227 C
HETATM   16  N2  UNL     1      80.868  50.627   5.346  1.00  0.00    -0.368 N
ATOM     17  H22 UNL     1      81.673  51.197   5.088  1.00  0.00     0.159 HD
ATOM     18  H21 UNL     1      79.924  51.014   5.357  1.00  0.00     0.159 HD
HETATM   19  N3  UNL     1      79.966  48.594   6.019  1.00  0.00    -0.057 NA
ENDBRANCH  14  15
ENDBRANCH  13  14
ENDBRANCH  12  13
ENDBRANCH  10  12
ENDBRANCH   5  10
BRANCH   8  20
HETATM   20  N13 UNL     1      86.750  48.671  -1.002  1.00  0.00    -0.233 N
ATOM     21 2H13 UNL     1      86.939  49.635  -1.275  1.00  0.00     0.174 HD
ATOM     22 1H13 UNL     1      87.106  48.090  -1.761  1.00  0.00     0.174 HD
ENDBRANCH   8  20
BRANCH   9  23
HETATM   23  N12 UNL     1      85.673  46.089  -0.619  1.00  0.00    -0.324 N
ATOM     24 2H12 UNL     1      86.495  45.904  -1.195  1.00  0.00     0.178 HD
ATOM     25 1H12 UNL     1      84.921  45.439  -0.846  1.00  0.00     0.178 HD
ENDBRANCH   9  23
ENDBRANCH   1   4
BRANCH   2  26
HETATM   26  N5  UNL     1      82.504  46.632   3.524  1.00  0.00    -0.281 N
ATOM     27  H5  UNL     1      82.843  47.296   4.221  1.00  0.00     0.188 HD
BRANCH  26  28
HETATM   28  C8  UNL     1      81.245  46.647   3.357  1.00  0.00     0.193 A
HETATM   29  C9  UNL     1      80.415  46.246   4.375  1.00  0.00     0.149 A
HETATM   30  N7  UNL     1      79.057  46.251   4.225  1.00  0.00    -0.323 N
HETATM   31  C10 UNL     1      78.544  46.660   3.049  1.00  0.00     0.153 A
ATOM     32  H7  UNL     1      78.446  45.951   4.985  1.00  0.00     0.169 HD
HETATM   33  C11 UNL     1      79.353  47.067   2.012  1.00  0.00     0.202 A
HETATM   34  N10 UNL     1      77.183  46.768   2.613  1.00  0.00    -0.355 N
HETATM   35  N8  UNL     1      80.705  47.048   2.199  1.00  0.00    -0.180 N
HETATM   36  N9  UNL     1      78.543  47.444   0.895  1.00  0.00    -0.221 N
HETATM   37  C12 UNL     1      77.155  47.427   1.315  1.00  0.00     0.281 C
ATOM     38  H10 UNL     1      76.368  46.438   3.127  1.00  0.00     0.163 HD
BRANCH  29  39
HETATM   39  N6  UNL     1      80.946  45.862   5.482  1.00  0.00    -0.382 N
ATOM     40  H62 UNL     1      80.369  45.455   6.218  1.00  0.00     0.157 HD
ATOM     41  H61 UNL     1      81.953  45.975   5.602  1.00  0.00     0.157 HD
ENDBRANCH  29  39
BRANCH  35  42
HETATM   42  O4  UNL     1      81.480  47.461   1.145  1.00  0.00    -0.279 OA
ATOM     43  H4  UNL     1      82.044  46.860   0.673  1.00  0.00     0.245 HD
ENDBRANCH  35  42
BRANCH  36  44
HETATM   44  O5  UNL     1      78.963  47.769  -0.354  1.00  0.00    -0.284 OA
ATOM     45  H5  UNL     1      78.424  47.997  -1.102  1.00  0.00     0.245 HD
ENDBRANCH  36  44
ENDBRANCH  26  28
ENDBRANCH   2  26
TORSDOF 13
ENDMDL