MODEL 3
REMARK VINA RESULT: -8.354429800      2.326      2.987
REMARK  14 active torsions:
REMARK  status: ('A' for Active; 'I' for Inactive)
REMARK    1  A    between atoms: O1_2  and  C2_3
REMARK    2  A    between atoms: C2_3  and  C3_5
REMARK    3  A    between atoms: C4_7  and  C5_8
REMARK    4  A    between atoms: C5_8  and  N2_12
REMARK    5  A    between atoms: N2_12  and  C6_14
REMARK    6  A    between atoms: N5_18  and  C7_19
REMARK    7  A    between atoms: C7_19  and  O3_21
REMARK    8  A    between atoms: C9_23  and  C10_24
REMARK    9  A    between atoms: C10_24  and  O4_25
REMARK   10  A    between atoms: C10_24  and  N6_27
REMARK   11  A    between atoms: N6_27  and  O5_29
REMARK   12  A    between atoms: O5_29  and  N7_30
REMARK   13  A    between atoms: C11_35  and  C12_36
REMARK       I    between atoms: C12_36  and  N9_38
REMARK   14  A    between atoms: N9_38  and  N10_40
ROOT
HETATM    1  C5  UNL     1      87.091  51.900   3.529  1.00  0.00     0.134 C
HETATM    2  N1  UNL     1      86.901  52.352   4.706  1.00  0.00    -0.383 N
ATOM      3  H11 UNL     1      87.415  53.192   4.973  1.00  0.00     0.157 HD
ATOM      4  H12 UNL     1      86.270  51.917   5.379  1.00  0.00     0.157 HD
ENDROOT
BRANCH   1   5
HETATM    5  C4  UNL     1      86.349  50.687   3.144  1.00  0.00     0.119 A
HETATM    6  S1  UNL     1      85.200  49.818   4.029  1.00  0.00    -0.060 SA
HETATM    7  C3  UNL     1      84.847  48.569   2.849  1.00  0.00     0.114 A
HETATM    8  C11 UNL     1      85.672  48.940   1.837  1.00  0.00     0.126 A
HETATM    9  N8  UNL     1      86.409  50.010   2.026  1.00  0.00    -0.342 N
ATOM     10  H8  UNL     1      87.041  50.320   1.287  1.00  0.00     0.167 HD
BRANCH   7  11
HETATM   11  C2  UNL     1      83.892  47.487   3.055  1.00  0.00     0.302 C
HETATM   12  O2  UNL     1      82.708  47.638   3.237  1.00  0.00    -0.259 OA
BRANCH  11  13
HETATM   13  O1  UNL     1      84.354  46.152   3.044  1.00  0.00    -0.322 OA
HETATM   14  C1  UNL     1      83.427  45.084   2.844  1.00  0.00     0.213 C
ENDBRANCH  11  13
ENDBRANCH   7  11
BRANCH   8  15
HETATM   15  C12 UNL     1      85.794  48.224   0.531  1.00  0.00     0.287 C
HETATM   16  O6  UNL     1      85.957  48.837  -0.502  1.00  0.00    -0.264 OA
HETATM   17  N9  UNL     1      85.721  46.797   0.485  1.00  0.00    -0.271 N
ATOM     18  H9  UNL     1      85.584  46.257   1.340  1.00  0.00     0.189 HD
BRANCH  17  19
HETATM   19  N10 UNL     1      85.839  46.161  -0.736  1.00  0.00    -0.342 N
ATOM     20 2H10 UNL     1      86.001  45.154  -0.765  1.00  0.00     0.176 HD
ATOM     21 1H10 UNL     1      85.761  46.713  -1.589  1.00  0.00     0.176 HD
ENDBRANCH  17  19
ENDBRANCH   8  15
ENDBRANCH   1   5
BRANCH   1  22
HETATM   22  N2  UNL     1      87.962  52.502   2.599  1.00  0.00    -0.327 N
ATOM     23  H2  UNL     1      87.862  52.286   1.607  1.00  0.00     0.169 HD
BRANCH  22  24
HETATM   24  C6  UNL     1      88.981  53.405   3.018  1.00  0.00     0.128 A
HETATM   25  N3  UNL     1      90.235  53.204   3.243  1.00  0.00    -0.271 N
HETATM   26  N4  UNL     1      90.854  54.383   3.638  1.00  0.00    -0.020 NA
ATOM     27  H3  UNL     1      90.707  52.304   3.144  1.00  0.00     0.185 HD
HETATM   28  N5  UNL     1      89.888  55.396   3.608  1.00  0.00    -0.264 N
HETATM   29  C9  UNL     1      88.651  54.858   3.275  1.00  0.00     0.247 A
BRANCH  28  30
HETATM   30  C7  UNL     1      90.350  56.626   3.146  1.00  0.00     0.231 C
HETATM   31  C8  UNL     1      91.272  57.353   4.093  1.00  0.00     0.064 C
BRANCH  30  32
HETATM   32  O3  UNL     1      90.933  56.611   1.882  1.00  0.00    -0.376 OA
ATOM     33  H3  UNL     1      90.643  55.914   1.304  1.00  0.00     0.212 HD
ENDBRANCH  30  32
ENDBRANCH  28  30
BRANCH  29  34
HETATM   34  C10 UNL     1      87.922  55.346   2.114  1.00  0.00     0.170 C
BRANCH  34  35
HETATM   35  O4  UNL     1      88.413  55.078   0.843  1.00  0.00    -0.346 OA
ATOM     36  H4  UNL     1      89.348  55.140   0.683  1.00  0.00     0.219 HD
ENDBRANCH  34  35
BRANCH  34  37
HETATM   37  N6  UNL     1      86.840  56.017   2.207  1.00  0.00    -0.222 N
ATOM     38  H6  UNL     1      86.680  56.561   3.055  1.00  0.00     0.198 HD
BRANCH  37  39
HETATM   39  O5  UNL     1      85.884  56.043   1.230  1.00  0.00    -0.162 OA
BRANCH  39  40
HETATM   40  N7  UNL     1      85.592  54.962   0.477  1.00  0.00    -0.286 N
ATOM     41  H72 UNL     1      86.319  54.602  -0.142  1.00  0.00     0.186 HD
ATOM     42  H71 UNL     1      84.681  54.504   0.510  1.00  0.00     0.186 HD
ENDBRANCH  39  40
ENDBRANCH  37  39
ENDBRANCH  34  37
ENDBRANCH  29  34
ENDBRANCH  22  24
ENDBRANCH   1  22
TORSDOF 14
ENDMDL