MODEL 1
REMARK VINA RESULT: -10.241467103      0.000      0.000
REMARK  11 active torsions:
REMARK  status: ('A' for Active; 'I' for Inactive)
REMARK    1  A    between atoms: C2_2  and  N1_3
REMARK    2  A    between atoms: C2_2  and  C4_10
REMARK    3  A    between atoms: N1_3  and  N2_5
REMARK       I    between atoms: N2_5  and  C3_7
REMARK    4  A    between atoms: C5_13  and  N6_14
REMARK    5  A    between atoms: C6_19  and  C7_20
REMARK    6  A    between atoms: C7_20  and  N9_21
REMARK    7  A    between atoms: C9_25  and  O1_26
REMARK    8  A    between atoms: C10_30  and  N12_31
REMARK    9  A    between atoms: C12_40  and  O3_41
REMARK   10  A    between atoms: O3_41  and  N15_42
REMARK   11  A    between atoms: N15_42  and  N16_43
ROOT
HETATM    1  N6  UNL     1      86.755  51.640   2.606  1.00  0.00    -0.139 N
HETATM    2  N7  UNL     1      86.687  52.424   1.550  1.00  0.00    -0.216 N
ATOM      3  H7  UNL     1      85.975  52.357   0.822  1.00  0.00     0.210 HD
HETATM    4  N8  UNL     1      87.666  53.310   1.564  1.00  0.00    -0.270 N
ATOM      5  H8  UNL     1      87.840  54.032   0.864  1.00  0.00     0.190 HD
HETATM    6  C6  UNL     1      88.383  53.087   2.659  1.00  0.00     0.133 A
HETATM    7  N14 UNL     1      87.799  52.035   3.304  1.00  0.00    -0.260 N
ATOM      8  H14 UNL     1      88.119  51.624   4.181  1.00  0.00     0.190 HD
ENDROOT
BRANCH   1   9
HETATM    9  C5  UNL     1      85.887  50.554   2.970  1.00  0.00     0.270 A
HETATM   10  N5  UNL     1      85.772  49.405   2.296  1.00  0.00    -0.313 N
HETATM   11  C4  UNL     1      84.851  48.587   2.922  1.00  0.00     0.120 A
ATOM     12  H5  UNL     1      86.286  49.169   1.447  1.00  0.00     0.170 HD
HETATM   13  C12 UNL     1      84.429  49.296   3.994  1.00  0.00     0.240 A
HETATM   14  O2  UNL     1      85.079  50.462   3.972  1.00  0.00    -0.249 OA
BRANCH  11  15
HETATM   15  C2  UNL     1      84.455  47.301   2.412  1.00  0.00     0.053 C
HETATM   16  C1  UNL     1      85.198  46.767   1.166  1.00  0.00     0.072 C
BRANCH  15  17
HETATM   17  N1  UNL     1      83.602  46.527   2.837  1.00  0.00    -0.301 N
ATOM     18  H1  UNL     1      83.872  45.579   2.577  1.00  0.00     0.186 HD
BRANCH  17  19
HETATM   19  N2  UNL     1      82.475  46.464   3.501  1.00  0.00    -0.276 N
HETATM   20  C3  UNL     1      81.289  46.857   3.173  1.00  0.00     0.215 C
HETATM   21  N3  UNL     1      80.253  46.639   4.140  1.00  0.00    -0.065 NA
HETATM   22  N4  UNL     1      81.016  47.476   1.917  1.00  0.00    -0.065 NA
ATOM     23  H2  UNL     1      82.544  46.036   4.424  1.00  0.00     0.189 HD
ENDBRANCH  17  19
ENDBRANCH  15  17
ENDBRANCH  11  15
BRANCH  13  24
HETATM   24  O3  UNL     1      83.496  48.957   5.000  1.00  0.00    -0.196 OA
BRANCH  24  25
HETATM   25  N15 UNL     1      82.510  49.885   5.340  1.00  0.00     0.021 NA
BRANCH  25  26
HETATM   26  N16 UNL     1      81.478  49.858   4.373  1.00  0.00    -0.322 N
ATOM     27 2H16 UNL     1      81.282  49.065   3.762  1.00  0.00     0.174 HD
ATOM     28 1H16 UNL     1      80.972  50.744   4.386  1.00  0.00     0.174 HD
ENDBRANCH  25  26
ENDBRANCH  24  25
ENDBRANCH  13  24
ENDBRANCH   1   9
BRANCH   6  29
HETATM   29  C7  UNL     1      89.590  53.831   3.106  1.00  0.00     0.230 C
BRANCH  29  30
HETATM   30  N9  UNL     1      89.151  55.113   3.655  1.00  0.00    -0.266 N
HETATM   31  N10 UNL     1      89.698  56.296   3.773  1.00  0.00    -0.289 N
HETATM   32  C8  UNL     1      88.616  56.802   4.362  1.00  0.00     0.146 A
ATOM     33  H10 UNL     1      90.605  56.683   3.513  1.00  0.00     0.187 HD
HETATM   34  C9  UNL     1      87.943  57.862   4.943  1.00  0.00     0.187 A
HETATM   35  C11 UNL     1      88.046  55.556   4.235  1.00  0.00     0.171 A
HETATM   36  N11 UNL     1      86.699  57.646   5.390  1.00  0.00    -0.168 N
HETATM   37  C10 UNL     1      86.141  56.424   5.267  1.00  0.00     0.679 A
ATOM     38  H11 UNL     1      86.174  58.405   5.825  1.00  0.00     0.186 HD
HETATM   39  N13 UNL     1      86.790  55.383   4.700  1.00  0.00    -0.173 N
ATOM     40  H13 UNL     1      86.334  54.473   4.623  1.00  0.00     0.186 HD
BRANCH  34  41
HETATM   41  O1  UNL     1      88.573  59.086   5.038  1.00  0.00    -0.344 OA
ATOM     42  H1  UNL     1      88.046  59.873   5.110  1.00  0.00     0.219 HD
ENDBRANCH  34  41
BRANCH  37  43
HETATM   43  N12 UNL     1      84.929  56.213   5.702  1.00  0.00    -0.234 N
ATOM     44 2H12 UNL     1      84.732  55.307   6.128  1.00  0.00     0.174 HD
ATOM     45 1H12 UNL     1      84.220  56.941   5.610  1.00  0.00     0.174 HD
ENDBRANCH  37  43
ENDBRANCH  29  30
ENDBRANCH   6  29
TORSDOF 11
ENDMDL