MODEL 1
REMARK VINA RESULT: -10.251911141      0.000      0.000
REMARK  13 active torsions:
REMARK  status: ('A' for Active; 'I' for Inactive)
REMARK    1  A    between atoms: C2_2  and  C12_26
REMARK    2  A    between atoms: N1_3  and  O1_5
REMARK    3  A    between atoms: O1_5  and  C3_6
REMARK    4  A    between atoms: C3_6  and  C4_8
REMARK    5  A    between atoms: C4_8  and  O3_9
REMARK    6  A    between atoms: C4_8  and  C5_11
REMARK    7  A    between atoms: C6_13  and  C7_14
REMARK    8  A    between atoms: C7_14  and  O5_16
REMARK    9  A    between atoms: C9_18  and  O6_19
REMARK   10  A    between atoms: C11_23  and  O8_24
REMARK   11  A    between atoms: C13_27  and  O9_28
REMARK   12  A    between atoms: N3_34  and  N4_35
REMARK   13  A    between atoms: C15_38  and  N5_39
ROOT
HETATM    1  O1  UNL     1      83.169  49.506   5.163  1.00  0.00    -0.193 OA
ENDROOT
BRANCH   1   2
HETATM    2  N1  UNL     1      83.563  48.875   3.998  1.00  0.00    -0.261 N
HETATM    3  C2  UNL     1      84.754  48.965   3.526  1.00  0.00     0.047 C
HETATM    4  C1  UNL     1      85.720  49.777   4.271  1.00  0.00     0.071 C
ATOM      5  H1  UNL     1      82.878  48.314   3.491  1.00  0.00     0.194 HD
BRANCH   3   6
HETATM    6  C12 UNL     1      85.088  48.275   2.301  1.00  0.00     0.084 A
HETATM    7  C13 UNL     1      84.660  46.946   2.105  1.00  0.00     0.160 A
HETATM    8  N2  UNL     1      84.929  46.241   1.002  1.00  0.00    -0.287 N
HETATM    9  C14 UNL     1      85.652  46.827   0.015  1.00  0.00     0.348 A
ATOM     10  H2  UNL     1      84.597  45.282   0.904  1.00  0.00     0.172 HD
HETATM   11  O10 UNL     1      85.884  46.117  -1.016  1.00  0.00    -0.245 OA
HETATM   12  N3  UNL     1      86.086  48.082   0.145  1.00  0.00    -0.195 N
HETATM   13  C15 UNL     1      85.818  48.799   1.255  1.00  0.00     0.141 A
BRANCH   7  14
HETATM   14  O9  UNL     1      83.911  46.387   3.161  1.00  0.00    -0.345 OA
ATOM     15  H9  UNL     1      83.451  45.581   2.955  1.00  0.00     0.219 HD
ENDBRANCH   7  14
BRANCH  12  16
HETATM   16  N4  UNL     1      86.825  48.671  -0.870  1.00  0.00    -0.333 N
ATOM     17  H42 UNL     1      87.838  48.729  -0.772  1.00  0.00     0.177 HD
ATOM     18  H41 UNL     1      86.356  49.036  -1.699  1.00  0.00     0.177 HD
ENDBRANCH  12  16
BRANCH  13  19
HETATM   19  N5  UNL     1      86.250  50.027   1.368  1.00  0.00    -0.383 N
ATOM     20  H52 UNL     1      85.721  50.710   1.911  1.00  0.00     0.157 HD
ATOM     21  H51 UNL     1      87.123  50.269   0.899  1.00  0.00     0.157 HD
ENDBRANCH  13  19
ENDBRANCH   3   6
ENDBRANCH   1   2
BRANCH   1  22
HETATM   22  C3  UNL     1      81.797  49.508   5.559  1.00  0.00     0.341 C
HETATM   23  O2  UNL     1      81.363  50.636   5.785  1.00  0.00    -0.255 OA
BRANCH  22  24
HETATM   24  C4  UNL     1      81.132  48.253   5.637  1.00  0.00     0.180 C
BRANCH  24  25
HETATM   25  O3  UNL     1      81.516  47.482   6.641  1.00  0.00    -0.353 OA
ATOM     26  H3  UNL     1      81.695  47.943   7.452  1.00  0.00     0.218 HD
ENDBRANCH  24  25
BRANCH  24  27
HETATM   27  C5  UNL     1      80.107  47.641   4.828  1.00  0.00     0.152 A
HETATM   28  O4  UNL     1      80.216  47.712   3.484  1.00  0.00    -0.303 OA
HETATM   29  C6  UNL     1      79.352  47.196   2.672  1.00  0.00     0.119 A
HETATM   30  C9  UNL     1      78.234  46.521   3.092  1.00  0.00     0.151 A
HETATM   31  C10 UNL     1      78.046  46.402   4.441  1.00  0.00     0.243 A
HETATM   32  O7  UNL     1      77.052  45.801   4.907  1.00  0.00    -0.282 OA
HETATM   33  C11 UNL     1      79.010  46.978   5.286  1.00  0.00     0.156 A
BRANCH  29  34
HETATM   34  C7  UNL     1      79.601  47.352   1.206  1.00  0.00     0.174 C
HETATM   35  C8  UNL     1      78.332  47.114   0.414  1.00  0.00     0.046 C
BRANCH  34  36
HETATM   36  O5  UNL     1      79.994  48.677   0.946  1.00  0.00    -0.389 OA
ATOM     37  H5  UNL     1      80.350  49.056   1.740  1.00  0.00     0.210 HD
ENDBRANCH  34  36
ENDBRANCH  29  34
BRANCH  30  38
HETATM   38  O6  UNL     1      77.320  45.976   2.171  1.00  0.00    -0.355 OA
ATOM     39  H6  UNL     1      77.369  46.180   1.245  1.00  0.00     0.218 HD
ENDBRANCH  30  38
BRANCH  33  40
HETATM   40  O8  UNL     1      78.778  46.832   6.624  1.00  0.00    -0.355 OA
ATOM     41  H8  UNL     1      79.494  46.813   7.248  1.00  0.00     0.218 HD
ENDBRANCH  33  40
ENDBRANCH  24  27
ENDBRANCH  22  24
ENDBRANCH   1  22
TORSDOF 13
ENDMDL