MODEL 3
REMARK VINA RESULT: -8.735294358      9.957     12.002
REMARK  12 active torsions:
REMARK  status: ('A' for Active; 'I' for Inactive)
REMARK    1  A    between atoms: N1_1  and  C1_4
REMARK    2  A    between atoms: N3_11  and  C4_12
REMARK    3  A    between atoms: C4_12  and  C5_13
REMARK    4  A    between atoms: C4_12  and  C6_16
REMARK    5  A    between atoms: C5_13  and  O3_14
REMARK    6  A    between atoms: C8_20  and  N4_21
REMARK    7  A    between atoms: N5_24  and  C9_25
REMARK    8  A    between atoms: C9_25  and  C10_26
REMARK    9  A    between atoms: C12_32  and  C13_33
REMARK   10  A    between atoms: C13_33  and  O8_34
REMARK   11  A    between atoms: C13_33  and  O9_36
REMARK   12  A    between atoms: C14_38  and  O10_39
ROOT
HETATM    1  C1  UNL     1      87.809  58.805   5.955  1.00  0.00     0.682 A
HETATM    2  N2  UNL     1      88.976  58.687   5.328  1.00  0.00    -0.168 N
ATOM      3  H2  UNL     1      89.672  59.421   5.462  1.00  0.00     0.186 HD
HETATM    4  C2  UNL     1      89.288  57.652   4.527  1.00  0.00     0.198 A
HETATM    5  O1  UNL     1      90.333  57.323   3.824  1.00  0.00    -0.241 OA
HETATM    6  C3  UNL     1      90.109  56.168   3.200  1.00  0.00     0.375 A
HETATM    7  O2  UNL     1      90.935  55.589   2.442  1.00  0.00    -0.237 OA
HETATM    8  N3  UNL     1      88.881  55.700   3.486  1.00  0.00    -0.269 N
HETATM    9  C7  UNL     1      88.349  56.642   4.333  1.00  0.00     0.137 A
HETATM   10  C8  UNL     1      87.155  56.794   4.992  1.00  0.00     0.149 A
HETATM   11  N5  UNL     1      86.881  57.847   5.786  1.00  0.00    -0.161 N
ENDROOT
BRANCH  11  12
HETATM   12  C9  UNL     1      85.618  57.942   6.422  1.00  0.00     0.209 C
BRANCH  12  13
HETATM   13  C10 UNL     1      85.478  57.548   7.813  1.00  0.00     0.069 A
HETATM   14  N6  UNL     1      86.413  56.690   8.278  1.00  0.00    -0.302 N
HETATM   15  C11 UNL     1      86.369  56.271   9.549  1.00  0.00     0.370 A
ATOM     16  H6  UNL     1      87.155  56.362   7.660  1.00  0.00     0.171 HD
HETATM   17  O6  UNL     1      87.270  55.463   9.941  1.00  0.00    -0.238 OA
HETATM   18  O7  UNL     1      85.425  56.685  10.349  1.00  0.00    -0.258 OA
HETATM   19  C12 UNL     1      84.464  57.532   9.971  1.00  0.00     0.147 A
HETATM   20  C14 UNL     1      84.492  57.972   8.672  1.00  0.00     0.125 A
BRANCH  19  21
HETATM   21  C13 UNL     1      83.441  57.937  10.986  1.00  0.00     0.316 C
BRANCH  21  22
HETATM   22  O8  UNL     1      82.144  57.786  10.602  1.00  0.00    -0.365 OA
ATOM     23  H8  UNL     1      81.495  58.086  11.228  1.00  0.00     0.213 HD
ENDBRANCH  21  22
BRANCH  21  24
HETATM   24  O9  UNL     1      83.646  59.283  11.281  1.00  0.00    -0.365 OA
ATOM     25  H9  UNL     1      84.491  59.531  10.926  1.00  0.00     0.213 HD
ENDBRANCH  21  24
ENDBRANCH  19  21
BRANCH  20  26
HETATM   26  O10 UNL     1      83.517  58.843   8.238  1.00  0.00    -0.356 OA
ATOM     27  H10 UNL     1      83.702  59.464   7.543  1.00  0.00     0.218 HD
ENDBRANCH  20  26
ENDBRANCH  12  13
ENDBRANCH  11  12
BRANCH   1  28
HETATM   28  N1  UNL     1      87.547  59.843   6.726  1.00  0.00    -0.234 N
ATOM     29  H12 UNL     1      87.927  59.881   7.672  1.00  0.00     0.174 HD
ATOM     30  H11 UNL     1      86.963  60.613   6.399  1.00  0.00     0.174 HD
ENDBRANCH   1  28
BRANCH  10  31
HETATM   31  N4  UNL     1      86.280  55.854   4.811  1.00  0.00    -0.383 N
ATOM     32  H42 UNL     1      86.571  54.882   4.713  1.00  0.00     0.157 HD
ATOM     33  H41 UNL     1      85.304  56.150   4.775  1.00  0.00     0.157 HD
ENDBRANCH  10  31
BRANCH   8  34
HETATM   34  C4  UNL     1      88.176  54.524   3.076  1.00  0.00     0.220 C
BRANCH  34  35
HETATM   35  C5  UNL     1      88.228  54.370   1.561  1.00  0.00     0.201 C
BRANCH  35  36
HETATM   36  O3  UNL     1      87.584  53.181   1.180  1.00  0.00    -0.398 OA
ATOM     37  H3  UNL     1      86.992  53.352   0.456  1.00  0.00     0.209 HD
ENDBRANCH  35  36
ENDBRANCH  34  35
BRANCH  34  38
HETATM   38  C6  UNL     1      88.845  53.280   3.615  1.00  0.00     0.199 C
HETATM   39  O4  UNL     1      88.396  52.706   4.623  1.00  0.00    -0.646 OA
HETATM   40  O5  UNL     1      89.963  52.777   2.986  1.00  0.00    -0.646 OA
ENDBRANCH  34  38
ENDBRANCH   8  34
TORSDOF 12
ENDMDL