MODEL 3
REMARK VINA RESULT: -9.762328943      7.673     11.437
REMARK  7 active torsions:
REMARK  status: ('A' for Active; 'I' for Inactive)
REMARK    1  A    between atoms: N1_1  and  N2_4
REMARK       I    between atoms: N2_4  and  C1_6
REMARK    2  A    between atoms: C1_6  and  C2_8
REMARK    3  A    between atoms: N5_13  and  C3_14
REMARK    4  A    between atoms: C3_14  and  C4_15
REMARK    5  A    between atoms: C4_15  and  N6_16
REMARK    6  A    between atoms: N6_16  and  C5_17
REMARK    7  A    between atoms: N6_16  and  C9_32
ROOT
HETATM    1  N6  UNL     1      85.026  57.154   6.820  1.00  0.00    -0.164 N
ENDROOT
BRANCH   1   2
HETATM    2  C4  UNL     1      85.185  56.527   5.540  1.00  0.00     0.171 C
BRANCH   2   3
HETATM    3  C3  UNL     1      86.317  57.058   4.708  1.00  0.00     0.173 C
BRANCH   3   4
HETATM    4  N5  UNL     1      87.201  55.908   4.466  1.00  0.00    -0.261 N
HETATM    5  N4  UNL     1      86.900  54.646   4.559  1.00  0.00    -0.238 N
HETATM    6  N3  UNL     1      87.952  53.884   4.273  1.00  0.00    -0.278 N
ATOM      7  H4  UNL     1      85.981  54.288   4.816  1.00  0.00     0.208 HD
HETATM    8  C2  UNL     1      88.995  54.672   3.977  1.00  0.00     0.161 A
ATOM      9  H3  UNL     1      87.963  52.864   4.279  1.00  0.00     0.189 HD
HETATM   10  C13 UNL     1      88.519  55.965   4.099  1.00  0.00     0.168 A
HETATM   11  N16 UNL     1      89.254  57.136   3.895  1.00  0.00    -0.078 NA
BRANCH   8  12
HETATM   12  C1  UNL     1      90.359  54.276   3.571  1.00  0.00     0.291 C
HETATM   13  N2  UNL     1      91.488  54.963   4.112  1.00  0.00    -0.271 N
ATOM     14  H2  UNL     1      91.368  55.732   4.771  1.00  0.00     0.189 HD
HETATM   15  O1  UNL     1      90.513  53.346   2.762  1.00  0.00    -0.264 OA
BRANCH  13  16
HETATM   16  N1  UNL     1      92.767  54.549   3.710  1.00  0.00    -0.342 N
ATOM     17  H12 UNL     1      93.525  54.499   4.391  1.00  0.00     0.176 HD
ATOM     18  H11 UNL     1      92.906  54.305   2.730  1.00  0.00     0.176 HD
ENDBRANCH  13  16
ENDBRANCH   8  12
ENDBRANCH   3   4
ENDBRANCH   2   3
ENDBRANCH   1   2
BRANCH   1  19
HETATM   19  C5  UNL     1      83.747  57.687   7.177  1.00  0.00     0.688 A
HETATM   20  N7  UNL     1      82.569  57.044   7.309  1.00  0.00    -0.172 N
HETATM   21  C6  UNL     1      81.617  57.911   7.678  1.00  0.00     0.167 A
ATOM     22  H7  UNL     1      82.424  56.047   7.152  1.00  0.00     0.186 HD
HETATM   23  N8  UNL     1      80.311  57.837   7.945  1.00  0.00    -0.269 N
HETATM   24  C8  UNL     1      82.230  59.150   7.780  1.00  0.00     0.137 A
HETATM   25  N9  UNL     1      79.561  58.881   8.305  1.00  0.00    -0.240 N
ATOM     26  H8  UNL     1      79.859  56.927   7.870  1.00  0.00     0.190 HD
HETATM   27  N10 UNL     1      80.111  60.075   8.417  1.00  0.00    -0.271 N
ATOM     28  H9  UNL     1      78.566  58.755   8.493  1.00  0.00     0.208 HD
HETATM   29  C7  UNL     1      81.429  60.207   8.158  1.00  0.00     0.163 A
ATOM     30  H10 UNL     1      79.551  60.883   8.693  1.00  0.00     0.190 HD
HETATM   31  N11 UNL     1      82.092  61.480   8.272  1.00  0.00    -0.079 NA
HETATM   32  N12 UNL     1      83.528  58.974   7.467  1.00  0.00    -0.184 N
ATOM     33  H12 UNL     1      84.236  59.709   7.453  1.00  0.00     0.184 HD
ENDBRANCH   1  19
BRANCH   1  34
HETATM   34  C9  UNL     1      86.042  57.319   7.786  1.00  0.00     0.154 A
HETATM   35  N13 UNL     1      87.022  58.247   7.741  1.00  0.00    -0.336 N
HETATM   36  C10 UNL     1      87.965  58.330   8.691  1.00  0.00     0.185 A
ATOM     37  H13 UNL     1      87.046  58.904   6.962  1.00  0.00     0.168 HD
HETATM   38  N14 UNL     1      88.002  57.501   9.747  1.00  0.00    -0.318 N
HETATM   39  C11 UNL     1      87.055  56.554   9.855  1.00  0.00     0.274 A
ATOM     40  H14 UNL     1      88.732  57.589  10.453  1.00  0.00     0.169 HD
HETATM   41  O2  UNL     1      87.083  55.775  10.844  1.00  0.00    -0.266 OA
HETATM   42  C12 UNL     1      86.067  56.465   8.864  1.00  0.00     0.158 A
HETATM   43  N15 UNL     1      85.066  55.470   8.992  1.00  0.00    -0.092 NA
ENDBRANCH   1  34
TORSDOF 7
ENDMDL