MODEL 1
REMARK VINA RESULT: -8.964650041      0.000      0.000
REMARK  18 active torsions:
REMARK  status: ('A' for Active; 'I' for Inactive)
REMARK    1  A    between atoms: N1_1  and  C1_4
REMARK    2  A    between atoms: C4_12  and  N4_13
REMARK    3  A    between atoms: C7_16  and  N5_17
REMARK    4  A    between atoms: C9_22  and  C10_23
REMARK    5  A    between atoms: C10_23  and  N6_24
REMARK    6  A    between atoms: N7_28  and  C11_29
REMARK    7  A    between atoms: C11_29  and  C12_30
REMARK    8  A    between atoms: C12_30  and  C13_31
REMARK    9  A    between atoms: C13_31  and  N8_32
REMARK   10  A    between atoms: C14_35  and  C15_36
REMARK   11  A    between atoms: C16_37  and  O2_38
REMARK   12  A    between atoms: C16_37  and  C17_40
REMARK   13  A    between atoms: C17_40  and  O4_42
REMARK   14  A    between atoms: O4_42  and  C18_43
REMARK   15  A    between atoms: C20_48  and  C21_49
REMARK   16  A    between atoms: C21_49  and  S1_50
REMARK   17  A    between atoms: S1_50  and  C22_51
REMARK   18  A    between atoms: C25_60  and  O5_61
ROOT
HETATM    1  C12 UNL     1     -53.689  59.811   7.484  1.00  0.00     0.043 C
ENDROOT
BRANCH   1   2
HETATM    2  C11 UNL     1     -54.098  59.119   8.767  1.00  0.00     0.151 C
BRANCH   2   3
HETATM    3  N7  UNL     1     -54.661  60.043   9.722  1.00  0.00    -0.165 N
HETATM    4  C4  UNL     1     -55.935  60.350   9.998  1.00  0.00     0.685 A
HETATM    5  N3  UNL     1     -55.879  61.291  11.016  1.00  0.00    -0.182 N
HETATM    6  C3  UNL     1     -54.634  61.553  11.352  1.00  0.00     0.162 A
ATOM      7  H3  UNL     1     -56.697  61.722  11.448  1.00  0.00     0.184 HD
HETATM    8  C2  UNL     1     -54.084  62.409  12.297  1.00  0.00     0.290 A
HETATM    9  C26 UNL     1     -53.852  60.778  10.547  1.00  0.00     0.172 A
HETATM   10  N2  UNL     1     -52.743  62.438  12.382  1.00  0.00    -0.154 N
HETATM   11  O1  UNL     1     -54.818  63.125  13.038  1.00  0.00    -0.265 OA
HETATM   12  C1  UNL     1     -51.944  61.690  11.609  1.00  0.00     0.680 A
ATOM     13  H2  UNL     1     -52.314  63.058  13.068  1.00  0.00     0.187 HD
HETATM   14  N15 UNL     1     -52.511  60.875  10.707  1.00  0.00    -0.174 N
ATOM     15  H15 UNL     1     -51.906  60.304  10.117  1.00  0.00     0.186 HD
BRANCH   4  16
HETATM   16  N4  UNL     1     -57.135  59.865   9.455  1.00  0.00    -0.211 N
HETATM   17  C5  UNL     1     -57.780  58.641   9.664  1.00  0.00     0.144 C
HETATM   18  C6  UNL     1     -57.557  57.784   8.415  1.00  0.00     0.053 C
HETATM   19  C7  UNL     1     -57.760  58.644   7.221  1.00  0.00     0.187 C
HETATM   20  C8  UNL     1     -58.494  59.927   7.490  1.00  0.00     0.060 C
HETATM   21  C9  UNL     1     -57.857  60.775   8.542  1.00  0.00     0.129 C
BRANCH  19  22
HETATM   22  N5  UNL     1     -58.546  57.897   6.250  1.00  0.00    -0.075 N
ATOM     23  H53 UNL     1     -58.689  56.925   6.525  1.00  0.00     0.274 HD
ATOM     24  H52 UNL     1     -59.525  58.181   6.234  1.00  0.00     0.274 HD
ATOM     25  H51 UNL     1     -58.095  57.986   5.339  1.00  0.00     0.274 HD
ENDBRANCH  19  22
BRANCH  21  26
HETATM   26  C10 UNL     1     -59.003  61.445   9.314  1.00  0.00     0.255 C
BRANCH  26  27
HETATM   27  N6  UNL     1     -60.089  61.642   8.373  1.00  0.00    -0.077 N
ATOM     28  H63 UNL     1     -59.851  61.361   7.422  1.00  0.00     0.274 HD
ATOM     29  H62 UNL     1     -60.862  60.991   8.512  1.00  0.00     0.274 HD
ATOM     30  H61 UNL     1     -60.371  62.620   8.444  1.00  0.00     0.274 HD
ENDBRANCH  26  27
ENDBRANCH  21  26
ENDBRANCH   4  16
BRANCH  12  31
HETATM   31  N1  UNL     1     -50.645  61.736  11.711  1.00  0.00    -0.234 N
ATOM     32  H12 UNL     1     -50.208  62.458  12.283  1.00  0.00     0.174 HD
ATOM     33  H11 UNL     1     -50.042  61.066  11.232  1.00  0.00     0.174 HD
ENDBRANCH  12  31
ENDBRANCH   2   3
ENDBRANCH   1   2
BRANCH   1  34
HETATM   34  C13 UNL     1     -52.235  59.562   7.161  1.00  0.00     0.153 C
BRANCH  34  35
HETATM   35  N8  UNL     1     -52.056  59.739   5.712  1.00  0.00    -0.271 N
HETATM   36  N9  UNL     1     -52.299  58.833   4.796  1.00  0.00    -0.296 N
HETATM   37  C14 UNL     1     -52.033  59.312   3.574  1.00  0.00     0.055 A
ATOM     38  H9  UNL     1     -52.643  57.892   4.988  1.00  0.00     0.187 HD
HETATM   39  C24 UNL     1     -51.595  60.603   3.745  1.00  0.00     0.088 A
HETATM   40  C25 UNL     1     -51.620  60.844   5.095  1.00  0.00     0.159 A
BRANCH  37  41
HETATM   41  C15 UNL     1     -52.181  58.601   2.293  1.00  0.00     0.074 C
HETATM   42  C16 UNL     1     -51.789  57.366   2.149  1.00  0.00     0.143 C
BRANCH  42  43
HETATM   43  O2  UNL     1     -51.217  56.702   3.232  1.00  0.00    -0.355 OA
ATOM     44  H2  UNL     1     -51.475  55.806   3.416  1.00  0.00     0.218 HD
ENDBRANCH  42  43
BRANCH  42  45
HETATM   45  C17 UNL     1     -51.953  56.706   0.868  1.00  0.00     0.317 C
HETATM   46  O3  UNL     1     -51.071  55.876   0.491  1.00  0.00    -0.257 OA
BRANCH  45  47
HETATM   47  O4  UNL     1     -53.018  56.929   0.024  1.00  0.00    -0.303 OA
BRANCH  47  48
HETATM   48  C18 UNL     1     -52.854  57.060  -1.392  1.00  0.00     0.196 C
HETATM   49  C19 UNL     1     -53.382  55.852  -2.086  1.00  0.00     0.173 C
HETATM   50  N10 UNL     1     -54.146  56.416  -3.186  1.00  0.00    -0.139 NA
HETATM   51  N11 UNL     1     -54.454  57.760  -2.881  1.00  0.00    -0.309 N
HETATM   52  C20 UNL     1     -53.754  58.148  -1.890  1.00  0.00     0.040 C
ATOM     53  H11 UNL     1     -55.135  58.334  -3.379  1.00  0.00     0.182 HD
BRANCH  52  54
HETATM   54  C21 UNL     1     -53.803  59.498  -1.289  1.00  0.00     0.138 C
BRANCH  54  55
HETATM   55  S1  UNL     1     -55.410  59.906  -0.599  1.00  0.00    -0.087 SA
BRANCH  55  56
HETATM   56  C22 UNL     1     -55.322  61.167   0.647  1.00  0.00     0.160 A
HETATM   57  N12 UNL     1     -56.307  62.064   0.953  1.00  0.00    -0.331 N
HETATM   58  C23 UNL     1     -55.806  62.818   1.938  1.00  0.00     0.199 A
ATOM     59  H12 UNL     1     -57.228  62.142   0.521  1.00  0.00     0.168 HD
HETATM   60  N13 UNL     1     -54.559  62.420   2.246  1.00  0.00    -0.294 N
HETATM   61  N14 UNL     1     -54.284  61.412   1.446  1.00  0.00    -0.279 N
ATOM     62  H13 UNL     1     -53.947  62.819   2.959  1.00  0.00     0.187 HD
ATOM     63  H14 UNL     1     -53.405  60.894   1.438  1.00  0.00     0.189 HD
ENDBRANCH  55  56
ENDBRANCH  54  55
ENDBRANCH  52  54
ENDBRANCH  47  48
ENDBRANCH  45  47
ENDBRANCH  42  45
ENDBRANCH  37  41
BRANCH  40  64
HETATM   64  O5  UNL     1     -51.264  62.012   5.743  1.00  0.00    -0.345 OA
ATOM     65  H5  UNL     1     -51.516  62.882   5.457  1.00  0.00     0.219 HD
ENDBRANCH  40  64
ENDBRANCH  34  35
ENDBRANCH   1  34
TORSDOF 18
ENDMDL