MODEL 1
REMARK VINA RESULT: -9.751658923      0.000      0.000
REMARK  18 active torsions:
REMARK  status: ('A' for Active; 'I' for Inactive)
REMARK    1  A    between atoms: C2_2  and  O2_4
REMARK    2  A    between atoms: O2_4  and  C3_5
REMARK    3  A    between atoms: C3_5  and  C4_6
REMARK    4  A    between atoms: C3_5  and  C19_52
REMARK    5  A    between atoms: C4_6  and  O3_7
REMARK    6  A    between atoms: C4_6  and  N1_9
REMARK    7  A    between atoms: N1_9  and  S1_11
REMARK    8  A    between atoms: S1_11  and  N2_14
REMARK       I    between atoms: N2_14  and  C5_16
REMARK    9  A    between atoms: C5_16  and  C6_18
REMARK   10  A    between atoms: C7_21  and  C8_22
REMARK   11  A    between atoms: C8_22  and  O8_24
REMARK   12  A    between atoms: O8_24  and  C9_25
REMARK   13  A    between atoms: C9_25  and  C10_26
REMARK   14  A    between atoms: C12_28  and  N4_29
REMARK   15  A    between atoms: C14_31  and  N5_32
REMARK   16  A    between atoms: C17_41  and  N8_42
REMARK   17  A    between atoms: C18_47  and  N10_48
REMARK   18  A    between atoms: C19_52  and  O11_55
ROOT
HETATM    1  C6  UNL     1     -53.820  59.361   7.368  1.00  0.00     0.146 A
HETATM    2  N3  UNL     1     -53.708  59.451   6.068  1.00  0.00    -0.339 N
ATOM      3  H3  UNL     1     -54.538  59.338   5.486  1.00  0.00     0.167 HD
HETATM    4  C7  UNL     1     -52.555  59.684   5.502  1.00  0.00     0.150 A
HETATM    5  C18 UNL     1     -51.470  59.829   6.312  1.00  0.00     0.178 A
HETATM    6  S2  UNL     1     -52.228  59.611   7.883  1.00  0.00    -0.040 SA
ENDROOT
BRANCH   4   7
HETATM    7  C8  UNL     1     -52.476  59.769   4.017  1.00  0.00     0.313 C
HETATM    8  O7  UNL     1     -52.477  60.795   3.349  1.00  0.00    -0.257 OA
BRANCH   7   9
HETATM    9  O8  UNL     1     -52.390  58.579   3.262  1.00  0.00    -0.310 OA
BRANCH   9  10
HETATM   10  C9  UNL     1     -51.151  57.867   3.175  1.00  0.00     0.236 C
BRANCH  10  11
HETATM   11  C10 UNL     1     -50.756  57.916   1.748  1.00  0.00     0.054 A
HETATM   12  C11 UNL     1     -51.686  57.547   0.801  1.00  0.00     0.078 A
HETATM   13  C12 UNL     1     -51.330  57.587  -0.540  1.00  0.00     0.136 A
HETATM   14  N7  UNL     1     -50.090  57.980  -0.919  1.00  0.00    -0.176 N
HETATM   15  C17 UNL     1     -49.210  58.331   0.021  1.00  0.00     0.677 A
ATOM     16  H7  UNL     1     -49.834  58.007  -1.907  1.00  0.00     0.186 HD
HETATM   17  N9  UNL     1     -49.537  58.301   1.332  1.00  0.00    -0.194 N
ATOM     18  H9  UNL     1     -48.840  58.577   2.023  1.00  0.00     0.184 HD
BRANCH  13  19
HETATM   19  N4  UNL     1     -52.302  57.206  -1.490  1.00  0.00    -0.278 N
HETATM   20  C13 UNL     1     -52.081  57.485  -2.885  1.00  0.00     0.179 C
HETATM   21  C14 UNL     1     -52.503  56.386  -3.804  1.00  0.00     0.204 C
HETATM   22  C15 UNL     1     -53.749  55.737  -3.299  1.00  0.00     0.052 C
HETATM   23  C16 UNL     1     -54.415  56.486  -2.191  1.00  0.00     0.137 C
HETATM   24  N6  UNL     1     -53.463  56.568  -1.094  1.00  0.00    -0.137 NA
BRANCH  21  25
HETATM   25  N5  UNL     1     -51.410  55.430  -3.869  1.00  0.00    -0.073 N
ATOM     26  H53 UNL     1     -50.532  55.848  -4.175  1.00  0.00     0.274 HD
ATOM     27  H52 UNL     1     -51.097  55.121  -2.948  1.00  0.00     0.274 HD
ATOM     28  H51 UNL     1     -51.714  54.660  -4.466  1.00  0.00     0.274 HD
ENDBRANCH  21  25
ENDBRANCH  13  19
BRANCH  15  29
HETATM   29  N8  UNL     1     -48.026  58.707  -0.352  1.00  0.00    -0.234 N
ATOM     30  H82 UNL     1     -47.914  59.441  -1.051  1.00  0.00     0.174 HD
ATOM     31  H81 UNL     1     -47.217  58.250   0.069  1.00  0.00     0.174 HD
ENDBRANCH  15  29
ENDBRANCH  10  11
ENDBRANCH   9  10
ENDBRANCH   7   9
ENDBRANCH   4   7
BRANCH   5  32
HETATM   32  N10 UNL     1     -50.094  60.082   6.105  1.00  0.00    -0.106 N
HETATM   33  O9  UNL     1     -49.625  61.093   5.631  1.00  0.00    -0.531 OA
HETATM   34  O10 UNL     1     -49.205  59.080   6.479  1.00  0.00    -0.531 OA
ENDBRANCH   5  32
BRANCH   1  35
HETATM   35  C5  UNL     1     -55.050  59.089   8.168  1.00  0.00     0.290 C
HETATM   36  N2  UNL     1     -56.308  59.450   7.686  1.00  0.00    -0.231 N
ATOM     37  H2  UNL     1     -56.326  59.904   6.772  1.00  0.00     0.183 HD
HETATM   38  O6  UNL     1     -54.847  58.536   9.252  1.00  0.00    -0.264 OA
BRANCH  36  39
HETATM   39  S1  UNL     1     -57.808  59.223   8.435  1.00  0.00     0.323 S
HETATM   40  O4  UNL     1     -58.965  59.650   7.556  1.00  0.00    -0.182 OA
HETATM   41  O5  UNL     1     -57.944  60.104   9.678  1.00  0.00    -0.182 OA
BRANCH  39  42
HETATM   42  N1  UNL     1     -58.136  57.625   8.962  1.00  0.00    -0.273 N
ATOM     43  H1  UNL     1     -57.403  56.925   9.071  1.00  0.00     0.176 HD
BRANCH  42  44
HETATM   44  C4  UNL     1     -59.496  57.343   9.236  1.00  0.00     0.262 C
BRANCH  44  45
HETATM   45  C3  UNL     1     -59.844  56.448  10.358  1.00  0.00     0.214 C
BRANCH  45  46
HETATM   46  O2  UNL     1     -58.930  55.325  10.235  1.00  0.00    -0.309 OA
BRANCH  46  47
HETATM   47  C2  UNL     1     -59.405  54.045  10.060  1.00  0.00     0.255 C
HETATM   48  C1  UNL     1     -60.843  53.696  10.128  1.00  0.00     0.126 C
HETATM   49  O1  UNL     1     -58.574  53.132   9.832  1.00  0.00    -0.266 OA
ENDBRANCH  46  47
ENDBRANCH  45  46
BRANCH  45  50
HETATM   50  C19 UNL     1     -59.591  56.956  11.747  1.00  0.00     0.081 C
HETATM   51  C20 UNL     1     -58.300  56.571  12.371  1.00  0.00     0.048 C
HETATM   52  C21 UNL     1     -60.715  56.687  12.695  1.00  0.00     0.048 C
BRANCH  50  53
HETATM   53  O11 UNL     1     -59.528  58.370  11.589  1.00  0.00    -0.388 OA
ATOM     54  H11 UNL     1     -59.765  58.707  12.445  1.00  0.00     0.210 HD
ENDBRANCH  50  53
ENDBRANCH  45  50
ENDBRANCH  44  45
BRANCH  44  55
HETATM   55  O3  UNL     1     -60.153  56.902   8.035  1.00  0.00    -0.373 OA
ATOM     56  H3  UNL     1     -60.968  57.377   7.918  1.00  0.00     0.212 HD
ENDBRANCH  44  55
ENDBRANCH  42  44
ENDBRANCH  39  42
ENDBRANCH  36  39
ENDBRANCH   1  35
TORSDOF 18
ENDMDL