MODEL 4
REMARK VINA RESULT: -9.015449880      1.153      1.906
REMARK  18 active torsions:
REMARK  status: ('A' for Active; 'I' for Inactive)
REMARK    1  A    between atoms: C2_2  and  C3_3
REMARK    2  A    between atoms: C4_5  and  C5_6
REMARK    3  A    between atoms: C6_9  and  O4_10
REMARK    4  A    between atoms: C7_12  and  C8_13
REMARK    5  A    between atoms: C8_13  and  O6_15
REMARK    6  A    between atoms: O6_15  and  C9_16
REMARK    7  A    between atoms: C11_20  and  N2_21
REMARK    8  A    between atoms: N2_21  and  C12_23
REMARK    9  A    between atoms: C12_23  and  C13_25
REMARK   10  A    between atoms: C13_25  and  N3_26
REMARK   11  A    between atoms: C14_29  and  N5_30
REMARK   12  A    between atoms: N5_30  and  N6_32
REMARK   13  A    between atoms: N7_35  and  C15_36
REMARK   14  A    between atoms: C15_36  and  C16_37
REMARK   15  A    between atoms: C23_47  and  O10_48
REMARK   16  A    between atoms: C23_47  and  C24_50
REMARK   17  A    between atoms: C24_50  and  C25_51
REMARK       I    between atoms: C25_51  and  N9_53
REMARK   18  A    between atoms: N9_53  and  N10_55
ROOT
HETATM    1  C9  UNL     1     -54.465  59.652   9.249  1.00  0.00     0.294 C
HETATM    2  N1  UNL     1     -53.822  60.362  10.320  1.00  0.00    -0.220 N
HETATM    3  C10 UNL     1     -54.135  61.136  11.372  1.00  0.00     0.292 A
HETATM    4  O7  UNL     1     -55.294  61.476  11.724  1.00  0.00    -0.264 OA
HETATM    5  C11 UNL     1     -52.955  61.518  12.038  1.00  0.00     0.120 A
HETATM    6  C21 UNL     1     -51.962  60.923  11.310  1.00  0.00     0.146 A
HETATM    7  N8  UNL     1     -52.528  60.237  10.285  1.00  0.00    -0.290 N
HETATM    8  C22 UNL     1     -52.087  59.405   9.166  1.00  0.00     0.191 C
HETATM    9  C23 UNL     1     -53.332  59.152   8.382  1.00  0.00     0.130 C
ENDROOT
BRANCH   5  10
HETATM   10  N2  UNL     1     -52.950  62.334  13.192  1.00  0.00    -0.344 N
ATOM     11  H2  UNL     1     -53.204  61.874  14.066  1.00  0.00     0.167 HD
BRANCH  10  12
HETATM   12  C12 UNL     1     -52.639  63.695  13.283  1.00  0.00     0.098 C
HETATM   13  S1  UNL     1     -53.407  64.632  14.426  1.00  0.00    -0.063 SA
BRANCH  12  14
HETATM   14  C13 UNL     1     -51.667  64.398  12.442  1.00  0.00     0.224 C
BRANCH  14  15
HETATM   15  N3  UNL     1     -50.539  64.828  13.271  1.00  0.00    -0.221 N
HETATM   16  N4  UNL     1     -49.718  64.018  13.918  1.00  0.00    -0.124 N
HETATM   17  C14 UNL     1     -48.793  64.739  14.580  1.00  0.00     0.717 A
ATOM     18  H4  UNL     1     -49.777  63.000  13.916  1.00  0.00     0.206 HD
HETATM   19  N7  UNL     1     -49.022  66.037  14.357  1.00  0.00    -0.126 N
HETATM   20  C20 UNL     1     -50.116  66.056  13.536  1.00  0.00     0.358 A
HETATM   21  O9  UNL     1     -50.624  67.121  13.112  1.00  0.00    -0.244 OA
BRANCH  17  22
HETATM   22  N5  UNL     1     -47.762  64.153  15.344  1.00  0.00    -0.137 N
ATOM     23  H5  UNL     1     -48.007  63.540  16.121  1.00  0.00     0.205 HD
BRANCH  22  24
HETATM   24  N6  UNL     1     -46.402  64.392  15.064  1.00  0.00    -0.331 N
ATOM     25  H62 UNL     1     -45.707  64.042  15.724  1.00  0.00     0.177 HD
ATOM     26  H61 UNL     1     -46.105  64.899  14.229  1.00  0.00     0.177 HD
ENDBRANCH  22  24
ENDBRANCH  17  22
BRANCH  19  27
HETATM   27  C15 UNL     1     -48.337  67.177  14.858  1.00  0.00     0.184 C
BRANCH  27  28
HETATM   28  C16 UNL     1     -47.275  67.770  14.013  1.00  0.00     0.140 C
HETATM   29  C17 UNL     1     -47.425  69.210  13.705  1.00  0.00     0.036 C
HETATM   30  C18 UNL     1     -46.848  69.909  14.914  1.00  0.00     0.029 C
HETATM   31  C19 UNL     1     -46.030  68.832  15.557  1.00  0.00     0.168 C
HETATM   32  O8  UNL     1     -46.077  67.723  14.755  1.00  0.00    -0.384 OA
ENDBRANCH  27  28
ENDBRANCH  19  27
ENDBRANCH  14  15
ENDBRANCH  12  14
ENDBRANCH  10  12
ENDBRANCH   5  10
BRANCH   1  33
HETATM   33  O6  UNL     1     -55.327  58.635   9.666  1.00  0.00    -0.286 OA
BRANCH  33  34
HETATM   34  C8  UNL     1     -56.693  58.666   9.467  1.00  0.00     0.300 C
HETATM   35  O5  UNL     1     -57.133  57.934   8.557  1.00  0.00    -0.259 OA
BRANCH  34  36
HETATM   36  C7  UNL     1     -57.610  59.477  10.239  1.00  0.00     0.105 A
HETATM   37  C3  UNL     1     -58.441  60.471   9.778  1.00  0.00     0.073 A
HETATM   38  O1  UNL     1     -59.135  60.984  10.792  1.00  0.00    -0.304 OA
HETATM   39  C4  UNL     1     -58.810  60.384  11.904  1.00  0.00     0.186 A
HETATM   40  C6  UNL     1     -57.839  59.411  11.608  1.00  0.00     0.125 A
BRANCH  37  41
HETATM   41  C2  UNL     1     -58.537  60.898   8.351  1.00  0.00     0.062 C
HETATM   42  C1  UNL     1     -58.996  62.316   8.188  1.00  0.00     0.012 C
ENDBRANCH  37  41
BRANCH  39  43
HETATM   43  C5  UNL     1     -59.339  60.650  13.234  1.00  0.00     0.237 C
HETATM   44  O2  UNL     1     -58.943  59.949  14.197  1.00  0.00    -0.642 OA
HETATM   45  O3  UNL     1     -60.266  61.648  13.484  1.00  0.00    -0.642 OA
ENDBRANCH  39  43
BRANCH  40  46
HETATM   46  O4  UNL     1     -57.281  58.598  12.557  1.00  0.00    -0.357 OA
ATOM     47  H4  UNL     1     -57.464  58.683  13.485  1.00  0.00     0.218 HD
ENDBRANCH  40  46
ENDBRANCH  34  36
ENDBRANCH  33  34
ENDBRANCH   1  33
BRANCH   9  48
HETATM   48  O10 UNL     1     -53.494  57.828   8.014  1.00  0.00    -0.383 OA
ATOM     49  H10 UNL     1     -52.785  57.515   7.466  1.00  0.00     0.210 HD
ENDBRANCH   9  48
BRANCH   9  50
HETATM   50  C24 UNL     1     -53.231  60.015   7.120  1.00  0.00     0.148 C
BRANCH  50  51
HETATM   51  C25 UNL     1     -51.905  59.847   6.500  1.00  0.00     0.238 C
HETATM   52  O11 UNL     1     -51.619  58.782   5.881  1.00  0.00    -0.272 OA
HETATM   53  N9  UNL     1     -50.894  60.829   6.550  1.00  0.00    -0.277 N
ATOM     54  H9  UNL     1     -51.095  61.699   7.043  1.00  0.00     0.189 HD
BRANCH  53  55
HETATM   55  N10 UNL     1     -49.636  60.682   5.966  1.00  0.00    -0.343 N
ATOM     56 2H10 UNL     1     -48.857  61.165   6.416  1.00  0.00     0.176 HD
ATOM     57 1H10 UNL     1     -49.457  60.126   5.129  1.00  0.00     0.176 HD
ENDBRANCH  53  55
ENDBRANCH  50  51
ENDBRANCH   9  50
TORSDOF 18
ENDMDL