MODEL 5
REMARK VINA RESULT: -6.880649001      2.786      7.131
REMARK  15 active torsions:
REMARK  status: ('A' for Active; 'I' for Inactive)
REMARK    1  A    between atoms: C2_2  and  O1_3
REMARK    2  A    between atoms: O1_3  and  C3_4
REMARK       I    between atoms: C3_4  and  N1_6
REMARK    3  A    between atoms: N1_6  and  C4_8
REMARK    4  A    between atoms: C5_12  and  C6_13
REMARK    5  A    between atoms: C6_13  and  O3_14
REMARK    6  A    between atoms: C6_13  and  O4_16
REMARK    7  A    between atoms: C10_22  and  N3_23
REMARK    8  A    between atoms: N3_23  and  C11_25
REMARK    9  A    between atoms: C12_26  and  N4_27
REMARK   10  A    between atoms: N4_27  and  C13_29
REMARK   11  A    between atoms: C16_32  and  O6_33
REMARK   12  A    between atoms: C23_42  and  O9_43
REMARK   13  A    between atoms: C23_42  and  C24_45
REMARK   14  A    between atoms: C24_45  and  O11_47
REMARK   15  A    between atoms: C27_51  and  C28_52
ROOT
HETATM    1  C4  UNL     1     -57.521  63.050  12.870  1.00  0.00     0.298 C
HETATM    2  N2  UNL     1     -58.742  63.776  13.284  1.00  0.00    -0.041 N
ATOM      3  H21 UNL     1     -58.765  64.748  12.973  1.00  0.00     0.280 HD
ATOM      4  H22 UNL     1     -58.784  63.968  14.285  1.00  0.00     0.280 HD
HETATM    5  C5  UNL     1     -59.858  62.983  12.797  1.00  0.00     0.285 C
HETATM    6  C7  UNL     1     -59.304  62.510  11.497  1.00  0.00     0.165 C
HETATM    7  O5  UNL     1     -59.749  61.341  10.972  1.00  0.00    -0.352 OA
HETATM    8  C8  UNL     1     -58.633  60.778  10.278  1.00  0.00     0.127 C
HETATM    9  C9  UNL     1     -58.684  59.311  10.711  1.00  0.00     0.052 C
HETATM   10  C10 UNL     1     -57.403  61.468  10.827  1.00  0.00     0.131 C
HETATM   11  C22 UNL     1     -57.968  61.974  12.069  1.00  0.00     0.106 C
HETATM   12  C23 UNL     1     -58.910  60.954   8.842  1.00  0.00     0.240 C
HETATM   13  C26 UNL     1     -58.854  62.373   8.425  1.00  0.00     0.193 C
HETATM   14  O12 UNL     1     -58.737  62.491   7.206  1.00  0.00    -0.293 OA
HETATM   15  C27 UNL     1     -58.908  63.657   9.117  1.00  0.00     0.201 C
HETATM   16  C30 UNL     1     -59.169  63.611  10.563  1.00  0.00     0.182 C
HETATM   17  O14 UNL     1     -59.291  64.729  11.042  1.00  0.00    -0.293 OA
ENDROOT
BRANCH  10  18
HETATM   18  N3  UNL     1     -56.366  60.492  11.067  1.00  0.00    -0.376 N
ATOM     19  H3  UNL     1     -56.657  59.561  11.364  1.00  0.00     0.160 HD
BRANCH  18  20
HETATM   20  C11 UNL     1     -54.988  60.724  10.926  1.00  0.00     0.114 A
HETATM   21  C12 UNL     1     -54.016  60.221  10.092  1.00  0.00     0.118 A
HETATM   22  C20 UNL     1     -53.083  60.996  10.726  1.00  0.00     0.253 A
HETATM   23  O7  UNL     1     -51.854  61.161  10.586  1.00  0.00    -0.281 OA
HETATM   24  C21 UNL     1     -54.047  61.497  11.553  1.00  0.00     0.252 A
HETATM   25  O8  UNL     1     -54.045  62.347  12.521  1.00  0.00    -0.281 OA
BRANCH  21  26
HETATM   26  N4  UNL     1     -53.972  59.297   8.991  1.00  0.00    -0.351 N
ATOM     27  H4  UNL     1     -54.512  58.433   9.043  1.00  0.00     0.166 HD
BRANCH  26  28
HETATM   28  C13 UNL     1     -53.193  59.560   7.833  1.00  0.00     0.032 A
HETATM   29  C14 UNL     1     -51.833  59.329   7.817  1.00  0.00     0.032 A
HETATM   30  C15 UNL     1     -51.018  59.553   6.729  1.00  0.00     0.039 A
HETATM   31  C16 UNL     1     -51.568  60.040   5.567  1.00  0.00     0.068 A
HETATM   32  C18 UNL     1     -52.935  60.284   5.553  1.00  0.00     0.039 A
HETATM   33  C19 UNL     1     -53.734  60.055   6.651  1.00  0.00     0.032 A
BRANCH  31  34
HETATM   34  O6  UNL     1     -50.789  60.287   4.431  1.00  0.00    -0.356 OA
HETATM   35  C17 UNL     1     -50.763  59.368   3.376  1.00  0.00     0.210 C
ENDBRANCH  31  34
ENDBRANCH  26  28
ENDBRANCH  21  26
ENDBRANCH  18  20
ENDBRANCH  10  18
BRANCH  12  36
HETATM   36  O9  UNL     1     -60.259  60.550   8.655  1.00  0.00    -0.370 OA
ATOM     37  H9  UNL     1     -60.293  60.150   7.794  1.00  0.00     0.212 HD
ENDBRANCH  12  36
BRANCH  12  38
HETATM   38  C24 UNL     1     -58.046  60.174   7.944  1.00  0.00     0.304 C
HETATM   39  O10 UNL     1     -56.770  60.313   8.029  1.00  0.00    -0.261 OA
BRANCH  38  40
HETATM   40  O11 UNL     1     -58.504  59.293   7.012  1.00  0.00    -0.324 OA
HETATM   41  C25 UNL     1     -58.148  57.954   6.836  1.00  0.00     0.213 C
ENDBRANCH  38  40
ENDBRANCH  12  38
BRANCH   1  42
HETATM   42  N1  UNL     1     -56.527  63.952  12.392  1.00  0.00    -0.308 N
HETATM   43  C3  UNL     1     -56.040  64.965  13.277  1.00  0.00     0.362 C
HETATM   44  O2  UNL     1     -56.501  65.047  14.467  1.00  0.00    -0.238 OA
ATOM     45  H1  UNL     1     -56.170  63.877  11.440  1.00  0.00     0.166 HD
BRANCH  43  46
HETATM   46  O1  UNL     1     -55.081  65.899  12.959  1.00  0.00    -0.304 OA
BRANCH  46  47
HETATM   47  C2  UNL     1     -54.805  67.043  13.753  1.00  0.00     0.176 C
HETATM   48  C1  UNL     1     -53.911  68.003  13.004  1.00  0.00     0.034 C
ENDBRANCH  46  47
ENDBRANCH  43  46
ENDBRANCH   1  42
BRANCH   5  49
HETATM   49  C6  UNL     1     -60.380  61.970  13.727  1.00  0.00     0.288 C
BRANCH  49  50
HETATM   50  O3  UNL     1     -60.690  62.621  14.946  1.00  0.00    -0.369 OA
ATOM     51  H3  UNL     1     -59.872  62.898  15.343  1.00  0.00     0.212 HD
ENDBRANCH  49  50
BRANCH  49  52
HETATM   52  O4  UNL     1     -61.549  61.401  13.186  1.00  0.00    -0.369 OA
ATOM     53  H4  UNL     1     -62.285  61.599  13.753  1.00  0.00     0.212 HD
ENDBRANCH  49  52
ENDBRANCH   5  49
BRANCH  15  54
HETATM   54  C28 UNL     1     -60.067  64.417   8.503  1.00  0.00     0.141 C
HETATM   55  C29 UNL     1     -59.876  65.220   7.266  1.00  0.00     0.092 C
HETATM   56  O13 UNL     1     -61.160  64.367   9.028  1.00  0.00    -0.297 OA
ENDBRANCH  15  54
TORSDOF 15
ENDMDL