MODEL 4
REMARK VINA RESULT: -7.971809083      4.256      8.577
REMARK  17 active torsions:
REMARK  status: ('A' for Active; 'I' for Inactive)
REMARK    1  A    between atoms: O1_2  and  C2_3
REMARK    2  A    between atoms: C5_6  and  O2_7
REMARK    3  A    between atoms: C11_17  and  N1_18
REMARK       I    between atoms: N1_18  and  C12_20
REMARK    4  A    between atoms: C12_20  and  C13_22
REMARK    5  A    between atoms: C18_29  and  O8_30
REMARK    6  A    between atoms: O8_30  and  C19_31
REMARK    7  A    between atoms: C19_31  and  C21_33
REMARK    8  A    between atoms: C19_31  and  C22_36
REMARK    9  A    between atoms: C21_33  and  O9_34
REMARK   10  A    between atoms: C22_36  and  O10_37
REMARK   11  A    between atoms: C24_43  and  O12_44
REMARK   12  A    between atoms: C26_47  and  C27_48
REMARK   13  A    between atoms: C27_48  and  O13_49
REMARK   14  A    between atoms: C27_48  and  O14_51
REMARK   15  A    between atoms: C28_53  and  C29_54
REMARK   16  A    between atoms: C29_54  and  O15_55
REMARK   17  A    between atoms: O15_55  and  C30_56
ROOT
HETATM    1  C2  UNL     1     -47.905  67.119  13.662  1.00  0.00     0.085 A
HETATM    2  C3  UNL     1     -47.293  68.323  13.465  1.00  0.00     0.040 A
HETATM    3  C4  UNL     1     -48.037  69.453  13.162  1.00  0.00     0.042 A
HETATM    4  C5  UNL     1     -49.412  69.345  13.061  1.00  0.00     0.100 A
HETATM    5  C6  UNL     1     -50.082  68.136  13.254  1.00  0.00     0.126 A
HETATM    6  O3  UNL     1     -51.389  68.059  13.155  1.00  0.00    -0.303 OA
HETATM    7  C7  UNL     1     -51.999  66.915  13.341  1.00  0.00     0.122 A
HETATM    8  C8  UNL     1     -51.272  65.781  13.643  1.00  0.00     0.157 A
HETATM    9  C9  UNL     1     -49.886  65.822  13.756  1.00  0.00     0.224 A
HETATM   10  O4  UNL     1     -49.195  64.805  14.029  1.00  0.00    -0.284 OA
HETATM   11  C10 UNL     1     -49.278  67.041  13.555  1.00  0.00     0.087 A
HETATM   12  O5  UNL     1     -51.949  64.618  13.831  1.00  0.00    -0.315 OA
HETATM   13  C11 UNL     1     -53.323  64.427  13.699  1.00  0.00     0.266 A
HETATM   14  C26 UNL     1     -54.058  65.668  13.409  1.00  0.00     0.034 A
HETATM   15  C28 UNL     1     -53.470  66.816  13.231  1.00  0.00     0.014 A
ENDROOT
BRANCH  13  16
HETATM   16  N1  UNL     1     -53.510  63.527  12.525  1.00  0.00    -0.326 N
HETATM   17  C12 UNL     1     -53.515  62.123  12.626  1.00  0.00     0.256 C
HETATM   18  O6  UNL     1     -53.354  61.567  13.722  1.00  0.00    -0.268 OA
ATOM     19  H1  UNL     1     -53.640  63.948  11.606  1.00  0.00     0.165 HD
BRANCH  17  20
HETATM   20  C13 UNL     1     -53.699  61.325  11.426  1.00  0.00     0.062 A
HETATM   21  C14 UNL     1     -52.561  60.809  10.769  1.00  0.00     0.111 A
HETATM   22  N2  UNL     1     -52.732  60.168   9.625  1.00  0.00    -0.327 N
HETATM   23  C15 UNL     1     -51.550  59.617   8.939  1.00  0.00     0.159 C
HETATM   24  C16 UNL     1     -53.899  59.944   9.001  1.00  0.00     0.262 A
HETATM   25  O7  UNL     1     -53.924  59.328   7.898  1.00  0.00    -0.267 OA
HETATM   26  C17 UNL     1     -55.061  60.427   9.608  1.00  0.00     0.097 A
HETATM   27  C18 UNL     1     -56.262  60.221   8.998  1.00  0.00     0.163 A
HETATM   28  C25 UNL     1     -54.902  61.112  10.820  1.00  0.00     0.040 A
HETATM   29  N3  UNL     1     -57.374  60.747   9.639  1.00  0.00    -0.301 N
HETATM   30  C23 UNL     1     -57.266  61.409  10.796  1.00  0.00     0.281 A
ATOM     31  H3  UNL     1     -58.296  60.626   9.219  1.00  0.00     0.171 HD
HETATM   32  O11 UNL     1     -58.302  61.884  11.371  1.00  0.00    -0.265 OA
HETATM   33  C24 UNL     1     -56.068  61.617  11.425  1.00  0.00     0.146 A
BRANCH  27  34
HETATM   34  O8  UNL     1     -56.535  59.555   7.850  1.00  0.00    -0.320 OA
BRANCH  34  35
HETATM   35  C19 UNL     1     -57.390  58.499   7.596  1.00  0.00     0.108 C
HETATM   36  C20 UNL     1     -56.676  57.416   6.740  1.00  0.00     0.051 C
BRANCH  35  37
HETATM   37  C21 UNL     1     -58.701  58.708   6.923  1.00  0.00     0.204 C
BRANCH  37  38
HETATM   38  O9  UNL     1     -59.564  59.309   7.861  1.00  0.00    -0.398 OA
ATOM     39  H9  UNL     1     -60.062  59.974   7.402  1.00  0.00     0.209 HD
ENDBRANCH  37  38
ENDBRANCH  35  37
BRANCH  35  40
HETATM   40  C22 UNL     1     -57.717  57.743   8.912  1.00  0.00     0.204 C
BRANCH  40  41
HETATM   41  O10 UNL     1     -58.529  56.644   8.664  1.00  0.00    -0.398 OA
ATOM     42  H10 UNL     1     -58.191  55.869   9.097  1.00  0.00     0.209 HD
ENDBRANCH  40  41
ENDBRANCH  35  40
ENDBRANCH  34  35
ENDBRANCH  27  34
BRANCH  33  43
HETATM   43  O12 UNL     1     -56.018  62.303  12.622  1.00  0.00    -0.355 OA
ATOM     44  H12 UNL     1     -55.566  63.136  12.680  1.00  0.00     0.218 HD
ENDBRANCH  33  43
ENDBRANCH  17  20
ENDBRANCH  13  16
BRANCH  14  45
HETATM   45  C27 UNL     1     -55.585  65.573  13.376  1.00  0.00     0.289 C
BRANCH  45  46
HETATM   46  O13 UNL     1     -55.820  65.026  12.068  1.00  0.00    -0.367 OA
ATOM     47  H13 UNL     1     -56.651  64.581  12.188  1.00  0.00     0.213 HD
ENDBRANCH  45  46
BRANCH  45  48
HETATM   48  O14 UNL     1     -56.070  64.592  14.210  1.00  0.00    -0.367 OA
ATOM     49  H14 UNL     1     -55.932  63.718  13.863  1.00  0.00     0.213 HD
ENDBRANCH  45  48
ENDBRANCH  14  45
BRANCH  15  50
HETATM   50  C29 UNL     1     -54.156  68.063  12.818  1.00  0.00     0.221 C
BRANCH  50  51
HETATM   51  O15 UNL     1     -54.429  68.858  13.935  1.00  0.00    -0.317 OA
BRANCH  51  52
HETATM   52  C30 UNL     1     -54.071  70.199  14.004  1.00  0.00     0.255 C
HETATM   53  C31 UNL     1     -54.728  71.077  14.995  1.00  0.00     0.126 C
HETATM   54  O16 UNL     1     -53.190  70.624  13.213  1.00  0.00    -0.266 OA
ENDBRANCH  51  52
ENDBRANCH  50  51
ENDBRANCH  15  50
BRANCH   1  55
HETATM   55  O1  UNL     1     -47.199  65.951  13.972  1.00  0.00    -0.355 OA
HETATM   56  C1  UNL     1     -45.852  66.098  14.376  1.00  0.00     0.210 C
ENDBRANCH   1  55
BRANCH   4  57
HETATM   57  O2  UNL     1     -50.149  70.486  12.754  1.00  0.00    -0.358 OA
ATOM     58  H2  UNL     1     -50.947  70.389  12.247  1.00  0.00     0.217 HD
ENDBRANCH   4  57
TORSDOF 17
ENDMDL