MODEL 2
REMARK VINA RESULT: -10.035606710      1.734      2.292
REMARK  14 active torsions:
REMARK  status: ('A' for Active; 'I' for Inactive)
REMARK    1  A    between atoms: O1_2  and  C2_3
REMARK    2  A    between atoms: C2_3  and  C3_5
REMARK    3  A    between atoms: C3_5  and  O3_6
REMARK    4  A    between atoms: C3_5  and  C24_56
REMARK    5  A    between atoms: O3_6  and  C4_7
REMARK    6  A    between atoms: C4_7  and  C5_8
REMARK    7  A    between atoms: C5_8  and  S1_9
REMARK    8  A    between atoms: S1_9  and  C6_10
REMARK    9  A    between atoms: C6_10  and  C7_11
REMARK   10  A    between atoms: C10_16  and  C11_17
REMARK   11  A    between atoms: C12_20  and  N3_21
REMARK   12  A    between atoms: C17_39  and  C18_40
REMARK       I    between atoms: C18_40  and  N10_42
REMARK       I    between atoms: N10_42  and  C19_44
REMARK   13  A    between atoms: C20_49  and  O6_50
REMARK   14  A    between atoms: C24_56  and  O9_58
ROOT
HETATM    1  C4  UNL     1     -55.290  61.395  11.501  1.00  0.00     0.088 C
HETATM    2  C16 UNL     1     -56.665  61.601  11.172  1.00  0.00     0.114 C
HETATM    3  N9  UNL     1     -56.962  61.298   9.841  1.00  0.00    -0.344 N
ATOM      4  H9  UNL     1     -56.194  61.402   9.177  1.00  0.00     0.166 HD
HETATM    5  C17 UNL     1     -58.148  60.881   9.321  1.00  0.00     0.135 C
HETATM    6  C20 UNL     1     -59.364  61.418   9.715  1.00  0.00     0.098 C
HETATM    7  C21 UNL     1     -59.756  61.748  10.987  1.00  0.00     0.043 C
HETATM    8  C22 UNL     1     -58.936  61.786  12.139  1.00  0.00     0.060 C
HETATM    9  C23 UNL     1     -57.567  61.985  12.123  1.00  0.00     0.201 C
HETATM   10  O7  UNL     1     -57.086  62.616  13.130  1.00  0.00    -0.286 OA
ENDROOT
BRANCH   1  11
HETATM   11  O3  UNL     1     -54.640  61.697  12.622  1.00  0.00    -0.327 OA
BRANCH  11  12
HETATM   12  C3  UNL     1     -53.804  62.806  12.528  1.00  0.00     0.327 C
BRANCH  12  13
HETATM   13  C2  UNL     1     -52.419  62.475  12.858  1.00  0.00     0.298 C
HETATM   14  O2  UNL     1     -51.963  61.299  12.673  1.00  0.00    -0.262 OA
BRANCH  13  15
HETATM   15  O1  UNL     1     -51.496  63.369  13.381  1.00  0.00    -0.324 OA
HETATM   16  C1  UNL     1     -50.576  64.045  12.546  1.00  0.00     0.213 C
ENDBRANCH  13  15
ENDBRANCH  12  13
BRANCH  12  17
HETATM   17  C24 UNL     1     -54.181  63.884  13.515  1.00  0.00     0.298 C
HETATM   18  O8  UNL     1     -54.388  63.688  14.718  1.00  0.00    -0.262 OA
BRANCH  17  19
HETATM   19  O9  UNL     1     -54.296  65.164  13.008  1.00  0.00    -0.324 OA
HETATM   20  C25 UNL     1     -53.560  66.277  13.476  1.00  0.00     0.213 C
ENDBRANCH  17  19
ENDBRANCH  12  17
ENDBRANCH  11  12
ENDBRANCH   1  11
BRANCH   1  21
HETATM   21  C5  UNL     1     -54.364  61.638  10.266  1.00  0.00     0.141 C
BRANCH  21  22
HETATM   22  S1  UNL     1     -53.881  60.118   9.490  1.00  0.00    -0.158 SA
BRANCH  22  23
HETATM   23  C6  UNL     1     -52.217  59.780   9.101  1.00  0.00     0.114 C
BRANCH  23  24
HETATM   24  C7  UNL     1     -51.865  59.737   7.666  1.00  0.00    -0.028 A
HETATM   25  C8  UNL     1     -51.786  58.597   6.872  1.00  0.00     0.059 A
HETATM   26  C9  UNL     1     -51.376  58.950   5.612  1.00  0.00     0.130 A
HETATM   27  N1  UNL     1     -51.124  58.296   4.440  1.00  0.00    -0.324 N
HETATM   28  N8  UNL     1     -51.197  60.303   5.613  1.00  0.00    -0.236 N
HETATM   29  C10 UNL     1     -50.719  58.940   3.340  1.00  0.00     0.152 A
ATOM     30  H1  UNL     1     -51.249  57.284   4.403  1.00  0.00     0.169 HD
HETATM   31  N6  UNL     1     -50.563  60.265   3.405  1.00  0.00    -0.268 N
HETATM   32  N7  UNL     1     -50.801  60.917   4.524  1.00  0.00    -0.233 N
ATOM     33  H6  UNL     1     -50.257  60.778   2.578  1.00  0.00     0.190 HD
ATOM     34  H7  UNL     1     -50.672  61.929   4.544  1.00  0.00     0.209 HD
HETATM   35  C15 UNL     1     -51.491  60.770   6.849  1.00  0.00     0.128 A
BRANCH  29  36
HETATM   36  C11 UNL     1     -50.440  58.255   2.090  1.00  0.00     0.124 A
HETATM   37  N2  UNL     1     -49.345  58.604   1.401  1.00  0.00    -0.186 N
HETATM   38  C12 UNL     1     -49.083  57.968   0.249  1.00  0.00     0.679 A
ATOM     39  H2  UNL     1     -48.725  59.337   1.744  1.00  0.00     0.184 HD
HETATM   40  N4  UNL     1     -49.904  56.992  -0.211  1.00  0.00    -0.155 N
HETATM   41  C13 UNL     1     -51.004  56.626   0.461  1.00  0.00     0.286 A
ATOM     42  H4  UNL     1     -49.678  56.525  -1.089  1.00  0.00     0.187 HD
HETATM   43  O4  UNL     1     -51.796  55.724   0.070  1.00  0.00    -0.266 OA
HETATM   44  C14 UNL     1     -51.295  57.261   1.642  1.00  0.00     0.145 A
HETATM   45  N5  UNL     1     -52.452  56.919   2.397  1.00  0.00    -0.094 NA
BRANCH  38  46
HETATM   46  N3  UNL     1     -48.030  58.310  -0.405  1.00  0.00    -0.234 N
ATOM     47  H32 UNL     1     -47.986  59.201  -0.899  1.00  0.00     0.174 HD
ATOM     48  H31 UNL     1     -47.240  57.665  -0.416  1.00  0.00     0.174 HD
ENDBRANCH  38  46
ENDBRANCH  29  36
ENDBRANCH  23  24
ENDBRANCH  22  23
ENDBRANCH  21  22
ENDBRANCH   1  21
BRANCH   5  49
HETATM   49  C18 UNL     1     -58.135  59.809   8.334  1.00  0.00     0.277 C
HETATM   50  O5  UNL     1     -59.168  59.664   7.589  1.00  0.00    -0.266 OA
HETATM   51  N10 UNL     1     -57.082  58.930   8.134  1.00  0.00    -0.296 N
HETATM   52  C19 UNL     1     -57.181  57.904   7.126  1.00  0.00     0.188 C
ATOM     53  H10 UNL     1     -56.237  59.009   8.700  1.00  0.00     0.171 HD
HETATM   54  N11 UNL     1     -56.194  57.107   6.964  1.00  0.00    -0.373 N
HETATM   55  N12 UNL     1     -58.323  57.740   6.299  1.00  0.00    -0.064 NA
ATOM     56 2H11 UNL     1     -55.373  57.225   7.558  1.00  0.00     0.158 HD
ATOM     57 1H11 UNL     1     -56.264  56.382   6.250  1.00  0.00     0.158 HD
ENDBRANCH   5  49
BRANCH   6  58
HETATM   58  O6  UNL     1     -60.264  61.640   8.701  1.00  0.00    -0.358 OA
ATOM     59  H6  UNL     1     -61.079  62.052   8.964  1.00  0.00     0.217 HD
ENDBRANCH   6  58
TORSDOF 14
ENDMDL