MODEL 2
REMARK VINA RESULT: -9.240067987      0.106      1.055
REMARK  16 active torsions:
REMARK  status: ('A' for Active; 'I' for Inactive)
REMARK    1  A    between atoms: C2_2  and  C16_44
REMARK    2  A    between atoms: N1_3  and  N2_5
REMARK    3  A    between atoms: N2_5  and  C3_7
REMARK    4  A    between atoms: C4_10  and  N4_11
REMARK       I    between atoms: N4_11  and  C5_13
REMARK       I    between atoms: C5_13  and  N5_14
REMARK       I    between atoms: C5_13  and  N6_18
REMARK    5  A    between atoms: C7_23  and  N7_24
REMARK    6  A    between atoms: C10_29  and  N9_30
REMARK    7  A    between atoms: N9_30  and  C11_31
REMARK    8  A    between atoms: N9_30  and  C13_35
REMARK    9  A    between atoms: C11_31  and  C12_32
REMARK   10  A    between atoms: C12_32  and  O1_33
REMARK   11  A    between atoms: C13_35  and  C14_36
REMARK   12  A    between atoms: C14_36  and  O2_37
REMARK   13  A    between atoms: C19_47  and  C20_48
REMARK   14  A    between atoms: N14_53  and  C21_54
REMARK   15  A    between atoms: C26_62  and  C27_63
REMARK   16  A    between atoms: N17_65  and  O4_67
ROOT
HETATM    1  C3  UNL     1     -53.774  59.595   6.609  1.00  0.00     0.700 A
HETATM    2  N3  UNL     1     -55.057  59.279   6.839  1.00  0.00    -0.174 N
ATOM      3  H3  UNL     1     -55.605  58.887   6.074  1.00  0.00     0.186 HD
HETATM    4  C4  UNL     1     -55.667  59.456   8.049  1.00  0.00     0.137 A
HETATM    5  C6  UNL     1     -54.887  59.988   9.058  1.00  0.00     0.098 A
HETATM    6  C7  UNL     1     -55.388  60.212  10.290  1.00  0.00     0.136 A
HETATM    7  N8  UNL     1     -54.592  60.758  11.281  1.00  0.00    -0.175 N
ATOM      8  H8  UNL     1     -54.989  60.923  12.206  1.00  0.00     0.186 HD
HETATM    9  C10 UNL     1     -53.312  61.076  11.051  1.00  0.00     0.687 A
HETATM   10  N10 UNL     1     -52.837  60.844   9.827  1.00  0.00    -0.175 N
ATOM     11  H10 UNL     1     -51.863  61.082   9.642  1.00  0.00     0.186 HD
HETATM   12  C15 UNL     1     -53.551  60.319   8.827  1.00  0.00     0.154 A
HETATM   13  N11 UNL     1     -53.047  60.109   7.608  1.00  0.00    -0.173 N
ATOM     14  H11 UNL     1     -52.071  60.349   7.433  1.00  0.00     0.186 HD
ENDROOT
BRANCH   1  15
HETATM   15  N2  UNL     1     -53.254  59.392   5.423  1.00  0.00    -0.132 N
ATOM     16  H2  UNL     1     -53.488  58.545   4.906  1.00  0.00     0.205 HD
BRANCH  15  17
HETATM   17  N1  UNL     1     -52.420  60.284   4.889  1.00  0.00    -0.289 N
HETATM   18  C2  UNL     1     -52.400  61.203   4.077  1.00  0.00     0.049 C
HETATM   19  C1  UNL     1     -51.066  61.898   3.872  1.00  0.00     0.072 C
ATOM     20  H1  UNL     1     -51.490  60.162   5.289  1.00  0.00     0.187 HD
BRANCH  18  21
HETATM   21  C16 UNL     1     -53.528  61.713   3.313  1.00  0.00     0.056 A
HETATM   22  C17 UNL     1     -54.565  62.403   3.941  1.00  0.00     0.032 A
HETATM   23  C18 UNL     1     -55.580  62.855   3.175  1.00  0.00     0.020 A
HETATM   24  C19 UNL     1     -55.665  62.676   1.772  1.00  0.00     0.041 A
HETATM   25  C26 UNL     1     -54.643  61.995   1.199  1.00  0.00     0.090 A
HETATM   26  N18 UNL     1     -53.598  61.535   1.994  1.00  0.00    -0.351 N
ATOM     27  H18 UNL     1     -52.838  61.029   1.539  1.00  0.00     0.166 HD
BRANCH  24  28
HETATM   28  C20 UNL     1     -56.803  63.255   1.107  1.00  0.00     0.150 A
HETATM   29  N12 UNL     1     -58.087  62.896   1.506  1.00  0.00    -0.268 N
HETATM   30  N13 UNL     1     -58.930  63.645   0.844  1.00  0.00    -0.224 N
ATOM     31  H12 UNL     1     -58.326  62.179   2.190  1.00  0.00     0.190 HD
HETATM   32  N14 UNL     1     -58.304  64.465   0.044  1.00  0.00    -0.213 N
ATOM     33  H13 UNL     1     -59.944  63.595   0.940  1.00  0.00     0.210 HD
HETATM   34  N15 UNL     1     -57.025  64.220   0.214  1.00  0.00    -0.265 N
ATOM     35  H15 UNL     1     -56.283  64.713  -0.283  1.00  0.00     0.190 HD
BRANCH  32  36
HETATM   36  C21 UNL     1     -58.872  65.442  -0.844  1.00  0.00     0.132 C
HETATM   37  C22 UNL     1     -58.064  65.563  -2.129  1.00  0.00     0.055 C
HETATM   38  C23 UNL     1     -58.249  66.961  -2.663  1.00  0.00     0.169 C
HETATM   39  O3  UNL     1     -59.547  67.387  -2.392  1.00  0.00    -0.391 OA
HETATM   40  C24 UNL     1     -59.708  67.735  -1.055  1.00  0.00     0.169 C
HETATM   41  C25 UNL     1     -58.986  66.762  -0.148  1.00  0.00     0.055 C
ENDBRANCH  32  36
ENDBRANCH  24  28
BRANCH  25  42
HETATM   42  C27 UNL     1     -54.555  61.621  -0.193  1.00  0.00     0.163 C
HETATM   43  N16 UNL     1     -55.177  60.455  -0.738  1.00  0.00    -0.078 NA
HETATM   44  N17 UNL     1     -53.821  62.291  -1.010  1.00  0.00    -0.253 N
ATOM     45  H17 UNL     1     -53.803  61.973  -1.979  1.00  0.00     0.195 HD
BRANCH  44  46
HETATM   46  O4  UNL     1     -53.091  63.346  -0.718  1.00  0.00    -0.288 OA
ATOM     47  H4  UNL     1     -52.157  63.444  -0.864  1.00  0.00     0.244 HD
ENDBRANCH  44  46
ENDBRANCH  25  42
ENDBRANCH  18  21
ENDBRANCH  15  17
ENDBRANCH   1  15
BRANCH   4  48
HETATM   48  N4  UNL     1     -56.900  59.161   8.205  1.00  0.00    -0.326 N
HETATM   49  C5  UNL     1     -57.603  58.274   7.330  1.00  0.00     0.481 C
HETATM   50  N5  UNL     1     -57.306  56.876   7.552  1.00  0.00    -0.033 N
HETATM   51  N6  UNL     1     -59.066  58.401   7.550  1.00  0.00    -0.033 N
ATOM     52  H53 UNL     1     -56.301  56.710   7.499  1.00  0.00     0.278 HD
ATOM     53  H52 UNL     1     -57.471  56.623   8.526  1.00  0.00     0.278 HD
ATOM     54  H51 UNL     1     -57.808  56.243   6.928  1.00  0.00     0.278 HD
ATOM     55  H63 UNL     1     -59.320  58.256   8.527  1.00  0.00     0.278 HD
ATOM     56  H62 UNL     1     -59.385  59.366   7.455  1.00  0.00     0.278 HD
ATOM     57  H61 UNL     1     -59.568  57.769   6.926  1.00  0.00     0.278 HD
ATOM     58  H4  UNL     1     -57.406  59.576   8.988  1.00  0.00     0.164 HD
ENDBRANCH   4  48
BRANCH   6  59
HETATM   59  N7  UNL     1     -56.706  59.863  10.669  1.00  0.00    -0.375 N
HETATM   60  C8  UNL     1     -56.999  58.561  11.200  1.00  0.00     0.150 C
HETATM   61  C9  UNL     1     -57.757  60.835  10.554  1.00  0.00     0.150 C
ENDBRANCH   6  59
BRANCH   9  62
HETATM   62  N9  UNL     1     -52.516  61.644  12.118  1.00  0.00    -0.193 N
BRANCH  62  63
HETATM   63  C11 UNL     1     -52.996  61.889  13.413  1.00  0.00     0.108 C
BRANCH  63  64
HETATM   64  C12 UNL     1     -53.740  63.164  13.681  1.00  0.00     0.209 C
BRANCH  64  65
HETATM   65  O1  UNL     1     -54.046  63.773  12.416  1.00  0.00    -0.396 OA
ATOM     66  H1  UNL     1     -54.500  63.131  11.884  1.00  0.00     0.209 HD
ENDBRANCH  64  65
ENDBRANCH  63  64
ENDBRANCH  62  63
BRANCH  62  67
HETATM   67  C13 UNL     1     -51.136  61.955  11.773  1.00  0.00     0.172 C
BRANCH  67  68
HETATM   68  C14 UNL     1     -50.595  63.154  12.466  1.00  0.00     0.185 C
BRANCH  68  69
HETATM   69  O2  UNL     1     -50.996  64.368  11.961  1.00  0.00    -0.399 OA
ATOM     70  H2  UNL     1     -50.786  65.127  12.493  1.00  0.00     0.209 HD
ENDBRANCH  68  69
ENDBRANCH  67  68
ENDBRANCH  62  67
ENDBRANCH   9  62
TORSDOF 16
ENDMDL