MODEL 5
REMARK VINA RESULT: -7.496990919      3.286      4.358
REMARK  18 active torsions:
REMARK  status: ('A' for Active; 'I' for Inactive)
REMARK    1  A    between atoms: O1_2  and  C2_3
REMARK    2  A    between atoms: C4_5  and  O2_6
REMARK    3  A    between atoms: O2_6  and  C5_7
REMARK    4  A    between atoms: C5_7  and  C6_9
REMARK    5  A    between atoms: C7_10  and  C8_11
REMARK    6  A    between atoms: C8_11  and  S1_12
REMARK    7  A    between atoms: S1_12  and  C9_13
REMARK    8  A    between atoms: C12_24  and  N5_25
REMARK    9  A    between atoms: N5_25  and  C13_28
REMARK   10  A    between atoms: C13_28  and  O4_29
REMARK   11  A    between atoms: C13_28  and  C14_31
REMARK   12  A    between atoms: C14_31  and  C15_33
REMARK   13  A    between atoms: C15_33  and  O6_34
REMARK   14  A    between atoms: C18_39  and  O8_41
REMARK   15  A    between atoms: C20_43  and  C21_44
REMARK   16  A    between atoms: C22_47  and  O11_48
REMARK   17  A    between atoms: C23_50  and  O12_51
REMARK   18  A    between atoms: C24_53  and  O13_54
ROOT
HETATM    1  C6  UNL     1     -56.006  61.131  10.360  1.00  0.00     0.045 C
HETATM    2  C7  UNL     1     -54.823  60.805   9.809  1.00  0.00    -0.047 C
HETATM    3  C10 UNL     1     -54.536  59.492   9.158  1.00  0.00     0.110 C
HETATM    4  S2  UNL     1     -55.923  58.420   8.881  1.00  0.00    -0.156 SA
HETATM    5  C11 UNL     1     -57.138  58.897  10.151  1.00  0.00     0.112 C
HETATM    6  C12 UNL     1     -58.425  58.177   9.848  1.00  0.00     0.273 C
HETATM    7  C16 UNL     1     -59.214  58.800   8.770  1.00  0.00     0.161 C
HETATM    8  O7  UNL     1     -59.674  58.153   7.871  1.00  0.00    -0.296 OA
HETATM    9  C17 UNL     1     -59.399  60.265   8.871  1.00  0.00     0.119 C
HETATM   10  C18 UNL     1     -58.085  60.931   9.043  1.00  0.00     0.084 C
HETATM   11  C19 UNL     1     -57.379  60.847   7.705  1.00  0.00     0.048 C
HETATM   12  C20 UNL     1     -57.281  60.385  10.206  1.00  0.00     0.127 C
ENDROOT
BRANCH   1  13
HETATM   13  C5  UNL     1     -56.045  62.411  11.072  1.00  0.00     0.296 C
HETATM   14  O3  UNL     1     -56.315  63.529  10.532  1.00  0.00    -0.259 OA
BRANCH  13  15
HETATM   15  O2  UNL     1     -55.785  62.610  12.439  1.00  0.00    -0.272 OA
BRANCH  15  16
HETATM   16  C4  UNL     1     -56.372  63.685  13.100  1.00  0.00     0.118 A
HETATM   17  C3  UNL     1     -57.617  63.554  13.677  1.00  0.00     0.080 A
HETATM   18  C2  UNL     1     -58.190  64.628  14.345  1.00  0.00     0.107 A
HETATM   19  C24 UNL     1     -57.519  65.827  14.433  1.00  0.00     0.138 A
HETATM   20  C23 UNL     1     -56.283  65.968  13.861  1.00  0.00     0.138 A
HETATM   21  C22 UNL     1     -55.720  64.873  13.191  1.00  0.00     0.136 A
BRANCH  18  22
HETATM   22  O1  UNL     1     -59.449  64.504  14.931  1.00  0.00    -0.353 OA
HETATM   23  C1  UNL     1     -60.411  63.558  14.512  1.00  0.00     0.210 C
ENDBRANCH  18  22
BRANCH  19  24
HETATM   24  O13 UNL     1     -58.101  66.897  15.111  1.00  0.00    -0.351 OA
HETATM   25  C25 UNL     1     -57.794  66.980  16.515  1.00  0.00     0.210 C
ENDBRANCH  19  24
BRANCH  20  26
HETATM   26  O12 UNL     1     -55.608  67.201  13.955  1.00  0.00    -0.356 OA
ATOM     27  H12 UNL     1     -55.523  67.780  13.207  1.00  0.00     0.218 HD
ENDBRANCH  20  26
BRANCH  21  28
HETATM   28  O11 UNL     1     -54.474  65.139  12.651  1.00  0.00    -0.356 OA
ATOM     29  H11 UNL     1     -53.969  65.928  12.808  1.00  0.00     0.218 HD
ENDBRANCH  21  28
ENDBRANCH  15  16
ENDBRANCH  13  15
ENDBRANCH   1  13
BRANCH   2  30
HETATM   30  C8  UNL     1     -53.635  61.679   9.877  1.00  0.00     0.118 C
BRANCH  30  31
HETATM   31  S1  UNL     1     -52.514  61.343  11.205  1.00  0.00    -0.087 SA
BRANCH  31  32
HETATM   32  C9  UNL     1     -52.279  62.607  12.391  1.00  0.00     0.173 A
HETATM   33  N1  UNL     1     -51.604  63.738  12.394  1.00  0.00    -0.261 N
HETATM   34  N2  UNL     1     -51.766  64.334  13.563  1.00  0.00    -0.005 NA
ATOM     35  H1  UNL     1     -51.046  64.096  11.620  1.00  0.00     0.186 HD
HETATM   36  N3  UNL     1     -52.549  63.578  14.316  1.00  0.00    -0.224 N
HETATM   37  N4  UNL     1     -52.879  62.521  13.629  1.00  0.00    -0.266 N
ATOM     38  H3  UNL     1     -52.845  63.787  15.269  1.00  0.00     0.205 HD
ATOM     39  H4  UNL     1     -53.477  61.761  13.953  1.00  0.00     0.190 HD
ENDBRANCH  31  32
ENDBRANCH  30  31
ENDBRANCH   2  30
BRANCH  12  40
HETATM   40  C21 UNL     1     -58.073  60.615  11.435  1.00  0.00     0.191 C
HETATM   41  O9  UNL     1     -57.673  59.955  12.456  1.00  0.00    -0.647 OA
HETATM   42  O10 UNL     1     -59.151  61.433  11.596  1.00  0.00    -0.647 OA
ENDBRANCH  12  40
BRANCH  10  43
HETATM   43  O8  UNL     1     -58.299  62.284   9.241  1.00  0.00    -0.388 OA
ATOM     44  H8  UNL     1     -58.595  62.417  10.134  1.00  0.00     0.210 HD
ENDBRANCH  10  43
BRANCH   6  45
HETATM   45  N5  UNL     1     -59.221  57.937  11.000  1.00  0.00    -0.030 N
ATOM     46  H52 UNL     1     -58.952  58.555  11.765  1.00  0.00     0.281 HD
ATOM     47  H51 UNL     1     -60.178  58.259  10.856  1.00  0.00     0.281 HD
BRANCH  45  48
HETATM   48  C13 UNL     1     -59.197  56.542  11.422  1.00  0.00     0.392 C
BRANCH  48  49
HETATM   49  O4  UNL     1     -60.492  56.170  11.842  1.00  0.00    -0.364 OA
ATOM     50  H4  UNL     1     -60.722  55.344  11.432  1.00  0.00     0.212 HD
ENDBRANCH  48  49
BRANCH  48  51
HETATM   51  C14 UNL     1     -58.320  56.471  12.628  1.00  0.00     0.205 C
HETATM   52  O5  UNL     1     -57.188  56.043  12.439  1.00  0.00    -0.291 OA
BRANCH  51  53
HETATM   53  C15 UNL     1     -58.824  56.894  13.936  1.00  0.00     0.247 C
BRANCH  53  54
HETATM   54  O6  UNL     1     -59.466  58.138  13.890  1.00  0.00    -0.393 OA
ATOM     55  H6  UNL     1     -58.954  58.829  14.294  1.00  0.00     0.209 HD
ENDBRANCH  53  54
ENDBRANCH  51  53
ENDBRANCH  48  51
ENDBRANCH  45  48
ENDBRANCH   6  45
TORSDOF 18
ENDMDL