MODEL 2
REMARK VINA RESULT: -8.564251771      4.235      7.816
REMARK  16 active torsions:
REMARK  status: ('A' for Active; 'I' for Inactive)
REMARK    1  A    between atoms: N1_1  and  C1_5
REMARK    2  A    between atoms: C1_5  and  C2_6
REMARK    3  A    between atoms: C2_6  and  O1_7
REMARK    4  A    between atoms: O1_7  and  C3_8
REMARK    5  A    between atoms: C8_14  and  O2_15
REMARK    6  A    between atoms: C12_25  and  O4_26
REMARK    7  A    between atoms: O4_26  and  C13_27
REMARK    8  A    between atoms: C13_27  and  C14_28
REMARK    9  A    between atoms: C14_28  and  S1_29
REMARK   10  A    between atoms: S1_29  and  C15_30
REMARK   11  A    between atoms: C18_36  and  O6_37
REMARK   12  A    between atoms: C19_41  and  N7_42
REMARK   13  A    between atoms: N7_42  and  C20_44
REMARK   14  A    between atoms: C20_44  and  O7_45
REMARK   15  A    between atoms: C20_44  and  C21_47
REMARK   16  A    between atoms: C23_51  and  N9_52
ROOT
HETATM    1  C3  UNL     1     -57.340  64.090  14.643  1.00  0.00     0.126 A
HETATM    2  C4  UNL     1     -58.713  63.987  14.638  1.00  0.00     0.083 A
HETATM    3  N2  UNL     1     -59.460  64.295  15.816  1.00  0.00    -0.099 NA
HETATM    4  C5  UNL     1     -59.323  63.587  13.475  1.00  0.00     0.047 A
HETATM    5  C6  UNL     1     -58.550  63.296  12.340  1.00  0.00     0.045 A
HETATM    6  C7  UNL     1     -57.175  63.394  12.337  1.00  0.00     0.026 A
HETATM    7  C8  UNL     1     -56.570  63.798  13.507  1.00  0.00     0.111 A
HETATM    8  C9  UNL     1     -56.363  63.025  11.126  1.00  0.00     0.106 A
HETATM    9  C10 UNL     1     -57.194  63.376   9.901  1.00  0.00     0.161 C
HETATM   10  N3  UNL     1     -58.457  62.681   9.925  1.00  0.00    -0.354 N
ATOM     11  H3  UNL     1     -58.768  62.069   9.170  1.00  0.00     0.162 HD
HETATM   12  C11 UNL     1     -59.243  62.927  11.112  1.00  0.00     0.252 C
HETATM   13  O3  UNL     1     -60.490  62.829  11.105  1.00  0.00    -0.268 OA
HETATM   14  N4  UNL     1     -55.088  63.571  11.009  1.00  0.00    -0.355 N
ATOM     15  H4  UNL     1     -54.766  64.533  10.914  1.00  0.00     0.162 HD
HETATM   16  C12 UNL     1     -54.470  62.478  11.058  1.00  0.00     0.140 A
HETATM   17  C19 UNL     1     -55.701  61.722  11.203  1.00  0.00     0.189 A
ENDROOT
BRANCH  17  18
HETATM   18  N7  UNL     1     -55.963  60.620  10.404  1.00  0.00    -0.378 N
ATOM     19  H7  UNL     1     -56.739  60.700   9.747  1.00  0.00     0.157 HD
BRANCH  18  20
HETATM   20  C20 UNL     1     -55.267  59.418  10.415  1.00  0.00     0.268 C
BRANCH  20  21
HETATM   21  O7  UNL     1     -56.064  58.296  10.078  1.00  0.00    -0.371 OA
ATOM     22  H7  UNL     1     -55.634  57.686   9.489  1.00  0.00     0.212 HD
ENDBRANCH  20  21
BRANCH  20  23
HETATM   23  C21 UNL     1     -54.292  59.490   9.239  1.00  0.00     0.090 A
HETATM   24  C22 UNL     1     -54.744  59.366   7.971  1.00  0.00     0.137 A
HETATM   25  N8  UNL     1     -53.876  59.414   6.936  1.00  0.00    -0.199 N
HETATM   26  C23 UNL     1     -52.561  59.586   7.169  1.00  0.00     0.694 A
ATOM     27  H8  UNL     1     -54.217  59.320   5.980  1.00  0.00     0.183 HD
HETATM   28  N10 UNL     1     -52.122  59.711   8.428  1.00  0.00    -0.132 N
HETATM   29  N11 UNL     1     -52.977  59.663   9.449  1.00  0.00    -0.285 N
ATOM     30  H10 UNL     1     -51.127  59.843   8.607  1.00  0.00     0.205 HD
ATOM     31  H11 UNL     1     -52.628  59.760  10.403  1.00  0.00     0.187 HD
BRANCH  26  32
HETATM   32  N9  UNL     1     -51.615  59.632   6.112  1.00  0.00    -0.212 N
HETATM   33  C24 UNL     1     -52.086  59.528   4.742  1.00  0.00     0.167 C
HETATM   34  C25 UNL     1     -51.285  60.459   3.878  1.00  0.00     0.188 C
HETATM   35  O8  UNL     1     -49.950  60.052   3.967  1.00  0.00    -0.388 OA
HETATM   36  C26 UNL     1     -49.426  60.353   5.223  1.00  0.00     0.188 C
HETATM   37  C27 UNL     1     -50.216  59.767   6.355  1.00  0.00     0.167 C
ENDBRANCH  26  32
ENDBRANCH  20  23
ENDBRANCH  18  20
ENDBRANCH  17  18
BRANCH   7  38
HETATM   38  O2  UNL     1     -55.205  63.932  13.611  1.00  0.00    -0.357 OA
ATOM     39  H2  UNL     1     -54.864  64.790  13.836  1.00  0.00     0.217 HD
ENDBRANCH   7  38
BRANCH  16  40
HETATM   40  O4  UNL     1     -53.068  62.270  10.986  1.00  0.00    -0.337 OA
BRANCH  40  41
HETATM   41  C13 UNL     1     -52.405  61.761  12.156  1.00  0.00     0.187 C
BRANCH  41  42
HETATM   42  C14 UNL     1     -51.157  62.509  12.473  1.00  0.00     0.109 C
BRANCH  42  43
HETATM   43  S1  UNL     1     -51.589  64.052  13.275  1.00  0.00    -0.092 SA
BRANCH  43  44
HETATM   44  C15 UNL     1     -50.109  64.888  13.801  1.00  0.00     0.149 A
HETATM   45  N5  UNL     1     -49.952  66.213  13.800  1.00  0.00    -0.304 N
HETATM   46  C16 UNL     1     -48.845  66.841  14.201  1.00  0.00     0.251 A
ATOM     47  H5  UNL     1     -50.731  66.784  13.470  1.00  0.00     0.171 HD
HETATM   48  O5  UNL     1     -48.723  68.089  14.191  1.00  0.00    -0.268 OA
HETATM   49  C17 UNL     1     -47.799  66.068  14.643  1.00  0.00     0.130 A
HETATM   50  C18 UNL     1     -47.935  64.687  14.653  1.00  0.00     0.147 A
HETATM   51  N6  UNL     1     -49.075  64.120  14.238  1.00  0.00    -0.317 N
ATOM     52  H6  UNL     1     -49.169  63.104  14.250  1.00  0.00     0.170 HD
BRANCH  50  53
HETATM   53  O6  UNL     1     -46.849  63.943  15.108  1.00  0.00    -0.346 OA
ATOM     54  H6  UNL     1     -46.638  63.148  14.634  1.00  0.00     0.219 HD
ENDBRANCH  50  53
ENDBRANCH  43  44
ENDBRANCH  42  43
ENDBRANCH  41  42
ENDBRANCH  40  41
ENDBRANCH  16  40
BRANCH   1  55
HETATM   55  O1  UNL     1     -56.747  64.495  15.825  1.00  0.00    -0.345 OA
BRANCH  55  56
HETATM   56  C2  UNL     1     -56.470  65.834  16.126  1.00  0.00     0.203 C
BRANCH  56  57
HETATM   57  C1  UNL     1     -55.042  66.036  16.598  1.00  0.00     0.256 C
BRANCH  57  58
HETATM   58  N1  UNL     1     -54.076  65.323  15.818  1.00  0.00    -0.077 N
ATOM     59  H13 UNL     1     -54.523  64.854  15.031  1.00  0.00     0.274 HD
ATOM     60  H12 UNL     1     -53.475  65.971  15.309  1.00  0.00     0.274 HD
ATOM     61  H11 UNL     1     -53.519  64.665  16.362  1.00  0.00     0.274 HD
ENDBRANCH  57  58
ENDBRANCH  56  57
ENDBRANCH  55  56
ENDBRANCH   1  55
TORSDOF 16
ENDMDL