MODEL 2
REMARK VINA RESULT: -6.781487715      4.508      7.504
REMARK  16 active torsions:
REMARK  status: ('A' for Active; 'I' for Inactive)
REMARK    1  A    between atoms: O1_2  and  C2_3
REMARK    2  A    between atoms: C5_8  and  O3_9
REMARK    3  A    between atoms: O3_9  and  C6_10
REMARK    4  A    between atoms: C6_10  and  O4_11
REMARK    5  A    between atoms: O4_11  and  C7_12
REMARK    6  A    between atoms: C7_12  and  C8_13
REMARK    7  A    between atoms: C9_19  and  N4_20
REMARK    8  A    between atoms: C13_28  and  O7_29
REMARK    9  A    between atoms: O7_29  and  C14_30
REMARK   10  A    between atoms: C15_35  and  C16_36
REMARK   11  A    between atoms: N8_42  and  N9_44
REMARK       I    between atoms: N9_44  and  C19_46
REMARK   12  A    between atoms: C19_46  and  O9_48
REMARK   13  A    between atoms: O9_48  and  C20_49
REMARK   14  A    between atoms: C20_49  and  C21_50
REMARK   15  A    between atoms: C21_50  and  N10_51
REMARK   16  A    between atoms: C23_57  and  O10_58
ROOT
HETATM    1  C2  UNL     1     -59.543  59.900  11.933  1.00  0.00     0.175 C
HETATM    2  C3  UNL     1     -58.553  59.837  13.250  1.00  0.00     0.259 C
HETATM    3  O2  UNL     1     -58.422  58.902  13.975  1.00  0.00    -0.270 OA
HETATM    4  N1  UNL     1     -58.365  61.047  12.773  1.00  0.00    -0.324 N
HETATM    5  C4  UNL     1     -57.524  61.927  12.100  1.00  0.00     0.149 C
HETATM    6  C5  UNL     1     -57.925  63.336  12.297  1.00  0.00     0.171 C
HETATM    7  C10 UNL     1     -59.388  63.632  12.144  1.00  0.00     0.161 C
HETATM    8  S1  UNL     1     -59.982  64.405  13.712  1.00  0.00    -0.081 SA
HETATM    9  C11 UNL     1     -60.166  62.387  12.019  1.00  0.00     0.170 C
HETATM   10  O6  UNL     1     -61.146  62.471  11.245  1.00  0.00    -0.294 OA
HETATM   11  C12 UNL     1     -59.799  61.208  12.738  1.00  0.00     0.203 C
HETATM   12  C13 UNL     1     -57.815  61.378  10.651  1.00  0.00     0.165 C
HETATM   13  C15 UNL     1     -58.606  60.077  10.795  1.00  0.00     0.079 C
ENDROOT
BRANCH  13  14
HETATM   14  C16 UNL     1     -57.667  58.895  10.643  1.00  0.00     0.090 C
HETATM   15  C17 UNL     1     -58.333  57.574  10.690  1.00  0.00     0.048 C
HETATM   16  N7  UNL     1     -58.391  56.788  11.689  1.00  0.00    -0.399 N
HETATM   17  C18 UNL     1     -58.931  57.218   9.402  1.00  0.00     0.112 C
ATOM     18  H72 UNL     1     -57.973  57.036  12.586  1.00  0.00     0.156 HD
ATOM     19  H71 UNL     1     -58.849  55.877  11.722  1.00  0.00     0.156 HD
HETATM   20  N8  UNL     1     -59.773  56.348   9.057  1.00  0.00    -0.288 N
HETATM   21  S2  UNL     1     -58.190  58.384   8.201  1.00  0.00    -0.071 SA
ATOM     22  H8  UNL     1     -60.001  56.337   8.063  1.00  0.00     0.188 HD
HETATM   23  C22 UNL     1     -56.896  58.888   9.387  1.00  0.00     0.017 C
HETATM   24  C23 UNL     1     -55.666  59.070   9.026  1.00  0.00     0.146 C
BRANCH  20  25
HETATM   25  N9  UNL     1     -60.433  55.408   9.815  1.00  0.00    -0.244 N
HETATM   26  C19 UNL     1     -59.757  54.234  10.223  1.00  0.00     0.379 C
HETATM   27  O8  UNL     1     -58.536  54.050   9.888  1.00  0.00    -0.237 OA
ATOM     28  H9  UNL     1     -61.405  55.558  10.081  1.00  0.00     0.192 HD
BRANCH  26  29
HETATM   29  O9  UNL     1     -60.332  53.245  10.980  1.00  0.00    -0.301 OA
BRANCH  29  30
HETATM   30  C20 UNL     1     -60.377  53.161  12.364  1.00  0.00     0.207 C
BRANCH  30  31
HETATM   31  C21 UNL     1     -59.440  52.145  12.961  1.00  0.00     0.256 C
BRANCH  31  32
HETATM   32  N10 UNL     1     -60.287  51.105  13.552  1.00  0.00    -0.077 N
ATOM     33 3H10 UNL     1     -60.632  50.427  12.872  1.00  0.00     0.274 HD
ATOM     34 2H10 UNL     1     -59.772  50.444  14.135  1.00  0.00     0.274 HD
ATOM     35 1H10 UNL     1     -61.030  51.593  14.052  1.00  0.00     0.274 HD
ENDBRANCH  31  32
ENDBRANCH  30  31
ENDBRANCH  29  30
ENDBRANCH  26  29
ENDBRANCH  20  25
BRANCH  24  36
HETATM   36  O10 UNL     1     -54.625  59.363   9.932  1.00  0.00    -0.372 OA
ATOM     37  H10 UNL     1     -53.708  59.200   9.746  1.00  0.00     0.216 HD
ENDBRANCH  24  36
ENDBRANCH  13  14
BRANCH   1  38
HETATM   38  O1  UNL     1     -60.501  59.051  11.983  1.00  0.00    -0.372 OA
HETATM   39  C1  UNL     1     -61.549  59.101  12.838  1.00  0.00     0.203 C
ENDBRANCH   1  38
BRANCH  12  40
HETATM   40  O7  UNL     1     -58.210  62.252   9.698  1.00  0.00    -0.317 OA
BRANCH  40  41
HETATM   41  C14 UNL     1     -58.811  61.955   8.487  1.00  0.00     0.225 C
HETATM   42  N5  UNL     1     -60.099  62.140   8.479  1.00  0.00    -0.368 N
ATOM     43  H52 UNL     1     -60.607  62.474   9.297  1.00  0.00     0.159 HD
ATOM     44  H51 UNL     1     -60.542  61.922   7.587  1.00  0.00     0.159 HD
HETATM   45  N6  UNL     1     -58.107  61.492   7.355  1.00  0.00    -0.057 NA
ENDBRANCH  40  41
ENDBRANCH  12  40
BRANCH   6  46
HETATM   46  O3  UNL     1     -57.528  63.751  13.616  1.00  0.00    -0.358 OA
BRANCH  46  47
HETATM   47  C6  UNL     1     -56.194  64.195  13.490  1.00  0.00     0.338 C
BRANCH  47  48
HETATM   48  O4  UNL     1     -55.319  63.230  13.911  1.00  0.00    -0.361 OA
BRANCH  48  49
HETATM   49  C7  UNL     1     -54.019  63.504  13.696  1.00  0.00     0.233 C
BRANCH  49  50
HETATM   50  C8  UNL     1     -53.193  62.541  12.974  1.00  0.00     0.103 A
HETATM   51  N2  UNL     1     -52.123  61.890  13.391  1.00  0.00    -0.240 N
HETATM   52  O5  UNL     1     -51.668  61.145  12.443  1.00  0.00    -0.155 OA
ATOM     53  H2  UNL     1     -51.717  61.965  14.324  1.00  0.00     0.196 HD
HETATM   54  N3  UNL     1     -52.394  61.261  11.376  1.00  0.00    -0.224 N
HETATM   55  C9  UNL     1     -53.378  62.130  11.642  1.00  0.00     0.148 A
ATOM     56  H3  UNL     1     -52.243  60.777  10.491  1.00  0.00     0.198 HD
BRANCH  55  57
HETATM   57  N4  UNL     1     -54.284  62.495  10.839  1.00  0.00    -0.382 N
ATOM     58  H42 UNL     1     -54.877  63.319  10.939  1.00  0.00     0.157 HD
ATOM     59  H41 UNL     1     -54.571  62.037   9.974  1.00  0.00     0.157 HD
ENDBRANCH  55  57
ENDBRANCH  49  50
ENDBRANCH  48  49
ENDBRANCH  47  48
ENDBRANCH  46  47
ENDBRANCH   6  46
TORSDOF 16
ENDMDL