MODEL 3
REMARK VINA RESULT: -8.579220301      2.310      5.292
REMARK  13 active torsions:
REMARK  status: ('A' for Active; 'I' for Inactive)
REMARK    1  A    between atoms: C3_3  and  N1_4
REMARK    2  A    between atoms: C3_3  and  C19_28
REMARK    3  A    between atoms: N1_4  and  C4_6
REMARK    4  A    between atoms: C4_6  and  C5_7
REMARK    5  A    between atoms: C4_6  and  C9_11
REMARK    6  A    between atoms: C5_7  and  C6_8
REMARK    7  A    between atoms: C6_8  and  C7_9
REMARK       I    between atoms: C9_11  and  N2_13
REMARK    8  A    between atoms: N2_13  and  C10_15
REMARK    9  A    between atoms: C10_15  and  C12_17
REMARK       I    between atoms: C12_17  and  N3_19
REMARK   10  A    between atoms: N3_19  and  C13_21
REMARK   11  A    between atoms: C13_21  and  C14_22
REMARK   12  A    between atoms: C13_21  and  C15_24
REMARK   13  A    between atoms: C15_24  and  C16_25
ROOT
HETATM    1  C1  UNL     1      13.867  47.054  70.674  1.00  0.00     0.014 C
HETATM    2  C2  UNL     1      14.689  46.336  71.177  1.00  0.00    -0.092 C
HETATM    3  C3  UNL     1      15.683  45.515  71.792  1.00  0.00     0.164 C
ENDROOT
BRANCH   3   4
HETATM    4  N1  UNL     1      16.455  44.618  71.099  1.00  0.00    -0.373 N
ATOM      5  H1  UNL     1      16.163  43.643  71.161  1.00  0.00     0.161 HD
BRANCH   4   6
HETATM    6  C4  UNL     1      17.567  44.857  70.333  1.00  0.00     0.074 C
BRANCH   6   7
HETATM    7  C5  UNL     1      18.848  44.133  70.618  1.00  0.00     0.062 C
BRANCH   7   8
HETATM    8  C6  UNL     1      18.814  43.079  71.662  1.00  0.00     0.006 C
BRANCH   8   9
HETATM    9  C7  UNL     1      18.472  41.688  71.391  1.00  0.00    -0.004 C
HETATM   10  C8  UNL     1      19.437  40.729  72.012  1.00  0.00     0.005 C
ENDBRANCH   8   9
ENDBRANCH   7   8
ENDBRANCH   6   7
BRANCH   6  11
HETATM   11  C9  UNL     1      17.331  44.888  68.841  1.00  0.00     0.264 C
HETATM   12  O1  UNL     1      16.450  45.608  68.340  1.00  0.00    -0.266 OA
HETATM   13  N2  UNL     1      18.105  44.101  67.963  1.00  0.00    -0.343 N
ATOM     14  H2  UNL     1      18.835  43.514  68.366  1.00  0.00     0.163 HD
BRANCH  13  15
HETATM   15  C10 UNL     1      17.932  44.072  66.538  1.00  0.00     0.172 C
HETATM   16  C11 UNL     1      19.297  43.860  65.873  1.00  0.00     0.042 C
BRANCH  15  17
HETATM   17  C12 UNL     1      16.973  43.037  66.072  1.00  0.00     0.240 C
HETATM   18  O2  UNL     1      17.361  41.849  66.114  1.00  0.00    -0.271 OA
HETATM   19  N3  UNL     1      15.678  43.382  65.603  1.00  0.00    -0.349 N
ATOM     20  H3  UNL     1      15.409  44.366  65.603  1.00  0.00     0.163 HD
BRANCH  19  21
HETATM   21  C13 UNL     1      14.724  42.408  65.124  1.00  0.00     0.146 C
BRANCH  21  22
HETATM   22  C14 UNL     1      15.253  41.736  63.918  1.00  0.00     0.256 C
HETATM   23  O3  UNL     1      15.426  40.517  63.894  1.00  0.00    -0.305 OA
ENDBRANCH  21  22
BRANCH  21  24
HETATM   24  C15 UNL     1      13.417  43.086  64.754  1.00  0.00     0.036 C
BRANCH  24  25
HETATM   25  C16 UNL     1      12.321  42.704  65.747  1.00  0.00    -0.020 C
HETATM   26  C17 UNL     1      12.385  41.222  66.069  1.00  0.00     0.009 C
HETATM   27  C18 UNL     1      11.003  43.117  65.194  1.00  0.00     0.009 C
ENDBRANCH  24  25
ENDBRANCH  21  24
ENDBRANCH  19  21
ENDBRANCH  15  17
ENDBRANCH  13  15
ENDBRANCH   6  11
ENDBRANCH   4   6
ENDBRANCH   3   4
BRANCH   3  28
HETATM   28  C19 UNL     1      14.943  44.857  72.984  1.00  0.00     0.020 C
HETATM   29  C20 UNL     1      14.720  45.897  74.064  1.00  0.00     0.007 C
HETATM   30  C21 UNL     1      16.104  45.960  74.709  1.00  0.00     0.000 C
HETATM   31  C22 UNL     1      16.837  44.716  74.345  1.00  0.00     0.000 C
HETATM   32  C23 UNL     1      15.773  43.867  73.711  1.00  0.00     0.007 C
ENDBRANCH   3  28
TORSDOF 13
ENDMDL