MODEL 5
REMARK VINA RESULT: -9.072626638      2.914      9.759
REMARK  12 active torsions:
REMARK  status: ('A' for Active; 'I' for Inactive)
REMARK    1  A    between atoms: C2_2  and  N1_3
REMARK    2  A    between atoms: N1_3  and  S1_5
REMARK    3  A    between atoms: S1_5  and  C3_8
REMARK    4  A    between atoms: C3_8  and  C4_9
REMARK    5  A    between atoms: C8_13  and  C9_14
REMARK    6  A    between atoms: C9_14  and  N2_15
REMARK       I    between atoms: N2_15  and  C10_17
REMARK       I    between atoms: C10_17  and  N3_19
REMARK    7  A    between atoms: N3_19  and  C11_21
REMARK    8  A    between atoms: C11_21  and  C12_22
REMARK    9  A    between atoms: C11_21  and  C14_24
REMARK   10  A    between atoms: C14_24  and  O4_25
REMARK   11  A    between atoms: O4_25  and  C15_26
REMARK   12  A    between atoms: C15_26  and  C16_27
ROOT
HETATM    1  C9  UNL     1       9.908  41.629  66.473  1.00  0.00     0.129 C
ENDROOT
BRANCH   1   2
HETATM    2  C8  UNL     1       9.499  40.925  67.775  1.00  0.00     0.004 C
HETATM    3  C7  UNL     1       8.566  41.856  68.518  1.00  0.00     0.006 C
HETATM    4  C6  UNL     1       7.139  41.489  68.553  1.00  0.00     0.001 C
HETATM    5  C5  UNL     1       6.815  40.067  68.720  1.00  0.00     0.005 C
HETATM    6  C4  UNL     1       7.954  39.084  68.609  1.00  0.00     0.001 C
HETATM    7  C19 UNL     1       8.909  39.568  67.538  1.00  0.00     0.012 C
BRANCH   6   8
HETATM    8  C3  UNL     1       8.605  38.911  69.938  1.00  0.00     0.167 C
BRANCH   8   9
HETATM    9  S1  UNL     1       7.966  37.619  70.939  1.00  0.00     0.226 S
HETATM   10  O1  UNL     1       6.726  38.077  71.703  1.00  0.00    -0.206 OA
HETATM   11  O2  UNL     1       7.736  36.342  70.222  1.00  0.00    -0.206 OA
BRANCH   9  12
HETATM   12  N1  UNL     1       9.153  37.298  72.190  1.00  0.00    -0.320 N
ATOM     13  H1  UNL     1      10.017  37.819  72.336  1.00  0.00     0.172 HD
BRANCH  12  14
HETATM   14  C2  UNL     1       8.699  36.162  72.985  1.00  0.00     0.127 C
HETATM   15  C1  UNL     1       9.667  35.021  72.759  1.00  0.00     0.027 C
ENDBRANCH  12  14
ENDBRANCH   9  12
ENDBRANCH   8   9
ENDBRANCH   6   8
ENDBRANCH   1   2
BRANCH   1  16
HETATM   16  N2  UNL     1      11.051  42.444  66.602  1.00  0.00    -0.343 N
HETATM   17  C10 UNL     1      12.317  42.032  66.135  1.00  0.00     0.320 C
HETATM   18  O3  UNL     1      12.400  40.871  65.627  1.00  0.00    -0.247 OA
HETATM   19  N3  UNL     1      13.472  42.831  66.201  1.00  0.00    -0.314 N
ATOM     20  H3  UNL     1      13.341  43.762  66.598  1.00  0.00     0.170 HD
ATOM     21  H2  UNL     1      10.961  43.358  67.046  1.00  0.00     0.164 HD
BRANCH  19  22
HETATM   22  C11 UNL     1      14.802  42.518  65.789  1.00  0.00     0.014 C
BRANCH  22  23
HETATM   23  C12 UNL     1      14.973  42.205  64.331  1.00  0.00     0.050 C
HETATM   24  C13 UNL     1      16.445  41.842  64.060  1.00  0.00     0.011 C
ENDBRANCH  22  23
BRANCH  22  25
HETATM   25  C14 UNL     1      15.856  43.379  66.388  1.00  0.00     0.220 C
BRANCH  25  26
HETATM   26  O4  UNL     1      16.605  42.897  67.405  1.00  0.00    -0.385 OA
BRANCH  26  27
HETATM   27  C15 UNL     1      17.913  43.192  67.528  1.00  0.00     0.172 C
BRANCH  27  28
HETATM   28  C16 UNL     1      18.868  42.380  66.706  1.00  0.00     0.001 C
HETATM   29  C17 UNL     1      19.884  41.657  67.589  1.00  0.00     0.011 C
HETATM   30  C18 UNL     1      19.592  43.255  65.749  1.00  0.00     0.011 C
ENDBRANCH  27  28
ENDBRANCH  26  27
ENDBRANCH  25  26
ENDBRANCH  22  25
ENDBRANCH  19  22
ENDBRANCH   1  16
TORSDOF 12
ENDMDL