MODEL 4
REMARK VINA RESULT: -8.794091330      1.844      5.271
REMARK  12 active torsions:
REMARK  status: ('A' for Active; 'I' for Inactive)
REMARK    1  A    between atoms: C2_2  and  C3_3
REMARK    2  A    between atoms: C3_3  and  C5_5
REMARK    3  A    between atoms: C5_5  and  C6_6
REMARK    4  A    between atoms: C11_11  and  C12_12
REMARK    5  A    between atoms: C12_12  and  C13_13
REMARK    6  A    between atoms: C13_13  and  N1_14
REMARK    7  A    between atoms: C13_13  and  C16_20
REMARK       I    between atoms: N1_14  and  C14_16
REMARK    8  A    between atoms: C14_16  and  C15_18
REMARK       I    between atoms: C16_20  and  N2_22
REMARK    9  A    between atoms: N2_22  and  C17_24
REMARK   10  A    between atoms: C17_24  and  C18_25
REMARK   11  A    between atoms: C17_24  and  C19_28
REMARK   12  A    between atoms: C19_28  and  C21_30
ROOT
HETATM    1  C13 UNL     1      17.616  44.077  68.182  1.00  0.00     0.177 C
ENDROOT
BRANCH   1   2
HETATM    2  C12 UNL     1      18.591  43.091  68.659  1.00  0.00     0.040 C
BRANCH   2   3
HETATM    3  C11 UNL     1      19.738  42.704  67.815  1.00  0.00    -0.008 C
HETATM    4  C6  UNL     1      20.912  42.070  68.555  1.00  0.00    -0.010 C
HETATM    5  C7  UNL     1      22.170  42.547  67.975  1.00  0.00     0.005 C
HETATM    6  C8  UNL     1      22.239  42.440  66.457  1.00  0.00     0.000 C
HETATM    7  C9  UNL     1      21.032  42.984  65.780  1.00  0.00     0.000 C
HETATM    8  C10 UNL     1      20.190  43.715  66.826  1.00  0.00     0.005 C
BRANCH   4   9
HETATM    9  C5  UNL     1      20.628  40.658  68.773  1.00  0.00     0.009 C
BRANCH   9  10
HETATM   10  C3  UNL     1      20.993  39.887  69.954  1.00  0.00    -0.019 C
HETATM   11  C4  UNL     1      22.505  39.498  69.749  1.00  0.00     0.010 C
BRANCH  10  12
HETATM   12  C2  UNL     1      21.003  40.640  71.233  1.00  0.00    -0.000 C
HETATM   13  C1  UNL     1      19.569  40.845  71.761  1.00  0.00     0.005 C
ENDBRANCH  10  12
ENDBRANCH   9  10
ENDBRANCH   4   9
ENDBRANCH   2   3
ENDBRANCH   1   2
BRANCH   1  14
HETATM   14  N1  UNL     1      16.407  43.572  67.585  1.00  0.00    -0.342 N
HETATM   15  C14 UNL     1      16.011  43.783  66.232  1.00  0.00     0.279 C
HETATM   16  O1  UNL     1      16.734  44.455  65.445  1.00  0.00    -0.265 OA
ATOM     17  H1  UNL     1      15.786  43.019  68.177  1.00  0.00     0.163 HD
BRANCH  15  18
HETATM   18  C15 UNL     1      14.771  43.239  65.703  1.00  0.00     0.332 C
HETATM   19  O2  UNL     1      13.933  42.628  66.420  1.00  0.00    -0.297 OA
ENDBRANCH  15  18
ENDBRANCH   1  14
BRANCH   1  20
HETATM   20  C16 UNL     1      17.186  44.949  69.300  1.00  0.00     0.241 C
HETATM   21  O3  UNL     1      17.923  45.961  69.546  1.00  0.00    -0.271 OA
HETATM   22  N2  UNL     1      16.056  44.786  70.118  1.00  0.00    -0.346 N
ATOM     23  H2  UNL     1      15.439  43.993  69.948  1.00  0.00     0.163 HD
BRANCH  22  24
HETATM   24  C17 UNL     1      15.729  45.714  71.211  1.00  0.00     0.177 C
BRANCH  24  25
HETATM   25  C18 UNL     1      14.650  46.633  70.781  1.00  0.00     0.254 C
HETATM   26  N3  UNL     1      13.300  46.584  71.128  1.00  0.00    -0.060 NA
HETATM   27  O4  UNL     1      14.981  47.597  69.998  1.00  0.00    -0.275 OA
ENDBRANCH  24  25
BRANCH  24  28
HETATM   28  C19 UNL     1      15.485  44.972  72.475  1.00  0.00     0.013 C
HETATM   29  C20 UNL     1      15.525  45.831  73.709  1.00  0.00     0.012 C
BRANCH  28  30
HETATM   30  C21 UNL     1      16.361  43.788  72.640  1.00  0.00     0.002 C
HETATM   31  C22 UNL     1      17.771  44.231  73.075  1.00  0.00     0.005 C
ENDBRANCH  28  30
ENDBRANCH  24  28
ENDBRANCH  22  24
ENDBRANCH   1  20
TORSDOF 12
ENDMDL