MODEL 1
REMARK VINA RESULT: -8.126039548      0.000      0.000
REMARK  12 active torsions:
REMARK  status: ('A' for Active; 'I' for Inactive)
REMARK       I    between atoms: N1_2  and  C2_4
REMARK    1  A    between atoms: C2_4  and  C3_6
REMARK    2  A    between atoms: C3_6  and  C4_7
REMARK    3  A    between atoms: C3_6  and  N2_14
REMARK    4  A    between atoms: C4_7  and  C5_8
REMARK    5  A    between atoms: C5_8  and  C6_10
REMARK    6  A    between atoms: N2_14  and  C10_16
REMARK    7  A    between atoms: C10_16  and  C11_17
REMARK    8  A    between atoms: C10_16  and  C14_20
REMARK    9  A    between atoms: C14_20  and  C15_21
REMARK   10  A    between atoms: C14_20  and  N3_25
REMARK   11  A    between atoms: C15_21  and  C16_22
REMARK       I    between atoms: N3_25  and  C19_27
REMARK   12  A    between atoms: C19_27  and  C20_29
ROOT
HETATM    1  C10 UNL     1      17.251  43.787  68.491  1.00  0.00     0.126 C
ENDROOT
BRANCH   1   2
HETATM    2  N2  UNL     1      18.210  43.241  69.431  1.00  0.00    -0.399 N
ATOM      3  H2  UNL     1      19.190  43.513  69.368  1.00  0.00     0.154 HD
BRANCH   2   4
HETATM    4  C3  UNL     1      17.800  42.339  70.428  1.00  0.00     0.177 C
BRANCH   4   5
HETATM    5  C2  UNL     1      17.030  42.750  71.591  1.00  0.00     0.240 C
HETATM    6  N1  UNL     1      17.271  43.904  72.398  1.00  0.00    -0.364 N
HETATM    7  C1  UNL     1      16.454  44.233  73.535  1.00  0.00     0.149 C
ATOM      8  H1  UNL     1      18.050  44.516  72.158  1.00  0.00     0.161 HD
HETATM    9  O1  UNL     1      16.045  42.045  71.975  1.00  0.00    -0.271 OA
ENDBRANCH   4   5
BRANCH   4  10
HETATM   10  C4  UNL     1      19.119  41.686  70.984  1.00  0.00     0.113 C
BRANCH  10  11
HETATM   11  C5  UNL     1      20.270  42.576  70.931  1.00  0.00     0.133 C
HETATM   12  O2  UNL     1      20.267  43.690  71.436  1.00  0.00    -0.297 OA
BRANCH  11  13
HETATM   13  C6  UNL     1      21.553  42.215  70.262  1.00  0.00     0.059 A
HETATM   14  C7  UNL     1      22.517  41.562  71.282  1.00  0.00     0.017 A
HETATM   15  C8  UNL     1      22.061  40.877  70.038  1.00  0.00    -0.007 A
HETATM   16  C9  UNL     1      21.284  39.611  70.090  1.00  0.00     0.011 C
ENDBRANCH  11  13
ENDBRANCH  10  11
ENDBRANCH   4  10
ENDBRANCH   2   4
ENDBRANCH   1   2
BRANCH   1  17
HETATM   17  C11 UNL     1      17.058  45.210  68.660  1.00  0.00     0.005 C
HETATM   18  C12 UNL     1      18.284  45.952  69.238  1.00  0.00     0.012 C
HETATM   19  C13 UNL     1      15.867  45.605  69.536  1.00  0.00     0.012 C
ENDBRANCH   1  17
BRANCH   1  20
HETATM   20  C14 UNL     1      17.625  43.155  67.202  1.00  0.00     0.012 C
BRANCH  20  21
HETATM   21  C15 UNL     1      18.809  42.357  66.971  1.00  0.00     0.058 C
BRANCH  21  22
HETATM   22  C16 UNL     1      19.917  42.885  66.130  1.00  0.00    -0.017 C
HETATM   23  C17 UNL     1      19.907  44.421  66.103  1.00  0.00     0.010 C
HETATM   24  C18 UNL     1      21.295  42.536  66.680  1.00  0.00     0.010 C
ENDBRANCH  21  22
ENDBRANCH  20  21
BRANCH  20  25
HETATM   25  N3  UNL     1      16.405  42.544  66.665  1.00  0.00    -0.332 N
HETATM   26  C19 UNL     1      15.633  43.070  65.610  1.00  0.00     0.226 C
HETATM   27  O3  UNL     1      16.013  44.141  65.081  1.00  0.00    -0.273 OA
ATOM     28  H3  UNL     1      16.090  41.671  67.088  1.00  0.00     0.168 HD
BRANCH  26  29
HETATM   29  C20 UNL     1      14.403  42.430  65.099  1.00  0.00     0.082 A
HETATM   30  C21 UNL     1      13.256  43.264  64.653  1.00  0.00     0.019 A
HETATM   31  C22 UNL     1      13.190  42.604  65.980  1.00  0.00    -0.005 A
HETATM   32  C23 UNL     1      12.368  41.343  66.155  1.00  0.00     0.011 C
ENDBRANCH  26  29
ENDBRANCH  20  25
ENDBRANCH   1  20
TORSDOF 12
ENDMDL