MODEL 4
REMARK VINA RESULT: -7.406860718      2.548      3.863
REMARK  12 active torsions:
REMARK  status: ('A' for Active; 'I' for Inactive)
REMARK       I    between atoms: C2_2  and  N1_4
REMARK    1  A    between atoms: N1_4  and  C3_6
REMARK    2  A    between atoms: C3_6  and  C4_7
REMARK    3  A    between atoms: C3_6  and  C8_11
REMARK    4  A    between atoms: C4_7  and  C5_8
REMARK       I    between atoms: C8_11  and  N2_13
REMARK    5  A    between atoms: N2_13  and  C9_15
REMARK    6  A    between atoms: C9_15  and  C10_16
REMARK    7  A    between atoms: C9_15  and  C14_20
REMARK    8  A    between atoms: C10_16  and  C11_17
REMARK       I    between atoms: C14_20  and  N3_22
REMARK    9  A    between atoms: N3_22  and  C15_24
REMARK   10  A    between atoms: C15_24  and  C16_25
REMARK   11  A    between atoms: C15_24  and  C17_27
REMARK   12  A    between atoms: C17_27  and  C18_28
ROOT
HETATM    1  C9  UNL     1      20.723  43.336  69.051  1.00  0.00     0.177 C
ENDROOT
BRANCH   1   2
HETATM    2  N2  UNL     1      19.567  44.270  68.886  1.00  0.00    -0.346 N
HETATM    3  C8  UNL     1      18.302  43.827  68.489  1.00  0.00     0.241 C
HETATM    4  O2  UNL     1      18.109  42.589  68.254  1.00  0.00    -0.271 OA
ATOM      5  H2  UNL     1      19.706  45.263  69.070  1.00  0.00     0.163 HD
BRANCH   3   6
HETATM    6  C3  UNL     1      17.197  44.827  68.347  1.00  0.00     0.177 C
BRANCH   6   7
HETATM    7  N1  UNL     1      16.064  44.150  67.718  1.00  0.00    -0.348 N
HETATM    8  C2  UNL     1      15.962  44.035  66.313  1.00  0.00     0.214 C
HETATM    9  C1  UNL     1      14.793  43.340  65.727  1.00  0.00     0.117 C
HETATM   10  O1  UNL     1      16.873  44.529  65.607  1.00  0.00    -0.274 OA
ATOM     11  H1  UNL     1      15.331  43.752  68.306  1.00  0.00     0.163 HD
ENDBRANCH   6   7
BRANCH   6  12
HETATM   12  C4  UNL     1      16.817  45.228  69.750  1.00  0.00     0.038 C
BRANCH  12  13
HETATM   13  C5  UNL     1      15.558  46.036  69.737  1.00  0.00    -0.020 C
HETATM   14  C6  UNL     1      15.840  47.433  69.286  1.00  0.00     0.009 C
HETATM   15  C7  UNL     1      14.998  46.046  71.151  1.00  0.00     0.009 C
ENDBRANCH  12  13
ENDBRANCH   6  12
ENDBRANCH   3   6
ENDBRANCH   1   2
BRANCH   1  16
HETATM   16  C10 UNL     1      21.683  43.764  68.012  1.00  0.00     0.038 C
BRANCH  16  17
HETATM   17  C11 UNL     1      21.876  42.964  66.794  1.00  0.00    -0.020 C
HETATM   18  C12 UNL     1      20.795  43.007  65.761  1.00  0.00     0.009 C
HETATM   19  C13 UNL     1      21.979  41.495  67.254  1.00  0.00     0.009 C
ENDBRANCH  16  17
ENDBRANCH   1  16
BRANCH   1  20
HETATM   20  C14 UNL     1      21.155  43.319  70.437  1.00  0.00     0.241 C
HETATM   21  O3  UNL     1      20.392  43.798  71.314  1.00  0.00    -0.271 OA
HETATM   22  N3  UNL     1      22.392  42.786  70.859  1.00  0.00    -0.351 N
ATOM     23  H3  UNL     1      23.037  42.392  70.174  1.00  0.00     0.163 HD
BRANCH  22  24
HETATM   24  C15 UNL     1      22.759  42.797  72.301  1.00  0.00     0.118 C
BRANCH  24  25
HETATM   25  C16 UNL     1      24.076  43.445  72.428  1.00  0.00     0.079 C
HETATM   26  S1  UNL     1      24.780  43.532  73.684  1.00  0.00    -0.095 SA
ENDBRANCH  24  25
BRANCH  24  27
HETATM   27  C17 UNL     1      22.668  41.390  72.784  1.00  0.00     0.034 C
BRANCH  27  28
HETATM   28  C18 UNL     1      21.426  41.103  73.536  1.00  0.00    -0.021 C
HETATM   29  C19 UNL     1      20.843  42.425  74.117  1.00  0.00     0.009 C
HETATM   30  C20 UNL     1      20.274  40.547  72.729  1.00  0.00     0.009 C
ENDBRANCH  27  28
ENDBRANCH  24  27
ENDBRANCH  22  24
ENDBRANCH   1  20
TORSDOF 12
ENDMDL