MODEL 3
REMARK VINA RESULT: -9.307402069      1.124      2.315
REMARK  13 active torsions:
REMARK  status: ('A' for Active; 'I' for Inactive)
REMARK    1  A    between atoms: C2_2  and  C3_3
REMARK    2  A    between atoms: C3_3  and  C4_4
REMARK    3  A    between atoms: C4_4  and  C5_5
REMARK    4  A    between atoms: C4_4  and  C17_25
REMARK    5  A    between atoms: C5_5  and  O1_6
REMARK    6  A    between atoms: O1_6  and  C6_7
REMARK    7  A    between atoms: C6_7  and  C7_8
REMARK    8  A    between atoms: C7_8  and  O2_9
REMARK    9  A    between atoms: C7_8  and  C8_11
REMARK   10  A    between atoms: C8_11  and  N1_12
REMARK   11  A    between atoms: C11_15  and  C12_16
REMARK   12  A    between atoms: C12_16  and  C13_17
REMARK   13  A    between atoms: C13_17  and  N2_18
ROOT
HETATM    1  C7  UNL     1      14.870  41.473  64.726  1.00  0.00     0.160 C
ENDROOT
BRANCH   1   2
HETATM    2  C6  UNL     1      16.135  42.246  64.811  1.00  0.00     0.200 C
BRANCH   2   3
HETATM    3  O1  UNL     1      16.654  42.412  66.043  1.00  0.00    -0.388 OA
BRANCH   3   4
HETATM    4  C5  UNL     1      17.967  42.265  66.310  1.00  0.00     0.172 C
BRANCH   4   5
HETATM    5  C4  UNL     1      18.456  43.168  67.420  1.00  0.00     0.013 C
BRANCH   5   6
HETATM    6  C3  UNL     1      19.763  43.811  67.216  1.00  0.00     0.007 C
BRANCH   6   7
HETATM    7  C2  UNL     1      20.495  43.381  65.979  1.00  0.00    -0.004 C
HETATM    8  C1  UNL     1      21.763  42.611  66.444  1.00  0.00     0.005 C
ENDBRANCH   6   7
ENDBRANCH   5   6
BRANCH   5   9
HETATM    9  C17 UNL     1      18.356  42.377  68.705  1.00  0.00    -0.008 C
HETATM   10  C18 UNL     1      17.830  43.213  69.845  1.00  0.00     0.005 C
HETATM   11  C19 UNL     1      17.408  42.259  70.944  1.00  0.00     0.000 C
HETATM   12  C20 UNL     1      18.651  41.565  71.447  1.00  0.00     0.000 C
HETATM   13  C21 UNL     1      19.866  41.784  70.616  1.00  0.00     0.000 C
HETATM   14  C22 UNL     1      19.629  41.730  69.129  1.00  0.00     0.005 C
ENDBRANCH   5   9
ENDBRANCH   4   5
ENDBRANCH   3   4
ENDBRANCH   2   3
ENDBRANCH   1   2
BRANCH   1  15
HETATM   15  O2  UNL     1      15.018  40.373  63.876  1.00  0.00    -0.392 OA
ATOM     16  H2  UNL     1      14.174  40.079  63.555  1.00  0.00     0.210 HD
ENDBRANCH   1  15
BRANCH   1  17
HETATM   17  C8  UNL     1      13.730  42.283  64.209  1.00  0.00     0.160 C
BRANCH  17  18
HETATM   18  N1  UNL     1      12.821  42.799  65.172  1.00  0.00    -0.371 N
HETATM   19  C9  UNL     1      11.699  43.467  64.644  1.00  0.00     0.063 C
HETATM   20  C10 UNL     1      10.351  43.165  65.151  1.00  0.00     0.049 C
HETATM   21  C11 UNL     1      10.312  42.384  66.435  1.00  0.00    -0.004 C
HETATM   22  C15 UNL     1      11.422  41.321  66.434  1.00  0.00     0.049 C
HETATM   23  C16 UNL     1      12.700  42.134  66.405  1.00  0.00     0.063 C
BRANCH  21  24
HETATM   24  C12 UNL     1       8.972  41.772  66.674  1.00  0.00     0.025 C
BRANCH  24  25
HETATM   25  C13 UNL     1       9.070  40.300  67.041  1.00  0.00     0.122 C
BRANCH  25  26
HETATM   26  N2  UNL     1       8.825  40.125  68.463  1.00  0.00    -0.367 N
HETATM   27  C14 UNL     1       8.336  39.050  68.972  1.00  0.00     0.196 C
HETATM   28  N3  UNL     1       8.126  38.961  70.377  1.00  0.00    -0.067 NA
HETATM   29  N4  UNL     1       8.002  37.954  68.149  1.00  0.00    -0.067 NA
ATOM     30  H2  UNL     1       9.054  40.895  69.091  1.00  0.00     0.161 HD
ENDBRANCH  25  26
ENDBRANCH  24  25
ENDBRANCH  21  24
ENDBRANCH  17  18
ENDBRANCH   1  17
TORSDOF 13
ENDMDL