MODEL 3
REMARK VINA RESULT: -7.469640516      2.224      5.718
REMARK  13 active torsions:
REMARK  status: ('A' for Active; 'I' for Inactive)
REMARK    1  A    between atoms: C3_3  and  C4_4
REMARK    2  A    between atoms: C4_4  and  C5_5
REMARK    3  A    between atoms: C5_5  and  N1_6
REMARK    4  A    between atoms: C5_5  and  C20_31
REMARK       I    between atoms: N1_6  and  C6_8
REMARK    5  A    between atoms: C6_8  and  C7_10
REMARK    6  A    between atoms: C7_10  and  N2_11
REMARK    7  A    between atoms: C7_10  and  C8_15
REMARK    8  A    between atoms: C8_15  and  N3_17
REMARK    9  A    between atoms: N3_17  and  C10_19
REMARK   10  A    between atoms: C10_19  and  C11_20
REMARK   11  A    between atoms: C10_19  and  C15_24
REMARK   12  A    between atoms: C11_20  and  C12_21
REMARK       I    between atoms: C15_24  and  N4_26
REMARK   13  A    between atoms: C20_31  and  C22_33
ROOT
HETATM    1  C1  UNL     1      14.816  43.347  65.800  1.00  0.00     0.012 C
HETATM    2  C2  UNL     1      15.979  43.527  66.094  1.00  0.00    -0.117 C
HETATM    3  C3  UNL     1      17.390  43.767  66.456  1.00  0.00     0.095 C
ENDROOT
BRANCH   3   4
HETATM    4  C4  UNL     1      17.739  42.905  67.641  1.00  0.00     0.037 C
BRANCH   4   5
HETATM    5  C5  UNL     1      19.185  42.922  67.982  1.00  0.00     0.089 C
BRANCH   5   6
HETATM    6  N1  UNL     1      19.369  42.472  69.356  1.00  0.00    -0.354 N
HETATM    7  C6  UNL     1      20.074  43.245  70.309  1.00  0.00     0.250 C
HETATM    8  O1  UNL     1      20.544  44.339  69.901  1.00  0.00    -0.271 OA
ATOM      9  H1  UNL     1      18.978  41.574  69.639  1.00  0.00     0.162 HD
BRANCH   7  10
HETATM   10  C7  UNL     1      20.254  42.795  71.701  1.00  0.00     0.296 C
BRANCH  10  11
HETATM   11  N2  UNL     1      21.648  42.996  72.115  1.00  0.00    -0.065 N
ATOM     12  H23 UNL     1      22.240  42.204  71.866  1.00  0.00     0.275 HD
ATOM     13  H22 UNL     1      22.114  43.710  71.555  1.00  0.00     0.275 HD
ATOM     14  H21 UNL     1      21.687  43.205  73.112  1.00  0.00     0.275 HD
ENDBRANCH  10  11
BRANCH  10  15
HETATM   15  C8  UNL     1      19.409  43.698  72.661  1.00  0.00     0.113 C
HETATM   16  C9  UNL     1      20.127  43.705  73.971  1.00  0.00     0.034 C
BRANCH  15  17
HETATM   17  N3  UNL     1      18.094  43.224  72.636  1.00  0.00    -0.403 N
ATOM     18  H3  UNL     1      17.924  42.224  72.749  1.00  0.00     0.154 HD
BRANCH  17  19
HETATM   19  C10 UNL     1      16.973  44.109  72.456  1.00  0.00     0.170 C
BRANCH  19  20
HETATM   20  C11 UNL     1      16.818  44.366  71.008  1.00  0.00     0.038 C
BRANCH  20  21
HETATM   21  C12 UNL     1      16.603  45.723  70.480  1.00  0.00    -0.020 C
HETATM   22  C13 UNL     1      15.243  46.011  69.921  1.00  0.00     0.009 C
HETATM   23  C14 UNL     1      17.639  46.054  69.385  1.00  0.00     0.009 C
ENDBRANCH  20  21
ENDBRANCH  19  20
BRANCH  19  24
HETATM   24  C15 UNL     1      15.785  43.748  73.226  1.00  0.00     0.242 C
HETATM   25  O2  UNL     1      15.483  42.550  73.539  1.00  0.00    -0.271 OA
HETATM   26  N4  UNL     1      14.853  44.751  73.705  1.00  0.00    -0.350 N
HETATM   27  C16 UNL     1      14.933  46.185  73.550  1.00  0.00     0.126 C
HETATM   28  C19 UNL     1      13.635  44.471  74.462  1.00  0.00     0.126 C
HETATM   29  C17 UNL     1      13.489  46.602  73.457  1.00  0.00     0.021 C
HETATM   30  C18 UNL     1      12.852  45.735  74.534  1.00  0.00     0.021 C
ENDBRANCH  19  24
ENDBRANCH  17  19
ENDBRANCH  15  17
ENDBRANCH  10  15
ENDBRANCH   7  10
ENDBRANCH   5   6
BRANCH   5  31
HETATM   31  C20 UNL     1      20.027  42.002  67.130  1.00  0.00     0.004 C
HETATM   32  C21 UNL     1      20.639  40.950  68.009  1.00  0.00     0.012 C
BRANCH  31  33
HETATM   33  C22 UNL     1      21.028  42.747  66.287  1.00  0.00     0.002 C
HETATM   34  C23 UNL     1      22.444  42.271  66.514  1.00  0.00     0.005 C
ENDBRANCH  31  33
ENDBRANCH   5  31
ENDBRANCH   4   5
ENDBRANCH   3   4
TORSDOF 13
ENDMDL