MODEL 2
REMARK VINA RESULT: -8.763295840      1.871      5.481
REMARK  12 active torsions:
REMARK  status: ('A' for Active; 'I' for Inactive)
REMARK    1  A    between atoms: C2_2  and  N1_3
REMARK    2  A    between atoms: C3_6  and  C4_7
REMARK    3  A    between atoms: C4_7  and  C5_8
REMARK    4  A    between atoms: C4_7  and  N2_12
REMARK    5  A    between atoms: C5_8  and  C6_9
REMARK       I    between atoms: N2_12  and  C9_14
REMARK    6  A    between atoms: C9_14  and  C10_16
REMARK    7  A    between atoms: C10_16  and  N3_17
REMARK    8  A    between atoms: C14_21  and  C15_22
REMARK    9  A    between atoms: C15_22  and  C16_23
REMARK   10  A    between atoms: C17_24  and  C18_25
REMARK   11  A    between atoms: C18_25  and  C19_26
REMARK   12  A    between atoms: C18_25  and  N4_28
REMARK       I    between atoms: N4_28  and  C20_30
ROOT
HETATM    1  N3  UNL     1      17.086  44.470  71.515  1.00  0.00    -0.384 N
HETATM    2  C11 UNL     1      16.099  45.406  71.783  1.00  0.00     0.058 C
HETATM    3  C12 UNL     1      15.392  46.013  70.609  1.00  0.00     0.044 C
HETATM    4  C13 UNL     1      16.311  46.248  69.426  1.00  0.00     0.011 C
HETATM    5  C14 UNL     1      16.889  44.889  69.093  1.00  0.00     0.007 C
HETATM    6  C22 UNL     1      17.697  44.430  70.242  1.00  0.00     0.127 C
ENDROOT
BRANCH   1   7
HETATM    7  C10 UNL     1      17.964  44.057  72.546  1.00  0.00     0.224 C
BRANCH   7   8
HETATM    8  C9  UNL     1      18.908  43.011  72.092  1.00  0.00     0.235 C
HETATM    9  N2  UNL     1      20.024  43.384  71.320  1.00  0.00    -0.352 N
ATOM     10  H2  UNL     1      20.184  44.362  71.077  1.00  0.00     0.163 HD
HETATM   11  O1  UNL     1      18.758  41.789  72.367  1.00  0.00    -0.272 OA
BRANCH   9  12
HETATM   12  C4  UNL     1      20.962  42.330  70.867  1.00  0.00     0.109 C
BRANCH  12  13
HETATM   13  C3  UNL     1      22.152  42.443  71.728  1.00  0.00     0.022 C
HETATM   14  C2  UNL     1      22.507  41.530  72.775  1.00  0.00    -0.004 C
HETATM   15  C1  UNL     1      23.988  41.368  73.175  1.00  0.00     0.067 C
BRANCH  14  16
HETATM   16  N1  UNL     1      21.758  40.842  73.530  1.00  0.00    -0.403 N
ATOM     17  H12 UNL     1      21.167  40.043  73.303  1.00  0.00     0.156 HD
ATOM     18  H11 UNL     1      21.738  41.231  74.473  1.00  0.00     0.156 HD
ENDBRANCH  14  16
ENDBRANCH  12  13
BRANCH  12  19
HETATM   19  C5  UNL     1      21.087  42.408  69.406  1.00  0.00     0.033 C
BRANCH  19  20
HETATM   20  C6  UNL     1      20.430  41.536  68.447  1.00  0.00    -0.021 C
HETATM   21  C7  UNL     1      20.364  41.996  67.018  1.00  0.00     0.009 C
HETATM   22  C8  UNL     1      21.212  40.201  68.392  1.00  0.00     0.009 C
ENDBRANCH  19  20
ENDBRANCH  12  19
ENDBRANCH   9  12
ENDBRANCH   7   8
ENDBRANCH   1   7
BRANCH   5  23
HETATM   23  C15 UNL     1      17.756  44.945  67.854  1.00  0.00     0.033 C
BRANCH  23  24
HETATM   24  C16 UNL     1      17.189  44.000  66.860  1.00  0.00    -0.028 C
HETATM   25  C17 UNL     1      15.906  44.052  66.534  1.00  0.00     0.001 C
BRANCH  25  26
HETATM   26  C18 UNL     1      15.324  43.098  65.528  1.00  0.00     0.168 C
BRANCH  26  27
HETATM   27  C19 UNL     1      16.417  42.175  65.064  1.00  0.00     0.260 C
HETATM   28  O2  UNL     1      16.350  40.971  65.329  1.00  0.00    -0.304 OA
ENDBRANCH  26  27
BRANCH  26  29
HETATM   29  N4  UNL     1      14.237  42.355  66.107  1.00  0.00    -0.347 N
HETATM   30  C20 UNL     1      12.924  42.521  65.616  1.00  0.00     0.214 C
HETATM   31  C21 UNL     1      11.813  41.739  66.232  1.00  0.00     0.117 C
HETATM   32  O3  UNL     1      12.706  43.327  64.663  1.00  0.00    -0.274 OA
ATOM     33  H4  UNL     1      14.415  41.707  66.874  1.00  0.00     0.163 HD
ENDBRANCH  26  29
ENDBRANCH  25  26
ENDBRANCH  23  24
ENDBRANCH   5  23
TORSDOF 12
ENDMDL