MODEL 2
REMARK VINA RESULT: -8.667907670      0.961      1.587
REMARK  12 active torsions:
REMARK  status: ('A' for Active; 'I' for Inactive)
REMARK    1  A    between atoms: C2_2  and  C4_4
REMARK    2  A    between atoms: C4_4  and  C5_5
REMARK    3  A    between atoms: C5_5  and  N1_6
REMARK    4  A    between atoms: C5_5  and  C22_29
REMARK       I    between atoms: N1_6  and  C6_8
REMARK    5  A    between atoms: C6_8  and  C7_10
REMARK    6  A    between atoms: C7_10  and  N2_11
REMARK    7  A    between atoms: C7_10  and  C19_26
REMARK    8  A    between atoms: N2_11  and  C8_14
REMARK    9  A    between atoms: C8_14  and  C9_15
REMARK   10  A    between atoms: C8_14  and  C16_22
REMARK   11  A    between atoms: C9_15  and  C10_16
REMARK   12  A    between atoms: C16_22  and  N3_23
ROOT
HETATM    1  C7  UNL     1      17.125  44.624  68.206  1.00  0.00     0.280 C
ENDROOT
BRANCH   1   2
HETATM    2  C6  UNL     1      16.445  44.192  66.980  1.00  0.00     0.249 C
HETATM    3  N1  UNL     1      15.495  43.183  66.846  1.00  0.00    -0.346 N
ATOM      4  H1  UNL     1      15.220  42.668  67.682  1.00  0.00     0.163 HD
HETATM    5  O1  UNL     1      16.754  44.808  65.901  1.00  0.00    -0.271 OA
BRANCH   3   6
HETATM    6  C5  UNL     1      14.858  42.815  65.555  1.00  0.00     0.174 C
BRANCH   6   7
HETATM    7  C4  UNL     1      13.610  42.090  65.816  1.00  0.00     0.038 C
BRANCH   7   8
HETATM    8  C2  UNL     1      12.348  42.846  65.819  1.00  0.00    -0.020 C
HETATM    9  C1  UNL     1      11.936  43.446  64.533  1.00  0.00     0.009 C
HETATM   10  C3  UNL     1      11.255  41.904  66.342  1.00  0.00     0.009 C
ENDBRANCH   7   8
ENDBRANCH   6   7
BRANCH   6  11
HETATM   11  C22 UNL     1      15.916  42.100  64.835  1.00  0.00     0.254 C
HETATM   12  N4  UNL     1      16.836  41.221  65.481  1.00  0.00    -0.060 NA
HETATM   13  O2  UNL     1      16.070  42.220  63.567  1.00  0.00    -0.275 OA
ENDBRANCH   6  11
ENDBRANCH   3   6
ENDBRANCH   1   2
BRANCH   1  14
HETATM   14  N2  UNL     1      18.429  45.235  67.983  1.00  0.00    -0.056 N
ATOM     15  H22 UNL     1      18.610  45.352  66.985  1.00  0.00     0.278 HD
ATOM     16  H21 UNL     1      18.425  46.215  68.269  1.00  0.00     0.278 HD
BRANCH  14  17
HETATM   17  C8  UNL     1      19.490  44.533  68.608  1.00  0.00     0.215 C
BRANCH  17  18
HETATM   18  C9  UNL     1      19.164  43.268  69.306  1.00  0.00     0.039 C
BRANCH  18  19
HETATM   19  C10 UNL     1      20.061  42.733  70.337  1.00  0.00    -0.013 C
HETATM   20  C11 UNL     1      20.099  41.279  70.595  1.00  0.00     0.005 C
HETATM   21  C12 UNL     1      19.187  40.811  71.716  1.00  0.00     0.000 C
HETATM   22  C13 UNL     1      17.925  41.601  71.840  1.00  0.00     0.000 C
HETATM   23  C14 UNL     1      18.277  43.048  72.071  1.00  0.00     0.000 C
HETATM   24  C15 UNL     1      19.709  43.385  71.707  1.00  0.00     0.005 C
ENDBRANCH  18  19
ENDBRANCH  17  18
BRANCH  17  25
HETATM   25  C16 UNL     1      20.563  44.292  67.530  1.00  0.00     0.304 C
BRANCH  25  26
HETATM   26  N3  UNL     1      20.357  42.965  66.937  1.00  0.00     0.082 N
HETATM   27  C17 UNL     1      19.912  43.199  65.569  1.00  0.00     0.309 C
HETATM   28  C18 UNL     1      21.658  42.300  66.834  1.00  0.00     0.309 C
ENDBRANCH  25  26
ENDBRANCH  17  25
ENDBRANCH  14  17
ENDBRANCH   1  14
BRANCH   1  29
HETATM   29  C19 UNL     1      16.270  45.539  69.079  1.00  0.00     0.017 C
HETATM   30  C20 UNL     1      16.168  45.057  70.498  1.00  0.00     0.012 C
HETATM   31  C21 UNL     1      16.668  46.965  69.060  1.00  0.00     0.012 C
ENDBRANCH   1  29
TORSDOF 12
ENDMDL