MODEL 5
REMARK VINA RESULT: -7.441324233      1.009      1.530
REMARK  12 active torsions:
REMARK  status: ('A' for Active; 'I' for Inactive)
REMARK    1  A    between atoms: S1_2  and  C2_3
REMARK    2  A    between atoms: C2_3  and  C3_4
REMARK    3  A    between atoms: C3_4  and  N1_5
REMARK    4  A    between atoms: C4_6  and  C5_7
REMARK    5  A    between atoms: C10_13  and  C11_14
REMARK    6  A    between atoms: C11_14  and  C12_15
REMARK    7  A    between atoms: C12_15  and  C13_16
REMARK    8  A    between atoms: C13_16  and  C14_17
REMARK    9  A    between atoms: C14_17  and  N3_18
REMARK       I    between atoms: N3_18  and  C15_20
REMARK       I    between atoms: C15_20  and  N4_22
REMARK   10  A    between atoms: N4_22  and  C16_24
REMARK   11  A    between atoms: C16_24  and  C17_25
REMARK   12  A    between atoms: C17_25  and  N5_26
ROOT
HETATM    1  C5  UNL     1      18.028  42.396  70.391  1.00  0.00     0.149 C
HETATM    2  C6  UNL     1      17.565  43.732  70.648  1.00  0.00     0.061 C
HETATM    3  N2  UNL     1      17.172  44.803  70.844  1.00  0.00    -0.197 NA
ENDROOT
BRANCH   1   4
HETATM    4  C4  UNL     1      19.411  42.117  71.015  1.00  0.00     0.097 C
HETATM    5  N1  UNL     1      20.371  42.155  70.007  1.00  0.00    -0.381 N
HETATM    6  C10 UNL     1      21.034  40.999  69.527  1.00  0.00    -0.015 C
HETATM    7  C9  UNL     1      20.945  39.749  70.277  1.00  0.00     0.052 C
HETATM    8  C8  UNL     1      20.463  39.923  71.703  1.00  0.00     0.008 C
HETATM    9  C7  UNL     1      19.270  40.844  71.754  1.00  0.00     0.026 C
BRANCH   5  10
HETATM   10  C3  UNL     1      21.255  43.301  70.075  1.00  0.00     0.133 C
BRANCH  10  11
HETATM   11  C2  UNL     1      22.447  43.055  70.971  1.00  0.00     0.093 C
BRANCH  11  12
HETATM   12  S1  UNL     1      23.947  43.558  70.080  1.00  0.00    -0.172 SA
HETATM   13  C1  UNL     1      23.476  44.849  68.882  1.00  0.00     0.089 C
ENDBRANCH  11  12
ENDBRANCH  10  11
ENDBRANCH   5  10
BRANCH   6  14
HETATM   14  C11 UNL     1      21.023  40.980  68.022  1.00  0.00     0.052 C
BRANCH  14  15
HETATM   15  C12 UNL     1      22.015  41.736  67.283  1.00  0.00     0.011 C
BRANCH  15  16
HETATM   16  C13 UNL     1      21.588  42.709  66.266  1.00  0.00     0.045 C
BRANCH  16  17
HETATM   17  C14 UNL     1      20.396  43.524  66.476  1.00  0.00     0.065 C
BRANCH  17  18
HETATM   18  N3  UNL     1      19.401  43.745  65.527  1.00  0.00    -0.323 N
HETATM   19  C15 UNL     1      18.184  42.950  65.674  1.00  0.00     0.319 C
HETATM   20  O1  UNL     1      18.049  42.120  66.601  1.00  0.00    -0.247 OA
HETATM   21  N4  UNL     1      17.117  43.108  64.755  1.00  0.00    -0.341 N
ATOM     22  H4  UNL     1      17.233  43.791  64.005  1.00  0.00     0.164 HD
ATOM     23  H3  UNL     1      19.516  44.423  64.774  1.00  0.00     0.169 HD
BRANCH  21  24
HETATM   24  C16 UNL     1      15.895  42.381  64.806  1.00  0.00     0.152 C
BRANCH  24  25
HETATM   25  C17 UNL     1      14.770  43.071  65.530  1.00  0.00     0.255 C
BRANCH  25  26
HETATM   26  N5  UNL     1      13.480  42.540  65.183  1.00  0.00    -0.077 N
HETATM   27  C18 UNL     1      13.700  41.321  64.408  1.00  0.00     0.271 C
HETATM   28  C19 UNL     1      12.717  43.436  64.343  1.00  0.00     0.271 C
HETATM   29  C20 UNL     1      12.672  42.199  66.324  1.00  0.00     0.271 C
ENDBRANCH  25  26
ENDBRANCH  24  25
ENDBRANCH  21  24
ENDBRANCH  17  18
ENDBRANCH  16  17
ENDBRANCH  15  16
ENDBRANCH  14  15
ENDBRANCH   6  14
ENDBRANCH   1   4
TORSDOF 12
ENDMDL