MODEL 4
REMARK VINA RESULT: -5.623164391      1.448      1.448
REMARK  4 active torsions:
REMARK  status: ('A' for Active; 'I' for Inactive)
REMARK    1  A    between atoms: N3_4  and  C2_6
REMARK    2  A    between atoms: C2_6  and  N4_8
REMARK    3  A    between atoms: N4_8  and  C3_10
REMARK    4  A    between atoms: N5_11  and  O1_13
ROOT
HETATM    1  C2  UNL     1      29.456  47.589  -2.583  1.00  0.00     0.178 C
HETATM    2  S1  UNL     1      31.057  47.776  -2.824  1.00  0.00    -0.040 SA
ENDROOT
BRANCH   1   3
HETATM    3  N3  UNL     1      29.033  46.563  -1.707  1.00  0.00    -0.310 N
HETATM    4  C1  UNL     1      28.828  46.705  -0.460  1.00  0.00     0.203 C
HETATM    5  N1  UNL     1      28.989  47.908   0.250  1.00  0.00    -0.066 NA
HETATM    6  N2  UNL     1      28.399  45.542   0.266  1.00  0.00    -0.066 NA
ATOM      7  H3  UNL     1      28.881  45.636  -2.106  1.00  0.00     0.170 HD
ENDBRANCH   1   3
BRANCH   1   8
HETATM    8  N4  UNL     1      28.582  48.470  -3.268  1.00  0.00    -0.328 N
ATOM      9  H4  UNL     1      28.869  48.833  -4.178  1.00  0.00     0.169 HD
BRANCH   8  10
HETATM   10  C3  UNL     1      27.328  48.869  -2.748  1.00  0.00     0.206 C
HETATM   11  N5  UNL     1      27.199  49.596  -1.692  1.00  0.00    -0.265 N
ATOM     12  H5  UNL     1      28.041  49.901  -1.205  1.00  0.00     0.194 HD
BRANCH  11  13
HETATM   13  O1  UNL     1      25.988  49.976  -1.195  1.00  0.00    -0.289 OA
ATOM     14  H1  UNL     1      25.864  50.766  -0.682  1.00  0.00     0.244 HD
ENDBRANCH  11  13
ENDBRANCH   8  10
ENDBRANCH   1   8
TORSDOF 4
ENDMDL