MODEL 3
REMARK VINA RESULT: -5.979206334      3.155      4.747
REMARK  4 active torsions:
REMARK  status: ('A' for Active; 'I' for Inactive)
REMARK    1  A    between atoms: O1_2  and  C2_3
REMARK    2  A    between atoms: C2_3  and  C3_5
REMARK    3  A    between atoms: C3_5  and  N1_6
REMARK    4  A    between atoms: C3_5  and  C4_10
REMARK       I    between atoms: N3_12  and  C5_14
ROOT
HETATM    1  C3  UNL     1      27.057  48.414  -1.669  1.00  0.00     0.346 C
ENDROOT
BRANCH   1   2
HETATM    2  C2  UNL     1      27.749  48.307  -0.375  1.00  0.00     0.296 C
HETATM    3  O2  UNL     1      27.609  49.237   0.455  1.00  0.00    -0.262 OA
BRANCH   2   4
HETATM    4  O1  UNL     1      28.550  47.237  -0.012  1.00  0.00    -0.325 OA
HETATM    5  C1  UNL     1      28.030  45.912  -0.098  1.00  0.00     0.213 C
ENDBRANCH   2   4
ENDBRANCH   1   2
BRANCH   1   6
HETATM    6  N1  UNL     1      26.608  49.787  -1.813  1.00  0.00    -0.059 N
ATOM      7  H13 UNL     1      26.983  50.405  -1.093  1.00  0.00     0.275 HD
ATOM      8  H12 UNL     1      27.019  50.257  -2.620  1.00  0.00     0.275 HD
ATOM      9  H11 UNL     1      25.588  49.776  -1.837  1.00  0.00     0.275 HD
ENDBRANCH   1   6
BRANCH   1  10
HETATM   10  C4  UNL     1      27.910  48.100  -2.820  1.00  0.00     0.136 C
HETATM   11  N2  UNL     1      27.510  47.093  -3.721  1.00  0.00    -0.085 NA
HETATM   12  N3  UNL     1      29.002  48.737  -2.994  1.00  0.00    -0.321 N
HETATM   13  C5  UNL     1      29.901  48.520  -4.064  1.00  0.00     0.186 C
ATOM     14  H3  UNL     1      29.243  49.455  -2.312  1.00  0.00     0.169 HD
HETATM   15  N4  UNL     1      30.440  49.542  -4.627  1.00  0.00    -0.373 N
HETATM   16  N5  UNL     1      30.224  47.230  -4.529  1.00  0.00    -0.064 NA
ATOM     17  H42 UNL     1      30.206  50.477  -4.290  1.00  0.00     0.158 HD
ATOM     18  H41 UNL     1      31.088  49.385  -5.398  1.00  0.00     0.158 HD
ENDBRANCH   1  10
TORSDOF 4
ENDMDL