MODEL 1
REMARK VINA RESULT: -6.540307547      0.000      0.000
REMARK  5 active torsions:
REMARK  status: ('A' for Active; 'I' for Inactive)
REMARK       I    between atoms: C2_2  and  N1_4
REMARK    1  A    between atoms: N1_4  and  N2_6
REMARK    2  A    between atoms: N2_6  and  N3_7
REMARK    3  A    between atoms: N3_7  and  C3_9
REMARK    4  A    between atoms: C3_9  and  O2_10
REMARK    5  A    between atoms: C3_9  and  N4_12
REMARK       I    between atoms: N4_12  and  C4_14
ROOT
HETATM    1  N3  UNL     1      29.088  47.692  -0.209  1.00  0.00    -0.249 N
ATOM      2  H3  UNL     1      29.162  46.781   0.242  1.00  0.00     0.188 HD
ENDROOT
BRANCH   1   3
HETATM    3  N2  UNL     1      28.076  48.567   0.230  1.00  0.00    -0.017 NA
BRANCH   3   4
HETATM    4  N1  UNL     1      27.550  49.201  -0.898  1.00  0.00    -0.254 N
HETATM    5  C2  UNL     1      26.639  48.585  -1.789  1.00  0.00     0.230 C
HETATM    6  C1  UNL     1      26.079  49.248  -2.980  1.00  0.00     0.118 C
HETATM    7  O1  UNL     1      26.265  47.383  -1.564  1.00  0.00    -0.273 OA
ATOM      8  H1  UNL     1      27.839  50.160  -1.091  1.00  0.00     0.187 HD
ENDBRANCH   3   4
ENDBRANCH   1   3
BRANCH   1   9
HETATM    9  C3  UNL     1      30.005  47.999  -1.234  1.00  0.00     0.237 C
BRANCH   9  10
HETATM   10  O2  UNL     1      30.661  49.103  -1.010  1.00  0.00    -0.331 OA
ATOM     11  H2  UNL     1      30.120  49.781  -0.623  1.00  0.00     0.221 HD
ENDBRANCH   9  10
BRANCH   9  12
HETATM   12  N4  UNL     1      30.260  47.273  -2.397  1.00  0.00    -0.292 N
HETATM   13  C4  UNL     1      30.010  47.686  -3.695  1.00  0.00     0.220 C
HETATM   14  C5  UNL     1      30.384  46.788  -4.855  1.00  0.00     0.117 C
HETATM   15  O3  UNL     1      29.493  48.760  -4.006  1.00  0.00    -0.274 OA
ATOM     16  H4  UNL     1      30.671  46.347  -2.279  1.00  0.00     0.172 HD
ENDBRANCH   9  12
ENDBRANCH   1   9
TORSDOF 5
ENDMDL