MODEL 3
REMARK VINA RESULT: -6.374256671      1.582      1.788
REMARK  3 active torsions:
REMARK  status: ('A' for Active; 'I' for Inactive)
REMARK    1  A    between atoms: N2_3  and  C2_5
REMARK    2  A    between atoms: C2_5  and  C4_13
REMARK    3  A    between atoms: N3_6  and  N4_8
REMARK       I    between atoms: N4_8  and  C3_10
ROOT
HETATM    1  N1  UNL     1      25.894  49.544  -2.156  1.00  0.00    -0.172 NA
HETATM    2  C1  UNL     1      26.922  49.148  -2.545  1.00  0.00     0.183 C
HETATM    3  N2  UNL     1      28.150  48.678  -3.029  1.00  0.00    -0.274 N
ATOM      4  H2  UNL     1      28.493  48.966  -3.945  1.00  0.00     0.180 HD
ENDROOT
BRANCH   3   5
HETATM    5  C2  UNL     1      28.899  47.800  -2.223  1.00  0.00     0.195 C
HETATM    6  N3  UNL     1      29.157  46.616  -2.609  1.00  0.00    -0.277 N
ATOM      7  H3  UNL     1      29.701  45.987  -2.017  1.00  0.00     0.189 HD
BRANCH   6   8
HETATM    8  N4  UNL     1      28.687  46.187  -3.849  1.00  0.00    -0.252 N
HETATM    9  C3  UNL     1      29.558  46.161  -4.972  1.00  0.00     0.347 C
HETATM   10  N5  UNL     1      29.129  45.736  -6.248  1.00  0.00    -0.038 NA
HETATM   11  O1  UNL     1      30.762  46.525  -4.855  1.00  0.00    -0.249 OA
ATOM     12  H4  UNL     1      27.716  45.892  -3.951  1.00  0.00     0.191 HD
ENDBRANCH   6   8
BRANCH   5  13
HETATM   13  C4  UNL     1      29.382  48.252  -0.940  1.00  0.00     0.300 C
HETATM   14  N6  UNL     1      30.662  48.868  -0.833  1.00  0.00    -0.054 NA
HETATM   15  O2  UNL     1      28.718  48.129   0.131  1.00  0.00    -0.268 OA
ENDBRANCH   5  13
ENDBRANCH   3   5
TORSDOF 3
ENDMDL