MODEL 3
REMARK VINA RESULT: -5.732583630      3.482      4.979
REMARK  4 active torsions:
REMARK  status: ('A' for Active; 'I' for Inactive)
REMARK    1  A    between atoms: C2_3  and  N3_7
REMARK       I    between atoms: C3_9  and  N5_11
REMARK    2  A    between atoms: N5_11  and  N6_13
REMARK    3  A    between atoms: N6_13  and  N7_14
REMARK    4  A    between atoms: N6_13  and  O1_17
ROOT
HETATM    1  N1  UNL     1      25.679  49.297  -2.457  1.00  0.00    -0.188 NA
HETATM    2  C1  UNL     1      26.370  48.408  -2.185  1.00  0.00     0.136 C
HETATM    3  C2  UNL     1      27.238  47.306  -1.837  1.00  0.00     0.184 C
HETATM    4  N2  UNL     1      26.788  46.423  -1.020  1.00  0.00    -0.377 N
ATOM      5  H21 UNL     1      27.401  45.646  -0.774  1.00  0.00     0.158 HD
ATOM      6  H22 UNL     1      25.847  46.511  -0.637  1.00  0.00     0.158 HD
ENDROOT
BRANCH   3   7
HETATM    7  N3  UNL     1      28.550  47.184  -2.369  1.00  0.00    -0.307 N
HETATM    8  C3  UNL     1      29.600  47.610  -1.779  1.00  0.00     0.212 C
HETATM    9  N4  UNL     1      29.551  48.251  -0.524  1.00  0.00    -0.062 NA
HETATM   10  N5  UNL     1      30.852  47.421  -2.431  1.00  0.00    -0.232 N
ATOM     11  H5  UNL     1      31.031  46.507  -2.848  1.00  0.00     0.194 HD
ATOM     12  H3  UNL     1      28.660  46.729  -3.276  1.00  0.00     0.170 HD
BRANCH  10  13
HETATM   13  N6  UNL     1      31.840  48.375  -2.542  1.00  0.00    -0.099 N
BRANCH  13  14
HETATM   14  N7  UNL     1      33.041  48.084  -2.912  1.00  0.00    -0.303 N
ATOM     15  H72 UNL     1      33.479  47.298  -2.432  1.00  0.00     0.181 HD
ATOM     16  H71 UNL     1      33.528  48.606  -3.641  1.00  0.00     0.181 HD
ENDBRANCH  13  14
BRANCH  13  17
HETATM   17  O1  UNL     1      31.601  49.691  -2.263  1.00  0.00    -0.254 OA
ATOM     18  H1  UNL     1      32.099  50.160  -1.603  1.00  0.00     0.248 HD
ENDBRANCH  13  17
ENDBRANCH  10  13
ENDBRANCH   3   7
TORSDOF 4
ENDMDL