MODEL 5
REMARK VINA RESULT: -5.484072370      2.004      2.666
REMARK  4 active torsions:
REMARK  status: ('A' for Active; 'I' for Inactive)
REMARK    1  A    between atoms: N1_2  and  N2_3
REMARK    2  A    between atoms: N1_2  and  N3_6
REMARK    3  A    between atoms: N3_6  and  C2_8
REMARK    4  A    between atoms: C2_8  and  N4_10
REMARK       I    between atoms: N4_10  and  C3_12
ROOT
HETATM    1  N3  UNL     1      29.788  47.076  -2.430  1.00  0.00    -0.278 N
ATOM      2  H3  UNL     1      30.774  46.847  -2.307  1.00  0.00     0.185 HD
ENDROOT
BRANCH   1   3
HETATM    3  N1  UNL     1      29.189  46.875  -3.676  1.00  0.00    -0.149 NA
HETATM    4  C1  UNL     1      30.157  46.496  -4.693  1.00  0.00     0.162 C
BRANCH   3   5
HETATM    5  N2  UNL     1      28.178  45.925  -3.603  1.00  0.00    -0.346 NA
ATOM      6  H22 UNL     1      28.436  45.070  -4.096  1.00  0.00     0.172 HD
ATOM      7  H21 UNL     1      27.302  46.317  -3.950  1.00  0.00     0.172 HD
ENDBRANCH   3   5
ENDBRANCH   1   3
BRANCH   1   8
HETATM    8  C2  UNL     1      29.043  47.599  -1.317  1.00  0.00     0.191 C
HETATM    9  S1  UNL     1      29.154  46.939   0.162  1.00  0.00    -0.039 SA
BRANCH   8  10
HETATM   10  N4  UNL     1      28.199  48.710  -1.522  1.00  0.00    -0.287 N
HETATM   11  C3  UNL     1      26.792  48.587  -1.672  1.00  0.00     0.334 C
HETATM   12  N5  UNL     1      26.041  49.769  -1.873  1.00  0.00    -0.040 NA
HETATM   13  O1  UNL     1      26.267  47.450  -1.622  1.00  0.00    -0.251 OA
ATOM     14  H4  UNL     1      28.616  49.640  -1.565  1.00  0.00     0.172 HD
ENDBRANCH   8  10
ENDBRANCH   1   8
TORSDOF 4
ENDMDL