MODEL 5
REMARK VINA RESULT: -5.941197006      2.186      3.540
REMARK  2 active torsions:
REMARK  status: ('A' for Active; 'I' for Inactive)
REMARK    1  A    between atoms: C2_3  and  N6_11
REMARK    2  A    between atoms: N2_4  and  N3_6
REMARK       I    between atoms: N6_11  and  C4_13
ROOT
HETATM    1  N1  UNL     1      31.812  49.274  -2.510  1.00  0.00    -0.188 NA
HETATM    2  C1  UNL     1      31.117  48.346  -2.739  1.00  0.00     0.138 C
HETATM    3  C2  UNL     1      30.264  47.236  -2.985  1.00  0.00     0.206 C
HETATM    4  N2  UNL     1      29.315  46.976  -2.152  1.00  0.00    -0.274 N
ATOM      5  H2  UNL     1      28.694  46.184  -2.315  1.00  0.00     0.189 HD
ENDROOT
BRANCH   3   6
HETATM    6  N6  UNL     1      30.426  46.420  -4.108  1.00  0.00    -0.287 N
HETATM    7  C4  UNL     1      29.335  46.043  -4.913  1.00  0.00     0.334 C
HETATM    8  N7  UNL     1      29.473  45.212  -6.064  1.00  0.00    -0.040 NA
HETATM    9  O1  UNL     1      28.181  46.435  -4.638  1.00  0.00    -0.251 OA
ATOM     10  H6  UNL     1      31.360  46.089  -4.350  1.00  0.00     0.172 HD
ENDBRANCH   3   6
BRANCH   4  11
HETATM   11  N3  UNL     1      29.143  47.780  -1.032  1.00  0.00    -0.274 N
HETATM   12  C3  UNL     1      27.958  48.112  -0.658  1.00  0.00     0.215 C
HETATM   13  N4  UNL     1      26.847  47.648  -1.404  1.00  0.00    -0.065 NA
HETATM   14  N5  UNL     1      27.794  48.944   0.502  1.00  0.00    -0.065 NA
ATOM     15  H3  UNL     1      29.956  48.106  -0.508  1.00  0.00     0.189 HD
ENDBRANCH   4  11
TORSDOF 2
ENDMDL