MODEL 2
REMARK VINA RESULT: -6.022094325      3.736      4.426
REMARK  3 active torsions:
REMARK  status: ('A' for Active; 'I' for Inactive)
REMARK       I    between atoms: N2_3  and  C2_5
REMARK    1  A    between atoms: C2_5  and  O2_7
REMARK    2  A    between atoms: O2_7  and  N3_8
REMARK       I    between atoms: N3_8  and  C3_10
REMARK    3  A    between atoms: N5_12  and  N6_14
ROOT
HETATM    1  N3  UNL     1      29.371  45.876  -4.247  1.00  0.00    -0.227 N
ATOM      2  H3  UNL     1      30.213  46.139  -3.734  1.00  0.00     0.198 HD
HETATM    3  C3  UNL     1      29.449  45.166  -5.471  1.00  0.00     0.227 C
HETATM    4  N4  UNL     1      29.204  45.863  -6.678  1.00  0.00    -0.060 NA
HETATM    5  N5  UNL     1      29.733  43.928  -5.461  1.00  0.00    -0.279 N
ATOM      6  H5  UNL     1      29.897  43.487  -4.556  1.00  0.00     0.189 HD
ENDROOT
BRANCH   1   7
HETATM    7  O2  UNL     1      28.125  46.194  -3.778  1.00  0.00    -0.178 OA
BRANCH   7   8
HETATM    8  C2  UNL     1      27.878  46.656  -2.494  1.00  0.00     0.387 C
HETATM    9  N2  UNL     1      28.994  46.935  -1.674  1.00  0.00    -0.299 N
HETATM   10  C1  UNL     1      29.127  46.567  -0.463  1.00  0.00     0.194 C
ATOM     11  H2  UNL     1      29.755  47.476  -2.086  1.00  0.00     0.171 HD
HETATM   12  N1  UNL     1      28.134  45.821   0.197  1.00  0.00    -0.097 NA
HETATM   13  O1  UNL     1      26.690  46.795  -2.139  1.00  0.00    -0.236 OA
ENDBRANCH   7   8
ENDBRANCH   1   7
BRANCH   5  14
HETATM   14  N6  UNL     1      29.837  43.132  -6.594  1.00  0.00    -0.343 N
ATOM     15  H62 UNL     1      30.168  43.589  -7.444  1.00  0.00     0.176 HD
ATOM     16  H61 UNL     1      29.609  42.139  -6.628  1.00  0.00     0.176 HD
ENDBRANCH   5  14
TORSDOF 3
ENDMDL