MODEL 5
REMARK VINA RESULT: -5.695994193      2.413      2.654
REMARK  3 active torsions:
REMARK  status: ('A' for Active; 'I' for Inactive)
REMARK       I    between atoms: N1_2  and  C2_4
REMARK       I    between atoms: C2_4  and  N4_10
REMARK    1  A    between atoms: N2_5  and  N3_7
REMARK       I    between atoms: N4_10  and  C3_12
REMARK    2  A    between atoms: C3_12  and  C4_14
REMARK    3  A    between atoms: C4_14  and  N5_16
ROOT
HETATM    1  C1  UNL     1      26.733  48.473  -1.883  1.00  0.00     0.165 C
HETATM    2  N1  UNL     1      28.052  47.893  -1.644  1.00  0.00    -0.229 N
ATOM      3  H1  UNL     1      28.803  48.446  -1.232  1.00  0.00     0.177 HD
HETATM    4  C2  UNL     1      28.252  46.551  -2.002  1.00  0.00     0.694 C
HETATM    5  N2  UNL     1      27.870  45.621  -1.214  1.00  0.00    -0.139 N
ATOM      6  H2  UNL     1      28.017  44.646  -1.477  1.00  0.00     0.205 HD
HETATM    7  N4  UNL     1      28.878  46.230  -3.236  1.00  0.00    -0.157 N
ATOM      8  H4  UNL     1      29.017  45.250  -3.483  1.00  0.00     0.187 HD
HETATM    9  C3  UNL     1      29.312  47.230  -4.129  1.00  0.00     0.266 C
HETATM   10  O1  UNL     1      29.145  48.430  -3.833  1.00  0.00    -0.270 OA
ENDROOT
BRANCH   9  11
HETATM   11  C4  UNL     1      29.961  46.891  -5.407  1.00  0.00     0.271 C
HETATM   12  C5  UNL     1      31.386  47.389  -5.360  1.00  0.00     0.050 C
BRANCH  11  13
HETATM   13  N5  UNL     1      29.914  45.458  -5.612  1.00  0.00    -0.067 N
ATOM     14  H53 UNL     1      30.611  45.142  -6.286  1.00  0.00     0.275 HD
ATOM     15  H52 UNL     1      30.251  44.942  -4.799  1.00  0.00     0.275 HD
ATOM     16  H51 UNL     1      28.969  45.180  -5.878  1.00  0.00     0.275 HD
ENDBRANCH  11  13
ENDBRANCH   9  11
BRANCH   5  17
HETATM   17  N3  UNL     1      27.258  45.920  -0.008  1.00  0.00    -0.331 N
ATOM     18  H32 UNL     1      27.147  46.900   0.253  1.00  0.00     0.177 HD
ATOM     19  H31 UNL     1      26.924  45.177   0.606  1.00  0.00     0.177 HD
ENDBRANCH   5  17
TORSDOF 3
ENDMDL