MODEL 1
REMARK VINA RESULT: -4.704324723      0.000      0.000
REMARK  1 active torsions:
REMARK  status: ('A' for Active; 'I' for Inactive)
REMARK    1  A    between atoms: C4_5  and  N2_6
ROOT
HETATM    1  N1  UNL     1      34.348  26.361  16.641  1.00  0.00    -0.191 NA
HETATM    2  C1  UNL     1      34.085  26.753  15.568  1.00  0.00     0.103 C
HETATM    3  C2  UNL     1      33.744  27.240  14.263  1.00  0.00     0.088 A
HETATM    4  C3  UNL     1      33.608  28.607  13.998  1.00  0.00     0.061 A
HETATM    5  C4  UNL     1      33.280  29.065  12.742  1.00  0.00     0.092 A
HETATM    6  C5  UNL     1      33.083  28.154  11.723  1.00  0.00     0.128 A
HETATM    7  N4  UNL     1      32.770  28.546  10.512  1.00  0.00    -0.384 N
ATOM      8  H41 UNL     1      32.624  27.873   9.760  1.00  0.00     0.157 HD
ATOM      9  H42 UNL     1      32.667  29.539  10.302  1.00  0.00     0.157 HD
HETATM   10  N5  UNL     1      33.219  26.846  12.000  1.00  0.00    -0.328 N
ATOM     11  H5  UNL     1      33.072  26.178  11.244  1.00  0.00     0.168 HD
HETATM   12  C6  UNL     1      33.538  26.367  13.215  1.00  0.00     0.138 A
HETATM   13  N6  UNL     1      33.676  24.978  13.484  1.00  0.00    -0.081 NA
ENDROOT
BRANCH   5  14
HETATM   14  N2  UNL     1      33.149  30.451  12.502  1.00  0.00    -0.304 N
HETATM   15  N3  UNL     1      33.793  31.104  11.653  1.00  0.00    -0.345 N
ATOM     16  H32 UNL     1      34.466  30.577  11.095  1.00  0.00     0.176 HD
ATOM     17  H31 UNL     1      33.697  32.105  11.479  1.00  0.00     0.176 HD
ATOM     18  H2  UNL     1      32.472  30.961  13.069  1.00  0.00     0.186 HD
ENDBRANCH   5  14
TORSDOF 1
ENDMDL