MODEL 5
REMARK VINA RESULT: -0.953828151      3.135      4.027
REMARK  4 active torsions:
REMARK  status: ('A' for Active; 'I' for Inactive)
REMARK    1  A    between atoms: N1_1  and  C1_4
REMARK    2  A    between atoms: C2_5  and  N2_6
REMARK    3  A    between atoms: N2_6  and  O1_8
REMARK    4  A    between atoms: N5_16  and  N6_17
ROOT
HETATM    1  C1  UNL     1      32.904  29.453  12.998  1.00  0.00     0.155 A
HETATM    2  C2  UNL     1      33.296  29.453  11.681  1.00  0.00     0.140 A
HETATM    3  C3  UNL     1      34.237  28.525  11.242  1.00  0.00     0.151 A
HETATM    4  N3  UNL     1      34.666  28.488   9.905  1.00  0.00    -0.080 NA
HETATM    5  N4  UNL     1      34.727  27.651  12.158  1.00  0.00    -0.318 N
ATOM      6  H4  UNL     1      35.417  26.964  11.855  1.00  0.00     0.169 HD
HETATM    7  C4  UNL     1      34.344  27.652  13.447  1.00  0.00     0.200 A
HETATM    8  S1  UNL     1      34.984  26.559  14.502  1.00  0.00    -0.039 SA
HETATM    9  N5  UNL     1      33.431  28.560  13.851  1.00  0.00    -0.218 N
ENDROOT
BRANCH   2  10
HETATM   10  N2  UNL     1      32.750  30.389  10.770  1.00  0.00    -0.262 N
ATOM     11  H2  UNL     1      32.656  31.361  11.066  1.00  0.00     0.194 HD
BRANCH  10  12
HETATM   12  O1  UNL     1      32.381  30.081   9.632  1.00  0.00    -0.289 OA
ATOM     13  H1  UNL     1      32.435  29.196   9.294  1.00  0.00     0.244 HD
ENDBRANCH  10  12
ENDBRANCH   2  10
BRANCH   1  14
HETATM   14  N1  UNL     1      32.034  30.300  13.442  1.00  0.00    -0.382 N
ATOM     15  H12 UNL     1      31.086  30.273  13.065  1.00  0.00     0.157 HD
ATOM     16  H11 UNL     1      32.277  30.987  14.156  1.00  0.00     0.157 HD
ENDBRANCH   1  14
BRANCH   9  17
HETATM   17  N6  UNL     1      33.024  28.576  15.174  1.00  0.00    -0.335 N
ATOM     18  H62 UNL     1      32.633  29.431  15.569  1.00  0.00     0.177 HD
ATOM     19  H61 UNL     1      33.125  27.727  15.732  1.00  0.00     0.177 HD
ENDBRANCH   9  17
TORSDOF 4
ENDMDL