MODEL 1
REMARK VINA RESULT: -4.033913260      0.000      0.000
REMARK  2 active torsions:
REMARK  status: ('A' for Active; 'I' for Inactive)
REMARK    1  A    between atoms: C3_4  and  N2_5
REMARK    2  A    between atoms: N2_5  and  O1_7
ROOT
HETATM    1  N1  UNL     1      34.990  28.966  10.036  1.00  0.00    -0.100 NA
HETATM    2  C1  UNL     1      34.255  28.597  11.203  1.00  0.00     0.074 A
HETATM    3  C2  UNL     1      34.515  27.351  11.767  1.00  0.00     0.062 A
HETATM    4  C3  UNL     1      33.817  26.977  12.890  1.00  0.00     0.082 A
HETATM    5  C4  UNL     1      32.885  27.824  13.439  1.00  0.00     0.101 A
HETATM    6  N3  UNL     1      32.185  27.414  14.592  1.00  0.00    -0.098 NA
HETATM    7  C5  UNL     1      32.597  29.077  12.905  1.00  0.00     0.099 A
HETATM    8  N4  UNL     1      31.628  29.928  13.494  1.00  0.00    -0.098 NA
HETATM    9  C6  UNL     1      33.313  29.427  11.775  1.00  0.00     0.096 A
HETATM   10  N5  UNL     1      33.067  30.703  11.174  1.00  0.00    -0.098 NA
ENDROOT
BRANCH   4  11
HETATM   11  N2  UNL     1      34.102  25.687  13.455  1.00  0.00    -0.267 N
ATOM     12  H2  UNL     1      33.949  24.822  12.938  1.00  0.00     0.194 HD
BRANCH  11  13
HETATM   13  O1  UNL     1      34.552  25.695  14.631  1.00  0.00    -0.289 OA
ATOM     14  H1  UNL     1      35.006  24.907  14.902  1.00  0.00     0.244 HD
ENDBRANCH  11  13
ENDBRANCH   4  11
TORSDOF 2
ENDMDL