MODEL 2
REMARK VINA RESULT: -3.806051792      1.312      4.113
REMARK  2 active torsions:
REMARK  status: ('A' for Active; 'I' for Inactive)
REMARK    1  A    between atoms: N2_4  and  C1_6
REMARK    2  A    between atoms: C5_16  and  N6_17
ROOT
HETATM    1  C1  UNL     1      32.995  29.164  11.819  1.00  0.00     0.698 A
HETATM    2  N3  UNL     1      32.848  27.837  11.853  1.00  0.00    -0.186 N
ATOM      3  H3  UNL     1      32.334  27.387  11.095  1.00  0.00     0.184 HD
HETATM    4  C2  UNL     1      33.347  27.062  12.841  1.00  0.00     0.098 A
HETATM    5  C3  UNL     1      33.313  25.701  13.069  1.00  0.00     0.139 A
HETATM    6  N4  UNL     1      33.983  25.488  14.224  1.00  0.00    -0.309 N
ATOM      7  H4  UNL     1      34.132  24.578  14.661  1.00  0.00     0.186 HD
HETATM    8  N5  UNL     1      34.422  26.662  14.706  1.00  0.00    -0.295 N
ATOM      9  H5  UNL     1      34.957  26.786  15.565  1.00  0.00     0.187 HD
HETATM   10  C4  UNL     1      34.045  27.649  13.874  1.00  0.00     0.121 A
HETATM   11  C5  UNL     1      34.192  29.023  13.830  1.00  0.00     0.145 A
HETATM   12  N7  UNL     1      33.675  29.751  12.821  1.00  0.00    -0.173 N
ATOM     13  H7  UNL     1      33.800  30.763  12.817  1.00  0.00     0.186 HD
ENDROOT
BRANCH   1  14
HETATM   14  N2  UNL     1      32.447  29.952  10.746  1.00  0.00    -0.138 N
HETATM   15  N1  UNL     1      32.767  29.696   9.539  1.00  0.00    -0.331 N
ATOM     16  H12 UNL     1      33.413  28.929   9.350  1.00  0.00     0.177 HD
ATOM     17  H11 UNL     1      32.378  30.254   8.779  1.00  0.00     0.177 HD
ATOM     18  H2  UNL     1      31.802  30.715  10.953  1.00  0.00     0.205 HD
ENDBRANCH   1  14
BRANCH  11  19
HETATM   19  N6  UNL     1      34.850  29.555  14.807  1.00  0.00    -0.383 N
ATOM     20  H62 UNL     1      35.612  30.216  14.660  1.00  0.00     0.157 HD
ATOM     21  H61 UNL     1      34.563  29.276  15.745  1.00  0.00     0.157 HD
ENDBRANCH  11  19
TORSDOF 2
ENDMDL