MODEL 3
REMARK VINA RESULT: -5.038959631      1.175      1.486
REMARK  2 active torsions:
REMARK  status: ('A' for Active; 'I' for Inactive)
REMARK    1  A    between atoms: N1_1  and  N2_4
REMARK    2  A    between atoms: N2_4  and  C1_6
ROOT
HETATM    1  C1  UNL     1      33.925  26.636  14.589  1.00  0.00     0.699 A
HETATM    2  N3  UNL     1      32.829  27.297  14.210  1.00  0.00    -0.172 N
ATOM      3  H3  UNL     1      31.956  27.323  14.737  1.00  0.00     0.186 HD
HETATM    4  C2  UNL     1      33.035  27.939  13.010  1.00  0.00     0.157 A
HETATM    5  N4  UNL     1      32.360  28.693  12.200  1.00  0.00    -0.322 N
ATOM      6  H4  UNL     1      31.395  28.939  12.422  1.00  0.00     0.169 HD
HETATM    7  C3  UNL     1      32.912  29.146  11.087  1.00  0.00     0.162 A
HETATM    8  N5  UNL     1      32.332  29.987  10.071  1.00  0.00    -0.074 NA
HETATM    9  S1  UNL     1      34.482  28.466  11.186  1.00  0.00    -0.035 SA
HETATM   10  C4  UNL     1      34.327  27.634  12.670  1.00  0.00     0.138 A
HETATM   11  N6  UNL     1      34.854  26.836  13.649  1.00  0.00    -0.180 N
ATOM     12  H6  UNL     1      35.800  26.456  13.658  1.00  0.00     0.185 HD
ENDROOT
BRANCH   1  13
HETATM   13  N2  UNL     1      34.046  25.864  15.792  1.00  0.00    -0.138 N
ATOM     14  H2  UNL     1      33.267  25.274  16.085  1.00  0.00     0.205 HD
BRANCH  13  15
HETATM   15  N1  UNL     1      35.205  25.901  16.573  1.00  0.00    -0.331 N
ATOM     16  H12 UNL     1      36.101  26.013  16.099  1.00  0.00     0.177 HD
ATOM     17  H11 UNL     1      35.168  25.818  17.589  1.00  0.00     0.177 HD
ENDBRANCH  13  15
ENDBRANCH   1  13
TORSDOF 2
ENDMDL