MODEL 4
REMARK VINA RESULT: -3.372894906     11.835     13.278
REMARK  3 active torsions:
REMARK  status: ('A' for Active; 'I' for Inactive)
REMARK    1  A    between atoms: N1_1  and  N2_4
REMARK    2  A    between atoms: N2_4  and  C1_6
REMARK    3  A    between atoms: C4_15  and  N6_16
ROOT
HETATM    1  C1  UNL     1      33.500  35.812   3.923  1.00  0.00     0.712 A
HETATM    2  N3  UNL     1      34.384  34.914   4.189  1.00  0.00    -0.172 N
ATOM      3  H3  UNL     1      34.055  34.013   4.537  1.00  0.00     0.186 HD
HETATM    4  C2  UNL     1      35.786  35.089   4.033  1.00  0.00     0.154 A
HETATM    5  N4  UNL     1      36.676  34.128   4.322  1.00  0.00    -0.336 N
ATOM      6  H4  UNL     1      36.334  33.232   4.669  1.00  0.00     0.168 HD
HETATM    7  C3  UNL     1      37.999  34.298   4.174  1.00  0.00     0.183 A
HETATM    8  N5  UNL     1      38.520  35.448   3.724  1.00  0.00    -0.337 N
ATOM      9  H5  UNL     1      39.529  35.557   3.617  1.00  0.00     0.168 HD
HETATM   10  C4  UNL     1      37.665  36.476   3.409  1.00  0.00     0.132 A
HETATM   11  C5  UNL     1      36.306  36.300   3.562  1.00  0.00     0.137 A
HETATM   12  N7  UNL     1      35.331  37.289   3.269  1.00  0.00    -0.280 N
ATOM     13  H7  UNL     1      35.640  38.197   2.921  1.00  0.00     0.188 HD
HETATM   14  N8  UNL     1      33.950  37.064   3.440  1.00  0.00    -0.130 N
ATOM     15  H8  UNL     1      33.280  37.799   3.218  1.00  0.00     0.205 HD
ENDROOT
BRANCH   1  16
HETATM   16  N2  UNL     1      32.094  35.558   4.106  1.00  0.00    -0.137 N
ATOM     17  H2  UNL     1      31.674  35.606   5.035  1.00  0.00     0.205 HD
BRANCH  16  18
HETATM   18  N1  UNL     1      31.374  35.270   3.076  1.00  0.00    -0.331 N
ATOM     19  H12 UNL     1      31.021  34.321   2.958  1.00  0.00     0.177 HD
ATOM     20  H11 UNL     1      31.173  36.004   2.397  1.00  0.00     0.177 HD
ENDBRANCH  16  18
ENDBRANCH   1  16
BRANCH  10  21
HETATM   21  N6  UNL     1      38.145  37.578   2.979  1.00  0.00    -0.383 N
ATOM     22  H62 UNL     1      38.692  38.188   3.586  1.00  0.00     0.157 HD
ATOM     23  H61 UNL     1      37.979  37.851   2.011  1.00  0.00     0.157 HD
ENDBRANCH  10  21
TORSDOF 3
ENDMDL