MODEL 3
REMARK VINA RESULT: -4.710423587      1.030      2.042
REMARK  3 active torsions:
REMARK  status: ('A' for Active; 'I' for Inactive)
REMARK    1  A    between atoms: N2_4  and  C1_6
REMARK    2  A    between atoms: N4_11  and  N5_12
REMARK    3  A    between atoms: C6_19  and  N7_20
ROOT
HETATM    1  C1  UNL     1      33.847  29.181  12.215  1.00  0.00     0.093 A
HETATM    2  C2  UNL     1      34.354  29.181  13.499  1.00  0.00     0.068 A
HETATM    3  C3  UNL     1      34.247  28.003  14.227  1.00  0.00     0.080 A
HETATM    4  N3  UNL     1      34.596  27.604  15.445  1.00  0.00    -0.278 N
ATOM      5  H3  UNL     1      35.065  28.202  16.125  1.00  0.00     0.189 HD
HETATM    6  N4  UNL     1      34.265  26.344  15.677  1.00  0.00    -0.212 N
HETATM    7  C4  UNL     1      33.674  25.889  14.565  1.00  0.00     0.167 A
HETATM    8  C5  UNL     1      33.641  26.898  13.626  1.00  0.00     0.081 A
HETATM    9  N6  UNL     1      33.164  26.962  12.363  1.00  0.00    -0.338 N
ATOM     10  H6  UNL     1      32.727  26.135  11.955  1.00  0.00     0.167 HD
HETATM   11  C6  UNL     1      33.249  28.085  11.630  1.00  0.00     0.128 A
ENDROOT
BRANCH   1  12
HETATM   12  N2  UNL     1      33.946  30.375  11.456  1.00  0.00    -0.304 N
HETATM   13  N1  UNL     1      33.150  31.333  11.505  1.00  0.00    -0.345 N
ATOM     14  H12 UNL     1      32.367  31.234  12.151  1.00  0.00     0.176 HD
ATOM     15  H11 UNL     1      33.222  32.192  10.959  1.00  0.00     0.176 HD
ATOM     16  H2  UNL     1      34.736  30.457  10.815  1.00  0.00     0.186 HD
ENDBRANCH   1  12
BRANCH  11  17
HETATM   17  N7  UNL     1      32.784  28.125  10.418  1.00  0.00    -0.384 N
ATOM     18  H72 UNL     1      31.918  27.645  10.175  1.00  0.00     0.157 HD
ATOM     19  H71 UNL     1      33.264  28.633   9.674  1.00  0.00     0.157 HD
ENDBRANCH  11  17
BRANCH   6  20
HETATM   20  N5  UNL     1      34.518  25.667  16.889  1.00  0.00    -0.324 N
ATOM     21  H52 UNL     1      35.407  25.513  17.364  1.00  0.00     0.178 HD
ATOM     22  H51 UNL     1      33.797  25.230  17.463  1.00  0.00     0.178 HD
ENDBRANCH   6  20
TORSDOF 3
ENDMDL