MODEL 3
REMARK VINA RESULT: -4.658444221      1.646      2.018
REMARK  2 active torsions:
REMARK  status: ('A' for Active; 'I' for Inactive)
REMARK    1  A    between atoms: N1_1  and  N2_4
REMARK    2  A    between atoms: N2_4  and  C1_6
ROOT
HETATM    1  C1  UNL     1      34.923  26.472  15.262  1.00  0.00     0.121 A
HETATM    2  C2  UNL     1      34.991  27.733  14.702  1.00  0.00     0.067 A
HETATM    3  C3  UNL     1      34.139  27.800  13.611  1.00  0.00     0.045 A
HETATM    4  C4  UNL     1      33.776  28.740  12.682  1.00  0.00     0.117 A
HETATM    5  N3  UNL     1      34.230  30.105  12.547  1.00  0.00    -0.092 NA
HETATM    6  S1  UNL     1      32.646  27.893  11.716  1.00  0.00     0.003 SA
HETATM    7  N4  UNL     1      32.683  26.416  12.515  1.00  0.00    -0.310 N
ATOM      8  H4  UNL     1      32.156  25.572  12.292  1.00  0.00     0.176 HD
HETATM    9  C5  UNL     1      33.561  26.597  13.510  1.00  0.00     0.126 A
HETATM   10  N5  UNL     1      34.038  25.799  14.510  1.00  0.00    -0.326 N
ATOM     11  H5  UNL     1      33.761  24.829  14.663  1.00  0.00     0.169 HD
ENDROOT
BRANCH   1  12
HETATM   12  N2  UNL     1      35.645  25.982  16.408  1.00  0.00    -0.292 N
ATOM     13  H2  UNL     1      36.663  26.031  16.432  1.00  0.00     0.188 HD
BRANCH  12  14
HETATM   14  N1  UNL     1      34.940  25.437  17.492  1.00  0.00    -0.344 N
ATOM     15  H12 UNL     1      34.972  24.430  17.650  1.00  0.00     0.176 HD
ATOM     16  H11 UNL     1      34.405  26.051  18.106  1.00  0.00     0.176 HD
ENDBRANCH  12  14
ENDBRANCH   1  12
TORSDOF 2
ENDMDL