MODEL 4
REMARK VINA RESULT: -3.910330720      1.628      1.773
REMARK  3 active torsions:
REMARK  status: ('A' for Active; 'I' for Inactive)
REMARK    1  A    between atoms: C4_9  and  N4_10
REMARK    2  A    between atoms: N4_10  and  N5_12
REMARK    3  A    between atoms: N5_12  and  O1_14
ROOT
HETATM    1  N1  UNL     1      32.536  30.157   9.588  1.00  0.00    -0.062 NA
HETATM    2  C1  UNL     1      32.988  29.322  10.666  1.00  0.00     0.208 A
HETATM    3  N2  UNL     1      32.196  28.886  11.576  1.00  0.00    -0.314 N
ATOM      4  H2  UNL     1      31.210  29.142  11.531  1.00  0.00     0.170 HD
HETATM    5  C2  UNL     1      32.640  28.052  12.657  1.00  0.00     0.138 A
HETATM    6  N3  UNL     1      32.016  27.467  13.717  1.00  0.00    -0.348 N
ATOM      7  H3  UNL     1      31.019  27.556  13.916  1.00  0.00     0.167 HD
HETATM    8  C3  UNL     1      32.861  26.769  14.456  1.00  0.00     0.123 A
HETATM    9  C4  UNL     1      34.106  26.887  13.872  1.00  0.00     0.097 A
HETATM   10  C5  UNL     1      33.967  27.693  12.740  1.00  0.00     0.122 A
HETATM   11  N6  UNL     1      34.856  28.165  11.745  1.00  0.00    -0.293 N
ATOM     12  H6  UNL     1      35.845  27.916  11.782  1.00  0.00     0.187 HD
HETATM   13  N7  UNL     1      34.374  28.975  10.711  1.00  0.00    -0.273 N
ATOM     14  H7  UNL     1      35.010  29.317   9.991  1.00  0.00     0.189 HD
ENDROOT
BRANCH   9  15
HETATM   15  N4  UNL     1      35.344  26.320  14.282  1.00  0.00    -0.278 N
ATOM     16  H4  UNL     1      35.977  25.940  13.578  1.00  0.00     0.189 HD
BRANCH  15  17
HETATM   17  N5  UNL     1      35.717  26.269  15.648  1.00  0.00    -0.210 N
ATOM     18  H5  UNL     1      36.645  26.555  15.962  1.00  0.00     0.215 HD
BRANCH  17  19
HETATM   19  O1  UNL     1      34.843  25.853  16.452  1.00  0.00    -0.274 OA
ATOM     20  H1  UNL     1      33.938  25.952  16.181  1.00  0.00     0.246 HD
ENDBRANCH  17  19
ENDBRANCH  15  17
ENDBRANCH   9  15
TORSDOF 3
ENDMDL