MODEL 5
REMARK VINA RESULT: -1.873118289      1.102      1.102
REMARK  1 active torsions:
REMARK  status: ('A' for Active; 'I' for Inactive)
REMARK    1  A    between atoms: N2_3  and  C2_5
ROOT
HETATM    1  N1  UNL     1      36.392  25.588  16.695  1.00  0.00    -0.172 NA
HETATM    2  C1  UNL     1      35.805  26.348  16.017  1.00  0.00     0.183 C
HETATM    3  N2  UNL     1      35.098  27.257  15.223  1.00  0.00    -0.277 N
ATOM      4  H2  UNL     1      35.215  28.255  15.400  1.00  0.00     0.179 HD
ENDROOT
BRANCH   3   5
HETATM    5  C2  UNL     1      34.222  26.847  14.180  1.00  0.00     0.145 A
HETATM    6  N3  UNL     1      33.716  25.625  13.938  1.00  0.00    -0.282 N
HETATM    7  N4  UNL     1      32.936  25.659  12.861  1.00  0.00    -0.283 N
ATOM      8  H3  UNL     1      33.903  24.794  14.498  1.00  0.00     0.188 HD
HETATM    9  C3  UNL     1      32.894  26.906  12.347  1.00  0.00     0.137 A
ATOM     10  H4  UNL     1      32.439  24.855  12.479  1.00  0.00     0.188 HD
HETATM   11  N5  UNL     1      32.386  27.680  11.369  1.00  0.00    -0.327 N
HETATM   12  C6  UNL     1      33.711  27.653  13.186  1.00  0.00     0.083 A
HETATM   13  C4  UNL     1      32.860  28.925  11.559  1.00  0.00     0.143 A
ATOM     14  H5  UNL     1      31.758  27.378  10.624  1.00  0.00     0.168 HD
HETATM   15  N6  UNL     1      32.579  30.070  10.758  1.00  0.00    -0.081 NA
HETATM   16  C5  UNL     1      33.680  28.928  12.677  1.00  0.00     0.105 A
HETATM   17  N7  UNL     1      34.390  30.016  13.245  1.00  0.00    -0.098 NA
ENDBRANCH   3   5
TORSDOF 1
ENDMDL