MODEL 1
REMARK VINA RESULT: -7.799118090      0.000      0.000
REMARK  6 active torsions:
REMARK  status: ('A' for Active; 'I' for Inactive)
REMARK    1  A    between atoms: C3_3  and  O1_4
REMARK    2  A    between atoms: O1_4  and  C4_5
REMARK    3  A    between atoms: C4_5  and  C5_6
REMARK    4  A    between atoms: C5_6  and  N1_7
REMARK    5  A    between atoms: N2_9  and  N3_11
REMARK    6  A    between atoms: C9_21  and  N6_22
ROOT
HETATM    1  C1  UNL     1       6.916  30.501  21.189  1.00  0.00     0.014 C
HETATM    2  C2  UNL     1       6.872  31.463  21.912  1.00  0.00    -0.091 C
HETATM    3  C3  UNL     1       6.820  32.653  22.780  1.00  0.00     0.260 C
ENDROOT
BRANCH   3   4
HETATM    4  O1  UNL     1       5.922  33.540  22.234  1.00  0.00    -0.378 OA
BRANCH   4   5
HETATM    5  C4  UNL     1       6.515  34.712  21.779  1.00  0.00     0.189 C
BRANCH   5   6
HETATM    6  C5  UNL     1       5.402  35.635  21.340  1.00  0.00     0.174 C
BRANCH   6   7
HETATM    7  N1  UNL     1       5.219  35.790  19.948  1.00  0.00    -0.172 N
HETATM    8  C6  UNL     1       4.414  34.948  19.212  1.00  0.00     0.702 A
HETATM    9  N2  UNL     1       3.837  34.012  19.893  1.00  0.00    -0.138 N
HETATM   10  N4  UNL     1       4.218  35.056  17.911  1.00  0.00    -0.152 N
ATOM     11  H2  UNL     1       4.016  33.967  20.896  1.00  0.00     0.205 HD
HETATM   12  C7  UNL     1       4.792  36.001  17.184  1.00  0.00     0.289 A
ATOM     13  H4  UNL     1       3.604  34.386  17.449  1.00  0.00     0.187 HD
HETATM   14  O2  UNL     1       4.638  36.145  15.946  1.00  0.00    -0.265 OA
HETATM   15  C8  UNL     1       5.625  36.898  17.857  1.00  0.00     0.150 A
HETATM   16  N5  UNL     1       6.236  37.875  17.171  1.00  0.00    -0.184 N
HETATM   17  C11 UNL     1       5.818  36.765  19.237  1.00  0.00     0.153 A
HETATM   18  C9  UNL     1       7.046  38.749  17.788  1.00  0.00     0.679 A
ATOM     19  H5  UNL     1       6.082  37.955  16.166  1.00  0.00     0.184 HD
HETATM   20  N7  UNL     1       7.268  38.673  19.097  1.00  0.00    -0.154 N
HETATM   21  C10 UNL     1       6.655  37.684  19.816  1.00  0.00     0.289 A
ATOM     22  H7  UNL     1       7.886  39.341  19.557  1.00  0.00     0.187 HD
HETATM   23  O3  UNL     1       6.876  37.625  21.048  1.00  0.00    -0.265 OA
BRANCH   9  24
HETATM   24  N3  UNL     1       2.993  33.071  19.336  1.00  0.00    -0.331 N
ATOM     25  H32 UNL     1       2.010  33.110  19.605  1.00  0.00     0.177 HD
ATOM     26  H31 UNL     1       3.303  32.352  18.681  1.00  0.00     0.177 HD
ENDBRANCH   9  24
BRANCH  18  27
HETATM   27  N6  UNL     1       7.610  39.670  17.092  1.00  0.00    -0.234 N
ATOM     28  H62 UNL     1       7.592  39.623  16.073  1.00  0.00     0.174 HD
ATOM     29  H61 UNL     1       8.071  40.440  17.576  1.00  0.00     0.174 HD
ENDBRANCH  18  27
ENDBRANCH   6   7
ENDBRANCH   5   6
ENDBRANCH   4   5
ENDBRANCH   3   4
TORSDOF 6
ENDMDL