MODEL 4
REMARK VINA RESULT: -6.478752197      2.348      4.232
REMARK  10 active torsions:
REMARK  status: ('A' for Active; 'I' for Inactive)
REMARK    1  A    between atoms: N1_1  and  C1_4
REMARK    2  A    between atoms: C2_7  and  N3_8
REMARK    3  A    between atoms: N3_8  and  C3_10
REMARK    4  A    between atoms: C3_10  and  C4_11
REMARK    5  A    between atoms: C4_11  and  C5_12
REMARK    6  A    between atoms: C5_12  and  N4_13
REMARK    7  A    between atoms: C5_12  and  C6_17
REMARK    8  A    between atoms: C6_17  and  O1_18
REMARK    9  A    between atoms: C7_22  and  N6_23
REMARK   10  A    between atoms: N6_23  and  N7_25
ROOT
HETATM    1  C1  UNL     1       5.651  37.298  16.565  1.00  0.00     0.705 A
HETATM    2  N2  UNL     1       5.493  38.500  17.189  1.00  0.00    -0.022 N
ATOM      3  H2  UNL     1       5.248  39.321  16.636  1.00  0.00     0.203 HD
HETATM    4  C2  UNL     1       5.654  38.627  18.511  1.00  0.00     0.707 A
HETATM    5  N5  UNL     1       5.982  37.522  19.239  1.00  0.00    -0.020 N
ATOM      6  H5  UNL     1       6.110  37.597  20.248  1.00  0.00     0.203 HD
HETATM    7  C7  UNL     1       6.138  36.340  18.635  1.00  0.00     0.725 A
HETATM    8  N8  UNL     1       5.974  36.227  17.312  1.00  0.00    -0.020 N
ATOM      9  H8  UNL     1       6.096  35.318  16.865  1.00  0.00     0.203 HD
ENDROOT
BRANCH   4  10
HETATM   10  N3  UNL     1       5.510  39.761  19.127  1.00  0.00    -0.225 N
ATOM     11  H3  UNL     1       6.106  40.538  18.843  1.00  0.00     0.177 HD
BRANCH  10  12
HETATM   12  C3  UNL     1       4.572  39.988  20.179  1.00  0.00     0.140 C
BRANCH  12  13
HETATM   13  C4  UNL     1       3.171  39.725  19.717  1.00  0.00     0.055 C
BRANCH  13  14
HETATM   14  C5  UNL     1       2.520  38.628  20.521  1.00  0.00     0.208 C
BRANCH  14  15
HETATM   15  N4  UNL     1       3.430  38.279  21.622  1.00  0.00    -0.073 N
ATOM     16  H43 UNL     1       4.413  38.392  21.374  1.00  0.00     0.274 HD
ATOM     17  H42 UNL     1       3.405  38.955  22.385  1.00  0.00     0.274 HD
ATOM     18  H41 UNL     1       3.204  37.332  21.925  1.00  0.00     0.274 HD
ENDBRANCH  14  15
BRANCH  14  19
HETATM   19  C6  UNL     1       2.368  37.357  19.698  1.00  0.00     0.197 C
BRANCH  19  20
HETATM   20  O1  UNL     1       1.177  37.500  18.972  1.00  0.00    -0.399 OA
ATOM     21  H1  UNL     1       0.497  37.094  19.496  1.00  0.00     0.209 HD
ENDBRANCH  19  20
ENDBRANCH  14  19
ENDBRANCH  13  14
ENDBRANCH  12  13
ENDBRANCH  10  12
ENDBRANCH   4  10
BRANCH   1  22
HETATM   22  N1  UNL     1       5.498  37.170  15.301  1.00  0.00    -0.234 N
ATOM     23  H12 UNL     1       6.106  37.683  14.662  1.00  0.00     0.174 HD
ATOM     24  H11 UNL     1       4.781  36.562  14.905  1.00  0.00     0.174 HD
ENDBRANCH   1  22
BRANCH   7  25
HETATM   25  N6  UNL     1       6.446  35.314  19.330  1.00  0.00    -0.133 N
ATOM     26  H6  UNL     1       7.296  34.811  19.077  1.00  0.00     0.205 HD
BRANCH  25  27
HETATM   27  N7  UNL     1       5.714  34.835  20.399  1.00  0.00    -0.310 N
HETATM   28  C8  UNL     1       6.249  34.919  21.730  1.00  0.00     0.169 C
HETATM   29  C9  UNL     1       6.285  33.514  22.292  1.00  0.00     0.189 C
HETATM   30  O2  UNL     1       5.288  32.694  21.830  1.00  0.00    -0.388 OA
HETATM   31  C10 UNL     1       4.155  33.317  21.381  1.00  0.00     0.189 C
HETATM   32  C11 UNL     1       4.418  34.247  20.210  1.00  0.00     0.169 C
ENDBRANCH  25  27
ENDBRANCH   7  25
TORSDOF 10
ENDMDL