MODEL 3
REMARK VINA RESULT: -7.476688927      3.522      5.835
REMARK  7 active torsions:
REMARK  status: ('A' for Active; 'I' for Inactive)
REMARK    1  A    between atoms: N1_1  and  C1_4
REMARK    2  A    between atoms: C5_14  and  N4_15
REMARK    3  A    between atoms: N5_18  and  C6_19
REMARK    4  A    between atoms: C6_19  and  C7_20
REMARK    5  A    between atoms: C7_20  and  C8_22
REMARK    6  A    between atoms: C8_22  and  C9_23
REMARK    7  A    between atoms: C9_23  and  N6_24
ROOT
HETATM    1  C1  UNL     1       3.961  34.027  21.033  1.00  0.00     0.680 A
HETATM    2  N2  UNL     1       2.656  33.747  21.162  1.00  0.00    -0.155 N
ATOM      3  H2  UNL     1       2.337  32.812  21.419  1.00  0.00     0.187 HD
HETATM    4  C2  UNL     1       1.779  34.751  20.938  1.00  0.00     0.279 A
HETATM    5  O1  UNL     1       0.538  34.542  21.046  1.00  0.00    -0.266 OA
HETATM    6  C3  UNL     1       2.178  36.017  20.591  1.00  0.00     0.146 A
HETATM    7  C4  UNL     1       1.277  37.016  20.361  1.00  0.00     0.279 A
HETATM    8  O2  UNL     1       0.053  36.720  20.490  1.00  0.00    -0.266 OA
HETATM    9  N3  UNL     1       1.693  38.223  20.020  1.00  0.00    -0.155 N
ATOM     10  H3  UNL     1       1.017  38.966  19.848  1.00  0.00     0.187 HD
HETATM   11  C5  UNL     1       3.021  38.471  19.900  1.00  0.00     0.683 A
HETATM   12  N5  UNL     1       3.977  37.545  20.109  1.00  0.00    -0.160 N
HETATM   13  C10 UNL     1       3.530  36.299  20.460  1.00  0.00     0.161 A
HETATM   14  N7  UNL     1       4.365  35.288  20.687  1.00  0.00    -0.175 N
ATOM     15  H7  UNL     1       5.366  35.464  20.598  1.00  0.00     0.186 HD
ENDROOT
BRANCH  12  16
HETATM   16  C6  UNL     1       5.371  37.774  19.989  1.00  0.00     0.227 C
BRANCH  16  17
HETATM   17  C7  UNL     1       5.904  37.869  18.610  1.00  0.00     0.147 C
HETATM   18  O3  UNL     1       6.042  38.942  18.050  1.00  0.00    -0.296 OA
BRANCH  17  19
HETATM   19  C8  UNL     1       6.322  36.697  17.779  1.00  0.00     0.107 C
BRANCH  19  20
HETATM   20  C9  UNL     1       5.294  36.422  16.687  1.00  0.00     0.237 C
BRANCH  20  21
HETATM   21  N6  UNL     1       5.531  37.215  15.509  1.00  0.00    -0.079 N
ATOM     22  H63 UNL     1       4.874  36.978  14.765  1.00  0.00     0.274 HD
ATOM     23  H62 UNL     1       5.263  38.187  15.657  1.00  0.00     0.274 HD
ATOM     24  H61 UNL     1       6.496  37.143  15.186  1.00  0.00     0.274 HD
ENDBRANCH  20  21
ENDBRANCH  19  20
ENDBRANCH  17  19
ENDBRANCH  16  17
ENDBRANCH  12  16
BRANCH  11  25
HETATM   25  N4  UNL     1       3.310  39.656  19.564  1.00  0.00    -0.234 N
ATOM     26  H42 UNL     1       4.002  40.201  20.077  1.00  0.00     0.174 HD
ATOM     27  H41 UNL     1       2.805  40.004  18.749  1.00  0.00     0.174 HD
ENDBRANCH  11  25
BRANCH   1  28
HETATM   28  N1  UNL     1       4.789  33.063  21.248  1.00  0.00    -0.234 N
ATOM     29  H12 UNL     1       4.770  32.190  20.720  1.00  0.00     0.174 HD
ATOM     30  H11 UNL     1       5.481  33.204  21.983  1.00  0.00     0.174 HD
ENDBRANCH   1  28
TORSDOF 7
ENDMDL