MODEL 3
REMARK VINA RESULT: -7.969123679      2.346      3.113
REMARK  6 active torsions:
REMARK  status: ('A' for Active; 'I' for Inactive)
REMARK    1  A    between atoms: N3_4  and  N4_6
REMARK    2  A    between atoms: C2_8  and  C3_9
REMARK    3  A    between atoms: C4_10  and  C5_11
REMARK    4  A    between atoms: C5_11  and  N5_12
REMARK    5  A    between atoms: N6_14  and  N7_16
REMARK       I    between atoms: N8_18  and  C6_20
REMARK    6  A    between atoms: N10_22  and  O1_24
ROOT
HETATM    1  C3  UNL     1       5.073  36.886  20.301  1.00  0.00     0.076 A
HETATM    2  C4  UNL     1       5.990  36.008  20.906  1.00  0.00     0.062 A
HETATM    3  N11 UNL     1       6.494  36.653  21.962  1.00  0.00    -0.299 N
ATOM      4  H11 UNL     1       7.189  36.257  22.595  1.00  0.00     0.186 HD
HETATM    5  N12 UNL     1       5.992  37.848  22.088  1.00  0.00    -0.266 N
ATOM      6  H12 UNL     1       6.223  38.525  22.816  1.00  0.00     0.190 HD
HETATM    7  C7  UNL     1       5.096  38.030  21.064  1.00  0.00     0.273 A
HETATM    8  O2  UNL     1       4.443  39.102  20.919  1.00  0.00    -0.266 OA
ENDROOT
BRANCH   2   9
HETATM    9  C5  UNL     1       6.342  34.615  20.462  1.00  0.00     0.200 C
BRANCH   9  10
HETATM   10  N5  UNL     1       6.612  33.767  21.587  1.00  0.00    -0.315 N
HETATM   11  N6  UNL     1       5.781  32.890  22.016  1.00  0.00    -0.232 N
ATOM     12  H6  UNL     1       6.004  32.302  22.819  1.00  0.00     0.209 HD
ATOM     13  H5  UNL     1       7.506  33.866  22.067  1.00  0.00     0.182 HD
BRANCH  11  14
HETATM   14  N7  UNL     1       4.550  32.762  21.346  1.00  0.00    -0.226 N
HETATM   15  N8  UNL     1       3.561  33.517  21.644  1.00  0.00    -0.256 N
HETATM   16  C6  UNL     1       2.346  33.370  20.964  1.00  0.00     0.228 C
ATOM     17  H8  UNL     1       3.656  34.222  22.375  1.00  0.00     0.191 HD
HETATM   18  N9  UNL     1       1.119  33.634  21.614  1.00  0.00    -0.060 NA
HETATM   19  N10 UNL     1       2.336  32.993  19.735  1.00  0.00    -0.240 N
ATOM     20  H10 UNL     1       1.447  32.887  19.244  1.00  0.00     0.197 HD
ATOM     21  H7  UNL     1       4.446  32.060  20.614  1.00  0.00     0.210 HD
BRANCH  19  22
HETATM   22  O1  UNL     1       3.493  32.735  19.090  1.00  0.00    -0.287 OA
ATOM     23  H1  UNL     1       3.838  33.353  18.456  1.00  0.00     0.244 HD
ENDBRANCH  19  22
ENDBRANCH  11  14
ENDBRANCH   9  10
ENDBRANCH   2   9
BRANCH   1  24
HETATM   24  C2  UNL     1       4.303  36.578  19.120  1.00  0.00     0.126 C
HETATM   25  N4  UNL     1       3.088  36.388  18.970  1.00  0.00    -0.309 N
ATOM     26  H4  UNL     1       2.845  36.187  18.000  1.00  0.00     0.186 HD
BRANCH  25  27
HETATM   27  N3  UNL     1       2.013  36.383  19.777  1.00  0.00    -0.276 N
HETATM   28  C1  UNL     1       1.237  37.394  19.964  1.00  0.00     0.215 C
HETATM   29  N1  UNL     1       0.143  37.226  20.849  1.00  0.00    -0.065 NA
HETATM   30  N2  UNL     1       1.458  38.634  19.313  1.00  0.00    -0.065 NA
ATOM     31  H3  UNL     1       1.797  35.519  20.275  1.00  0.00     0.189 HD
ENDBRANCH  25  27
ENDBRANCH   1  24
TORSDOF 6
ENDMDL