MODEL 1
REMARK VINA RESULT: -6.559334102      0.000      0.000
REMARK  8 active torsions:
REMARK  status: ('A' for Active; 'I' for Inactive)
REMARK    1  A    between atoms: C2_2  and  N1_3
REMARK    2  A    between atoms: N1_3  and  C3_5
REMARK    3  A    between atoms: C4_6  and  N2_7
REMARK    4  A    between atoms: N2_7  and  C5_9
REMARK    5  A    between atoms: C5_9  and  C6_10
REMARK    6  A    between atoms: C6_10  and  C7_11
REMARK    7  A    between atoms: C7_11  and  N3_12
REMARK    8  A    between atoms: C10_23  and  N7_24
ROOT
HETATM    1  C3  UNL     1       3.719  36.639  19.754  1.00  0.00     0.158 A
HETATM    2  C4  UNL     1       3.598  35.466  19.015  1.00  0.00     0.148 A
HETATM    3  N4  UNL     1       4.184  35.301  17.804  1.00  0.00    -0.325 N
ATOM      4  H4  UNL     1       4.075  34.427  17.290  1.00  0.00     0.169 HD
HETATM    5  C8  UNL     1       4.908  36.307  17.295  1.00  0.00     0.163 A
HETATM    6  N5  UNL     1       5.530  36.141  16.018  1.00  0.00    -0.079 NA
HETATM    7  C9  UNL     1       5.039  37.477  18.014  1.00  0.00     0.174 A
HETATM    8  N6  UNL     1       5.774  38.476  17.480  1.00  0.00    -0.173 N
ATOM      9  H6  UNL     1       6.221  38.366  16.570  1.00  0.00     0.186 HD
HETATM   10  C10 UNL     1       5.902  39.605  18.170  1.00  0.00     0.681 A
HETATM   11  N8  UNL     1       5.320  39.773  19.377  1.00  0.00    -0.141 N
ATOM     12  H8  UNL     1       5.439  40.654  19.879  1.00  0.00     0.189 HD
HETATM   13  C11 UNL     1       4.590  38.795  19.918  1.00  0.00     0.348 A
HETATM   14  O1  UNL     1       4.029  38.919  21.051  1.00  0.00    -0.245 OA
HETATM   15  N9  UNL     1       4.457  37.640  19.217  1.00  0.00    -0.227 N
ENDROOT
BRANCH   2  16
HETATM   16  N2  UNL     1       2.906  34.518  19.511  1.00  0.00    -0.373 N
ATOM     17  H2  UNL     1       1.895  34.638  19.578  1.00  0.00     0.161 HD
BRANCH  16  18
HETATM   18  C5  UNL     1       3.474  33.306  19.973  1.00  0.00     0.123 C
BRANCH  18  19
HETATM   19  C6  UNL     1       3.913  33.319  21.418  1.00  0.00     0.047 C
BRANCH  19  20
HETATM   20  C7  UNL     1       5.406  33.178  21.451  1.00  0.00     0.231 C
BRANCH  20  21
HETATM   21  N3  UNL     1       5.936  32.645  20.208  1.00  0.00    -0.079 N
ATOM     22  H33 UNL     1       5.191  32.481  19.531  1.00  0.00     0.274 HD
ATOM     23  H32 UNL     1       6.465  33.352  19.699  1.00  0.00     0.274 HD
ATOM     24  H31 UNL     1       6.492  31.803  20.355  1.00  0.00     0.274 HD
ENDBRANCH  20  21
ENDBRANCH  19  20
ENDBRANCH  18  19
ENDBRANCH  16  18
ENDBRANCH   2  16
BRANCH   1  25
HETATM   25  N1  UNL     1       3.179  36.796  20.876  1.00  0.00    -0.373 N
ATOM     26  H1  UNL     1       3.835  37.031  21.622  1.00  0.00     0.161 HD
BRANCH  25  27
HETATM   27  C2  UNL     1       1.833  36.709  21.303  1.00  0.00     0.117 C
HETATM   28  C1  UNL     1       0.914  37.468  20.331  1.00  0.00     0.026 C
ENDBRANCH  25  27
ENDBRANCH   1  25
BRANCH  10  29
HETATM   29  N7  UNL     1       6.609  40.555  17.648  1.00  0.00    -0.234 N
ATOM     30  H72 UNL     1       6.825  40.548  16.651  1.00  0.00     0.174 HD
ATOM     31  H71 UNL     1       6.935  41.299  18.265  1.00  0.00     0.174 HD
ENDBRANCH  10  29
TORSDOF 8
ENDMDL