MODEL 2
REMARK VINA RESULT: -7.190214456      1.712      2.418
REMARK  7 active torsions:
REMARK  status: ('A' for Active; 'I' for Inactive)
REMARK    1  A    between atoms: C5_11  and  C6_12
REMARK    2  A    between atoms: C6_12  and  N3_13
REMARK    3  A    between atoms: N3_13  and  C7_16
REMARK    4  A    between atoms: C7_16  and  C8_17
REMARK    5  A    between atoms: C8_17  and  N4_18
REMARK    6  A    between atoms: C10_22  and  N6_23
REMARK    7  A    between atoms: C11_28  and  N8_29
ROOT
HETATM    1  C7  UNL     1       6.496  36.488  21.266  1.00  0.00     0.255 C
ENDROOT
BRANCH   1   2
HETATM    2  N3  UNL     1       5.220  37.219  21.135  1.00  0.00    -0.069 N
ATOM      3  H32 UNL     1       4.989  37.728  21.988  1.00  0.00     0.277 HD
ATOM      4  H31 UNL     1       4.423  36.583  21.113  1.00  0.00     0.277 HD
BRANCH   2   5
HETATM    5  C6  UNL     1       5.239  38.077  19.999  1.00  0.00     0.278 C
BRANCH   5   6
HETATM    6  C5  UNL     1       5.118  37.327  18.738  1.00  0.00     0.058 A
HETATM    7  C2  UNL     1       6.125  37.577  17.774  1.00  0.00     0.023 A
HETATM    8  C1  UNL     1       7.231  38.541  18.085  1.00  0.00     0.069 C
HETATM    9  N1  UNL     1       6.061  36.938  16.601  1.00  0.00    -0.312 N
HETATM   10  C3  UNL     1       5.056  36.082  16.362  1.00  0.00     0.327 A
ATOM     11  H1  UNL     1       6.775  37.100  15.891  1.00  0.00     0.170 HD
HETATM   12  O1  UNL     1       4.986  35.473  15.257  1.00  0.00    -0.247 OA
HETATM   13  N2  UNL     1       4.095  35.833  17.260  1.00  0.00    -0.275 N
HETATM   14  C4  UNL     1       4.113  36.446  18.449  1.00  0.00     0.259 A
ATOM     15  H2  UNL     1       3.348  35.174  17.038  1.00  0.00     0.173 HD
HETATM   16  O2  UNL     1       3.204  36.195  19.258  1.00  0.00    -0.267 OA
ENDBRANCH   5   6
ENDBRANCH   2   5
ENDBRANCH   1   2
BRANCH   1  17
HETATM   17  C8  UNL     1       6.220  35.210  21.994  1.00  0.00     0.195 C
BRANCH  17  18
HETATM   18  N4  UNL     1       5.173  34.472  21.307  1.00  0.00    -0.123 N
HETATM   19  N5  UNL     1       3.912  34.602  21.680  1.00  0.00    -0.292 N
HETATM   20  C9  UNL     1       2.934  33.947  21.065  1.00  0.00     0.156 A
ATOM     21  H5  UNL     1       3.685  35.221  22.459  1.00  0.00     0.186 HD
HETATM   22  C10 UNL     1       3.216  33.101  20.004  1.00  0.00     0.131 A
HETATM   23  N7  UNL     1       4.496  33.001  19.663  1.00  0.00    -0.175 N
HETATM   24  C11 UNL     1       5.495  33.667  20.288  1.00  0.00     0.694 A
ATOM     25  H7  UNL     1       4.739  32.387  18.886  1.00  0.00     0.186 HD
BRANCH  22  26
HETATM   26  N6  UNL     1       2.260  32.463  19.404  1.00  0.00    -0.384 N
ATOM     27  H62 UNL     1       1.887  31.570  19.725  1.00  0.00     0.157 HD
ATOM     28  H61 UNL     1       1.834  32.847  18.560  1.00  0.00     0.157 HD
ENDBRANCH  22  26
BRANCH  24  29
HETATM   29  N8  UNL     1       6.681  33.458  19.846  1.00  0.00    -0.233 N
ATOM     30  H82 UNL     1       7.414  33.351  20.548  1.00  0.00     0.174 HD
ATOM     31  H81 UNL     1       6.947  33.396  18.863  1.00  0.00     0.174 HD
ENDBRANCH  24  29
ENDBRANCH  17  18
ENDBRANCH   1  17
TORSDOF 7
ENDMDL