MODEL 5
REMARK VINA RESULT: -7.548177898      2.147      4.659
REMARK  7 active torsions:
REMARK  status: ('A' for Active; 'I' for Inactive)
REMARK    1  A    between atoms: N1_2  and  C2_5
REMARK    2  A    between atoms: C2_5  and  O1_6
REMARK    3  A    between atoms: O1_6  and  C3_7
REMARK    4  A    between atoms: C6_16  and  C7_17
REMARK    5  A    between atoms: C7_17  and  N4_18
REMARK    6  A    between atoms: N4_18  and  N5_20
REMARK    7  A    between atoms: N5_20  and  C8_22
ROOT
HETATM    1  C3  UNL     1       6.415  35.866  19.700  1.00  0.00     0.165 A
HETATM    2  N2  UNL     1       6.415  37.083  20.326  1.00  0.00    -0.288 N
ATOM      3  H2  UNL     1       6.443  37.925  19.750  1.00  0.00     0.172 HD
HETATM    4  C4  UNL     1       6.381  37.221  21.649  1.00  0.00     0.329 A
HETATM    5  O2  UNL     1       6.382  38.365  22.198  1.00  0.00    -0.247 OA
HETATM    6  N3  UNL     1       6.343  36.107  22.412  1.00  0.00    -0.275 N
ATOM      7  H3  UNL     1       6.316  36.213  23.427  1.00  0.00     0.173 HD
HETATM    8  C5  UNL     1       6.340  34.873  21.898  1.00  0.00     0.265 A
HETATM    9  O3  UNL     1       6.305  33.842  22.606  1.00  0.00    -0.267 OA
HETATM   10  C6  UNL     1       6.376  34.763  20.498  1.00  0.00     0.100 A
ENDROOT
BRANCH  10  11
HETATM   11  C7  UNL     1       6.332  33.436  19.929  1.00  0.00     0.129 C
BRANCH  11  12
HETATM   12  N4  UNL     1       5.259  32.751  19.982  1.00  0.00    -0.296 N
ATOM     13  H4  UNL     1       5.301  31.844  20.447  1.00  0.00     0.186 HD
BRANCH  12  14
HETATM   14  N5  UNL     1       4.038  33.142  19.454  1.00  0.00    -0.131 N
ATOM     15  H5  UNL     1       3.863  33.015  18.457  1.00  0.00     0.205 HD
BRANCH  14  16
HETATM   16  C8  UNL     1       3.104  33.672  20.205  1.00  0.00     0.715 A
HETATM   17  N6  UNL     1       2.346  33.050  21.138  1.00  0.00    -0.127 N
HETATM   18  N7  UNL     1       1.516  33.916  21.684  1.00  0.00    -0.237 N
ATOM     19  H6  UNL     1       2.408  32.062  21.382  1.00  0.00     0.206 HD
HETATM   20  C9  UNL     1       1.726  35.108  21.112  1.00  0.00     0.353 A
ATOM     21  H7  UNL     1       0.833  33.714  22.415  1.00  0.00     0.192 HD
HETATM   22  O4  UNL     1       1.126  36.184  21.368  1.00  0.00    -0.245 OA
HETATM   23  N8  UNL     1       2.718  34.948  20.190  1.00  0.00    -0.137 N
ATOM     24  H8  UNL     1       3.100  35.680  19.590  1.00  0.00     0.189 HD
ENDBRANCH  14  16
ENDBRANCH  12  14
ENDBRANCH  11  12
ENDBRANCH  10  11
BRANCH   1  25
HETATM   25  O1  UNL     1       6.459  35.824  18.323  1.00  0.00    -0.307 OA
BRANCH  25  26
HETATM   26  C2  UNL     1       6.812  36.996  17.623  1.00  0.00     0.408 C
BRANCH  26  27
HETATM   27  N1  UNL     1       5.820  37.360  16.634  1.00  0.00    -0.058 N
HETATM   28  C1  UNL     1       5.132  36.234  16.092  1.00  0.00     0.269 C
ATOM     29  H12 UNL     1       6.235  37.923  15.892  1.00  0.00     0.279 HD
ATOM     30  H11 UNL     1       5.162  38.040  17.013  1.00  0.00     0.279 HD
ENDBRANCH  26  27
ENDBRANCH  25  26
ENDBRANCH   1  25
TORSDOF 7
ENDMDL