MODEL 5
REMARK VINA RESULT: -6.698615436      1.992      3.812
REMARK  10 active torsions:
REMARK  status: ('A' for Active; 'I' for Inactive)
REMARK       I    between atoms: C1_4  and  N3_6
REMARK    1  A    between atoms: N3_6  and  C2_8
REMARK    2  A    between atoms: C4_10  and  C5_11
REMARK    3  A    between atoms: C5_11  and  O2_13
REMARK    4  A    between atoms: O2_13  and  C6_14
REMARK    5  A    between atoms: C6_14  and  C7_15
REMARK    6  A    between atoms: C7_15  and  O3_16
REMARK    7  A    between atoms: O3_16  and  C8_17
REMARK    8  A    between atoms: C8_17  and  C9_18
REMARK    9  A    between atoms: C9_18  and  N4_19
REMARK   10  A    between atoms: C10_25  and  N6_26
ROOT
HETATM    1  C2  UNL     1       4.255  33.308  21.480  1.00  0.00     0.125 A
HETATM    2  C3  UNL     1       4.692  34.567  21.130  1.00  0.00     0.085 A
HETATM    3  C4  UNL     1       6.012  34.840  20.860  1.00  0.00     0.128 A
HETATM    4  N5  UNL     1       6.869  33.809  20.956  1.00  0.00    -0.186 N
ATOM      5  H5  UNL     1       7.857  33.971  20.764  1.00  0.00     0.184 HD
HETATM    6  C10 UNL     1       6.468  32.567  21.297  1.00  0.00     0.678 A
HETATM    7  N7  UNL     1       5.170  32.328  21.555  1.00  0.00    -0.177 N
ATOM      8  H7  UNL     1       4.876  31.386  21.813  1.00  0.00     0.185 HD
ENDROOT
BRANCH   3   9
HETATM    9  C5  UNL     1       6.433  36.189  20.491  1.00  0.00     0.310 C
HETATM   10  O1  UNL     1       6.695  37.013  21.403  1.00  0.00    -0.258 OA
BRANCH   9  11
HETATM   11  O2  UNL     1       6.562  36.616  19.200  1.00  0.00    -0.314 OA
BRANCH  11  12
HETATM   12  C6  UNL     1       6.976  37.861  18.742  1.00  0.00     0.205 C
BRANCH  12  13
HETATM   13  C7  UNL     1       5.922  38.626  17.957  1.00  0.00     0.194 C
BRANCH  13  14
HETATM   14  O3  UNL     1       4.984  37.760  17.453  1.00  0.00    -0.387 OA
BRANCH  14  15
HETATM   15  C8  UNL     1       5.341  37.276  16.228  1.00  0.00     0.195 C
BRANCH  15  16
HETATM   16  C9  UNL     1       4.898  35.870  16.006  1.00  0.00     0.255 C
BRANCH  16  17
HETATM   17  N4  UNL     1       4.379  35.350  17.251  1.00  0.00    -0.077 N
ATOM     18  H43 UNL     1       4.994  34.654  17.672  1.00  0.00     0.274 HD
ATOM     19  H42 UNL     1       4.409  36.036  18.005  1.00  0.00     0.274 HD
ATOM     20  H41 UNL     1       3.439  34.991  17.086  1.00  0.00     0.274 HD
ENDBRANCH  16  17
ENDBRANCH  15  16
ENDBRANCH  14  15
ENDBRANCH  13  14
ENDBRANCH  12  13
ENDBRANCH  11  12
ENDBRANCH   9  11
ENDBRANCH   3   9
BRANCH   1  21
HETATM   21  N3  UNL     1       3.025  33.058  21.732  1.00  0.00    -0.317 N
HETATM   22  C1  UNL     1       1.978  33.389  20.833  1.00  0.00     0.187 C
HETATM   23  N1  UNL     1       1.837  32.648  19.796  1.00  0.00    -0.373 N
HETATM   24  N2  UNL     1       1.108  34.497  21.060  1.00  0.00    -0.064 NA
ATOM     25  H12 UNL     1       1.085  32.886  19.150  1.00  0.00     0.158 HD
ATOM     26  H11 UNL     1       2.460  31.855  19.633  1.00  0.00     0.158 HD
ATOM     27  H3  UNL     1       2.788  32.603  22.614  1.00  0.00     0.170 HD
ENDBRANCH   1  21
BRANCH   6  28
HETATM   28  N6  UNL     1       7.280  31.566  21.393  1.00  0.00    -0.234 N
ATOM     29  H62 UNL     1       8.240  31.772  21.670  1.00  0.00     0.174 HD
ATOM     30  H61 UNL     1       7.000  30.603  21.206  1.00  0.00     0.174 HD
ENDBRANCH   6  28
TORSDOF 10
ENDMDL