MODEL 1
REMARK VINA RESULT: -7.136215344      0.000      0.000
REMARK  9 active torsions:
REMARK  status: ('A' for Active; 'I' for Inactive)
REMARK    1  A    between atoms: O1_2  and  C2_3
REMARK    2  A    between atoms: C2_3  and  N1_4
REMARK    3  A    between atoms: N1_4  and  C3_6
REMARK    4  A    between atoms: C4_9  and  N3_10
REMARK    5  A    between atoms: N3_10  and  C5_12
REMARK    6  A    between atoms: C5_12  and  C6_13
REMARK    7  A    between atoms: C6_13  and  C7_14
REMARK    8  A    between atoms: C7_14  and  O2_15
REMARK    9  A    between atoms: C9_22  and  N6_23
ROOT
HETATM    1  C3  UNL     1       3.819  35.846  19.840  1.00  0.00     0.138 A
HETATM    2  N2  UNL     1       4.175  34.602  20.252  1.00  0.00    -0.176 N
ATOM      3  H2  UNL     1       3.481  34.017  20.719  1.00  0.00     0.186 HD
HETATM    4  C4  UNL     1       5.413  34.119  20.063  1.00  0.00     0.681 A
HETATM    5  N4  UNL     1       6.326  34.884  19.449  1.00  0.00    -0.175 N
ATOM      6  H4  UNL     1       7.264  34.508  19.309  1.00  0.00     0.186 HD
HETATM    7  C8  UNL     1       6.055  36.128  19.010  1.00  0.00     0.156 A
HETATM    8  N5  UNL     1       6.958  36.909  18.393  1.00  0.00    -0.175 N
ATOM      9  H5  UNL     1       7.901  36.548  18.245  1.00  0.00     0.186 HD
HETATM   10  C9  UNL     1       6.666  38.143  17.964  1.00  0.00     0.680 A
HETATM   11  N7  UNL     1       5.428  38.636  18.149  1.00  0.00    -0.155 N
ATOM     12  H7  UNL     1       5.203  39.575  17.823  1.00  0.00     0.187 HD
HETATM   13  C10 UNL     1       4.484  37.898  18.762  1.00  0.00     0.277 A
HETATM   14  O3  UNL     1       3.345  38.358  18.930  1.00  0.00    -0.266 OA
HETATM   15  C11 UNL     1       4.776  36.622  19.208  1.00  0.00     0.122 A
ENDROOT
BRANCH   4  16
HETATM   16  N3  UNL     1       5.686  32.930  20.479  1.00  0.00    -0.226 N
ATOM     17  H3  UNL     1       4.910  32.277  20.590  1.00  0.00     0.177 HD
BRANCH  16  18
HETATM   18  C5  UNL     1       6.998  32.460  20.793  1.00  0.00     0.140 C
BRANCH  18  19
HETATM   19  C6  UNL     1       7.003  31.970  22.219  1.00  0.00     0.046 C
BRANCH  19  20
HETATM   20  C7  UNL     1       6.999  33.139  23.197  1.00  0.00     0.165 C
BRANCH  20  21
HETATM   21  O2  UNL     1       7.867  32.942  24.249  1.00  0.00    -0.401 OA
ATOM     22  H2  UNL     1       7.690  33.527  24.976  1.00  0.00     0.209 HD
ENDBRANCH  20  21
ENDBRANCH  19  20
ENDBRANCH  18  19
ENDBRANCH  16  18
ENDBRANCH   4  16
BRANCH   1  23
HETATM   23  N1  UNL     1       2.654  36.339  20.003  1.00  0.00    -0.354 N
ATOM     24  H1  UNL     1       2.296  37.034  19.348  1.00  0.00     0.163 HD
BRANCH  23  25
HETATM   25  C2  UNL     1       1.849  35.911  21.112  1.00  0.00     0.291 C
BRANCH  25  26
HETATM   26  O1  UNL     1       0.995  34.876  20.812  1.00  0.00    -0.377 OA
HETATM   27  C1  UNL     1       1.263  33.707  21.473  1.00  0.00     0.203 C
ENDBRANCH  25  26
ENDBRANCH  23  25
ENDBRANCH   1  23
BRANCH  10  28
HETATM   28  N6  UNL     1       7.552  38.878  17.371  1.00  0.00    -0.234 N
ATOM     29  H62 UNL     1       8.179  39.449  17.937  1.00  0.00     0.174 HD
ATOM     30  H61 UNL     1       7.632  38.898  16.355  1.00  0.00     0.174 HD
ENDBRANCH  10  28
TORSDOF 9
ENDMDL