MODEL 1
REMARK VINA RESULT: -7.776570336      0.000      0.000
REMARK  5 active torsions:
REMARK  status: ('A' for Active; 'I' for Inactive)
REMARK    1  A    between atoms: C2_2  and  O1_3
REMARK    2  A    between atoms: O1_3  and  C3_4
REMARK    3  A    between atoms: C3_4  and  C4_5
REMARK    4  A    between atoms: C4_5  and  N1_6
REMARK    5  A    between atoms: C6_11  and  N3_12
ROOT
HETATM    1  N1  UNL     1       5.502  36.451  19.316  1.00  0.00    -0.353 N
ATOM      2  H1  UNL     1       4.888  37.264  19.355  1.00  0.00     0.166 HD
HETATM    3  C5  UNL     1       4.842  35.448  19.603  1.00  0.00     0.139 C
HETATM    4  N2  UNL     1       5.386  34.193  19.636  1.00  0.00    -0.176 N
ATOM      5  H2  UNL     1       6.036  33.978  18.879  1.00  0.00     0.186 HD
HETATM    6  C6  UNL     1       5.188  33.206  20.520  1.00  0.00     0.680 C
HETATM    7  N4  UNL     1       4.052  32.995  21.245  1.00  0.00    -0.154 N
ATOM      8  H4  UNL     1       4.070  32.184  21.862  1.00  0.00     0.187 HD
HETATM    9  C7  UNL     1       2.907  33.711  21.260  1.00  0.00     0.287 C
HETATM   10  O2  UNL     1       1.952  33.236  21.899  1.00  0.00    -0.265 OA
HETATM   11  C8  UNL     1       2.630  34.938  20.649  1.00  0.00     0.125 A
HETATM   12  N5  UNL     1       1.356  35.358  20.842  1.00  0.00    -0.303 N
ATOM     13  H5  UNL     1       0.721  34.781  21.392  1.00  0.00     0.171 HD
HETATM   14  C9  UNL     1       0.901  36.532  20.320  1.00  0.00     0.327 A
HETATM   15  O3  UNL     1      -0.304  36.896  20.521  1.00  0.00    -0.247 OA
HETATM   16  N6  UNL     1       1.740  37.286  19.599  1.00  0.00    -0.275 N
ATOM     17  H6  UNL     1       1.409  38.167  19.205  1.00  0.00     0.173 HD
HETATM   18  C10 UNL     1       3.031  36.898  19.383  1.00  0.00     0.265 A
HETATM   19  O4  UNL     1       3.813  37.609  18.706  1.00  0.00    -0.267 OA
HETATM   20  C11 UNL     1       3.490  35.713  19.909  1.00  0.00     0.109 A
ENDROOT
BRANCH   1  21
HETATM   21  C4  UNL     1       6.775  36.878  18.959  1.00  0.00     0.088 C
BRANCH  21  22
HETATM   22  C3  UNL     1       7.101  38.332  18.967  1.00  0.00     0.212 C
BRANCH  22  23
HETATM   23  O1  UNL     1       6.716  38.931  20.147  1.00  0.00    -0.387 OA
BRANCH  23  24
HETATM   24  C2  UNL     1       5.948  40.054  20.056  1.00  0.00     0.163 C
HETATM   25  C1  UNL     1       5.854  40.558  18.622  1.00  0.00     0.033 C
ENDBRANCH  23  24
ENDBRANCH  22  23
ENDBRANCH  21  22
ENDBRANCH   1  21
BRANCH   6  26
HETATM   26  N3  UNL     1       6.158  32.366  20.716  1.00  0.00    -0.234 N
ATOM     27  H32 UNL     1       6.187  31.557  20.096  1.00  0.00     0.174 HD
ATOM     28  H31 UNL     1       6.817  32.568  21.468  1.00  0.00     0.174 HD
ENDBRANCH   6  26
TORSDOF 5
ENDMDL