MODEL 1
REMARK VINA RESULT: -9.426199451      0.000      0.000
REMARK  17 active torsions:
REMARK  status: ('A' for Active; 'I' for Inactive)
REMARK    1  A    between atoms: C2_2  and  C3_3
REMARK    2  A    between atoms: C6_6  and  C7_7
REMARK    3  A    between atoms: C7_7  and  N1_8
REMARK    4  A    between atoms: C8_10  and  O1_11
REMARK    5  A    between atoms: C8_10  and  C9_13
REMARK    6  A    between atoms: C9_13  and  C10_14
REMARK    7  A    between atoms: C9_13  and  N6_46
REMARK    8  A    between atoms: C10_14  and  C11_15
REMARK       I    between atoms: C11_15  and  N2_17
REMARK    9  A    between atoms: C18_24  and  C19_25
REMARK       I    between atoms: C19_25  and  N3_27
REMARK   10  A    between atoms: N3_27  and  C20_28
REMARK   11  A    between atoms: C20_28  and  C21_29
REMARK   12  A    between atoms: C20_28  and  C28_36
REMARK   13  A    between atoms: C21_29  and  C22_30
REMARK   14  A    between atoms: C28_36  and  N4_37
REMARK   15  A    between atoms: C31_40  and  C32_41
REMARK   16  A    between atoms: C32_41  and  N5_42
REMARK       I    between atoms: N6_46  and  C33_48
REMARK   17  A    between atoms: C33_48  and  C34_50
ROOT
HETATM    1  C11 UNL     1      -7.859  -2.086  31.858  1.00  0.00     0.223 C
HETATM    2  O2  UNL     1      -7.636  -1.874  30.616  1.00  0.00    -0.273 OA
HETATM    3  N2  UNL     1      -9.158  -1.881  32.315  1.00  0.00    -0.337 N
HETATM    4  C12 UNL     1      -9.598  -1.971  33.731  1.00  0.00     0.132 C
HETATM    5  C13 UNL     1     -10.772  -2.934  33.588  1.00  0.00     0.010 C
HETATM    6  C14 UNL     1     -11.994  -2.331  34.225  1.00  0.00     0.007 C
HETATM    7  C15 UNL     1     -13.150  -2.824  33.429  1.00  0.00     0.001 C
HETATM    8  C16 UNL     1     -12.632  -2.801  32.040  1.00  0.00     0.007 C
HETATM    9  C17 UNL     1     -11.137  -2.936  32.125  1.00  0.00     0.025 C
HETATM   10  C18 UNL     1     -10.427  -1.635  31.708  1.00  0.00     0.198 C
ENDROOT
BRANCH   1  11
HETATM   11  C10 UNL     1      -6.686  -2.514  32.603  1.00  0.00     0.136 C
BRANCH  11  12
HETATM   12  C9  UNL     1      -5.612  -3.090  31.780  1.00  0.00     0.167 C
BRANCH  12  13
HETATM   13  C8  UNL     1      -4.808  -4.095  32.485  1.00  0.00     0.135 C
HETATM   14  N1  UNL     1      -4.581  -5.430  32.449  1.00  0.00    -0.372 N
ATOM     15  H1  UNL     1      -5.035  -6.009  31.741  1.00  0.00     0.161 HD
BRANCH  14  16
HETATM   16  C7  UNL     1      -3.665  -6.049  33.450  1.00  0.00     0.126 C
BRANCH  16  17
HETATM   17  C6  UNL     1      -2.760  -7.061  32.878  1.00  0.00     0.004 C
HETATM   18  C5  UNL     1      -1.498  -7.347  33.661  1.00  0.00     0.006 C
HETATM   19  C4  UNL     1      -0.327  -7.193  32.728  1.00  0.00     0.005 C
HETATM   20  C3  UNL     1      -0.943  -7.257  31.337  1.00  0.00    -0.014 C
HETATM   21  C37 UNL     1      -2.205  -6.447  31.570  1.00  0.00     0.011 C
BRANCH  20  22
HETATM   22  C2  UNL     1      -1.295  -8.717  31.031  1.00  0.00     0.000 C
HETATM   23  C1  UNL     1      -2.282  -8.789  29.894  1.00  0.00     0.005 C
ENDBRANCH  20  22
ENDBRANCH  16  17
ENDBRANCH  14  16
BRANCH  13  24
HETATM   24  O1  UNL     1      -4.088  -3.530  33.495  1.00  0.00    -0.348 OA
ATOM     25  H1  UNL     1      -3.430  -2.947  33.135  1.00  0.00     0.219 HD
ENDBRANCH  13  24
ENDBRANCH  12  13
BRANCH  12  26
HETATM   26  N6  UNL     1      -4.648  -2.141  31.197  1.00  0.00    -0.348 N
HETATM   27  C33 UNL     1      -3.965  -2.421  30.015  1.00  0.00     0.222 C
HETATM   28  O4  UNL     1      -4.264  -3.524  29.414  1.00  0.00    -0.273 OA
ATOM     29  H6  UNL     1      -4.474  -1.255  31.672  1.00  0.00     0.163 HD
BRANCH  27  30
HETATM   30  C34 UNL     1      -2.896  -1.591  29.382  1.00  0.00     0.078 A
HETATM   31  C35 UNL     1      -2.337  -2.042  28.040  1.00  0.00     0.015 A
HETATM   32  C36 UNL     1      -1.581  -2.379  29.252  1.00  0.00     0.015 A
ENDBRANCH  27  30
ENDBRANCH  12  26
ENDBRANCH  11  12
ENDBRANCH   1  11
BRANCH  10  33
HETATM   33  C19 UNL     1     -10.459  -1.449  30.218  1.00  0.00     0.310 C
HETATM   34  O3  UNL     1     -10.838  -2.371  29.501  1.00  0.00    -0.255 OA
HETATM   35  N3  UNL     1     -10.024  -0.207  29.832  1.00  0.00    -0.406 NA
BRANCH  35  36
HETATM   36  C20 UNL     1      -9.587   1.037  29.437  1.00  0.00     0.195 C
BRANCH  36  37
HETATM   37  C21 UNL     1      -9.860   2.253  30.253  1.00  0.00     0.046 C
BRANCH  37  38
HETATM   38  C22 UNL     1      -8.847   2.558  31.320  1.00  0.00    -0.012 C
HETATM   39  C23 UNL     1      -7.698   3.270  30.638  1.00  0.00     0.005 C
HETATM   40  C24 UNL     1      -6.780   2.300  29.942  1.00  0.00     0.000 C
HETATM   41  C25 UNL     1      -6.045   1.361  30.912  1.00  0.00     0.000 C
HETATM   42  C26 UNL     1      -6.803   1.419  32.212  1.00  0.00     0.000 C
HETATM   43  C27 UNL     1      -8.311   1.283  31.939  1.00  0.00     0.005 C
ENDBRANCH  37  38
ENDBRANCH  36  37
BRANCH  36  44
HETATM   44  C28 UNL     1      -9.881   1.190  27.948  1.00  0.00     0.312 C
BRANCH  44  45
HETATM   45  N4  UNL     1     -10.874   0.385  27.372  1.00  0.00     0.098 N
HETATM   46  C29 UNL     1     -12.113   1.052  26.995  1.00  0.00     0.275 C
HETATM   47  C30 UNL     1     -12.011   0.330  25.671  1.00  0.00     0.068 C
HETATM   48  C31 UNL     1     -10.572   0.319  25.910  1.00  0.00     0.250 C
BRANCH  48  49
HETATM   49  C32 UNL     1      -9.777  -0.880  25.530  1.00  0.00     0.265 C
BRANCH  49  50
HETATM   50  N5  UNL     1      -8.628  -0.389  24.755  1.00  0.00    -0.077 N
ATOM     51  H53 UNL     1      -8.523   0.625  24.788  1.00  0.00     0.274 HD
ATOM     52  H52 UNL     1      -7.728  -0.623  25.175  1.00  0.00     0.274 HD
ATOM     53  H51 UNL     1      -8.741  -0.753  23.810  1.00  0.00     0.274 HD
ENDBRANCH  49  50
ENDBRANCH  48  49
ENDBRANCH  44  45
ENDBRANCH  36  44
ENDBRANCH  35  36
ENDBRANCH  10  33
TORSDOF 17
ENDMDL