MODEL 2
REMARK VINA RESULT: -8.597582777      9.410     17.315
REMARK  16 active torsions:
REMARK  status: ('A' for Active; 'I' for Inactive)
REMARK    1  A    between atoms: C2_2  and  C3_3
REMARK    2  A    between atoms: C3_3  and  C4_4
REMARK    3  A    between atoms: C3_3  and  C11_11
REMARK    4  A    between atoms: C4_4  and  C5_5
REMARK       I    between atoms: C11_11  and  N1_13
REMARK    5  A    between atoms: N1_13  and  C12_15
REMARK    6  A    between atoms: C12_15  and  C14_17
REMARK       I    between atoms: C14_17  and  N2_19
REMARK    7  A    between atoms: N2_19  and  C15_21
REMARK    8  A    between atoms: C15_21  and  C16_22
REMARK    9  A    between atoms: C15_21  and  C35_51
REMARK       I    between atoms: C16_22  and  N3_24
REMARK   10  A    between atoms: C17_25  and  C18_26
REMARK       I    between atoms: C18_26  and  N4_28
REMARK   11  A    between atoms: N4_28  and  C19_30
REMARK   12  A    between atoms: C19_30  and  C20_31
REMARK   13  A    between atoms: C19_30  and  C24_40
REMARK   14  A    between atoms: C20_31  and  O5_32
REMARK   15  A    between atoms: C20_31  and  C21_34
REMARK       I    between atoms: C21_34  and  N5_36
REMARK   16  A    between atoms: N5_36  and  C22_38
ROOT
HETATM    1  C16 UNL     1       5.797  -5.582  29.005  1.00  0.00     0.244 C
HETATM    2  O3  UNL     1       5.904  -5.465  30.292  1.00  0.00    -0.271 OA
HETATM    3  N3  UNL     1       6.959  -5.433  28.254  1.00  0.00    -0.327 N
HETATM    4  C17 UNL     1       7.323  -5.323  26.868  1.00  0.00     0.185 C
HETATM    5  C27 UNL     1       8.030  -6.643  26.687  1.00  0.00     0.033 A
HETATM    6  C28 UNL     1       8.862  -6.680  28.025  1.00  0.00     0.029 A
HETATM    7  C29 UNL     1       9.506  -6.754  26.749  1.00  0.00    -0.035 A
HETATM    8  C30 UNL     1       9.978  -8.182  26.353  1.00  0.00     0.016 C
HETATM    9  C31 UNL     1      10.397  -5.756  26.092  1.00  0.00     0.016 C
HETATM   10  C32 UNL     1       8.345  -5.519  28.817  1.00  0.00     0.034 C
HETATM   11  C33 UNL     1       9.072  -4.236  28.746  1.00  0.00     0.039 C
HETATM   12  C34 UNL     1       8.356  -5.922  30.276  1.00  0.00     0.039 C
ENDROOT
BRANCH   1  13
HETATM   13  C15 UNL     1       4.408  -5.877  28.551  1.00  0.00     0.180 C
BRANCH  13  14
HETATM   14  N2  UNL     1       3.588  -6.291  29.686  1.00  0.00    -0.346 N
HETATM   15  C14 UNL     1       2.330  -5.830  30.026  1.00  0.00     0.240 C
HETATM   16  O2  UNL     1       1.755  -4.951  29.342  1.00  0.00    -0.271 OA
ATOM     17  H2  UNL     1       3.989  -7.002  30.298  1.00  0.00     0.163 HD
BRANCH  15  18
HETATM   18  C12 UNL     1       1.588  -6.344  31.225  1.00  0.00     0.172 C
HETATM   19  C13 UNL     1       1.809  -5.499  32.454  1.00  0.00     0.042 C
BRANCH  18  20
HETATM   20  N1  UNL     1       0.191  -6.476  30.996  1.00  0.00    -0.348 N
HETATM   21  C11 UNL     1      -0.651  -7.254  31.813  1.00  0.00     0.226 C
HETATM   22  O1  UNL     1      -0.150  -7.867  32.783  1.00  0.00    -0.273 OA
ATOM     23  H1  UNL     1      -0.221  -5.983  30.203  1.00  0.00     0.163 HD
BRANCH  21  24
HETATM   24  C3  UNL     1      -2.135  -7.323  31.497  1.00  0.00     0.100 C
BRANCH  24  25
HETATM   25  C2  UNL     1      -2.469  -8.601  30.894  1.00  0.00    -0.023 C
HETATM   26  C1  UNL     1      -2.614  -8.725  29.574  1.00  0.00     0.008 C
ENDBRANCH  24  25
BRANCH  24  27
HETATM   27  C4  UNL     1      -2.949  -6.778  32.589  1.00  0.00     0.022 C
BRANCH  27  28
HETATM   28  C5  UNL     1      -4.108  -5.880  32.278  1.00  0.00    -0.013 C
HETATM   29  C6  UNL     1      -3.870  -5.049  31.092  1.00  0.00     0.005 C
HETATM   30  C7  UNL     1      -4.441  -3.647  31.120  1.00  0.00     0.000 C
HETATM   31  C8  UNL     1      -4.447  -3.001  32.467  1.00  0.00     0.000 C
HETATM   32  C9  UNL     1      -5.272  -3.940  33.358  1.00  0.00     0.000 C
HETATM   33  C10 UNL     1      -4.400  -5.140  33.571  1.00  0.00     0.005 C
ENDBRANCH  27  28
ENDBRANCH  24  27
ENDBRANCH  21  24
ENDBRANCH  18  20
ENDBRANCH  15  18
ENDBRANCH  13  14
BRANCH  13  34
HETATM   34  C35 UNL     1       4.370  -7.020  27.585  1.00  0.00     0.009 C
HETATM   35  C36 UNL     1       3.261  -6.768  26.585  1.00  0.00     0.012 C
HETATM   36  C37 UNL     1       4.060  -8.339  28.276  1.00  0.00     0.012 C
ENDBRANCH  13  34
ENDBRANCH   1  13
BRANCH   4  37
HETATM   37  C18 UNL     1       6.474  -4.831  25.850  1.00  0.00     0.241 C
HETATM   38  O4  UNL     1       6.089  -5.504  24.875  1.00  0.00    -0.271 OA
HETATM   39  N4  UNL     1       6.018  -3.492  25.925  1.00  0.00    -0.348 N
ATOM     40  H4  UNL     1       6.345  -2.927  26.710  1.00  0.00     0.163 HD
BRANCH  39  41
HETATM   41  C19 UNL     1       5.118  -2.857  24.970  1.00  0.00     0.150 C
BRANCH  41  42
HETATM   42  C20 UNL     1       5.772  -1.744  24.275  1.00  0.00     0.134 C
BRANCH  42  43
HETATM   43  O5  UNL     1       7.055  -1.871  24.059  1.00  0.00    -0.358 OA
ATOM     44  H5  UNL     1       7.627  -1.635  24.780  1.00  0.00     0.217 HD
ENDBRANCH  42  43
BRANCH  42  45
HETATM   45  C21 UNL     1       5.214  -0.524  23.790  1.00  0.00     0.272 C
HETATM   46  O6  UNL     1       5.625   0.590  24.124  1.00  0.00    -0.266 OA
HETATM   47  N5  UNL     1       4.107  -0.519  22.858  1.00  0.00    -0.356 N
ATOM     48  H5  UNL     1       3.717  -1.412  22.554  1.00  0.00     0.162 HD
BRANCH  47  49
HETATM   49  C22 UNL     1       3.537   0.692  22.343  1.00  0.00     0.118 C
HETATM   50  C23 UNL     1       2.015   0.675  22.505  1.00  0.00     0.026 C
ENDBRANCH  47  49
ENDBRANCH  42  45
ENDBRANCH  41  42
BRANCH  41  51
HETATM   51  C24 UNL     1       3.817  -2.496  25.581  1.00  0.00     0.007 C
HETATM   52  C25 UNL     1       2.695  -3.373  24.961  1.00  0.00     0.012 C
HETATM   53  C26 UNL     1       3.781  -2.627  27.073  1.00  0.00     0.012 C
ENDBRANCH  41  51
ENDBRANCH  39  41
ENDBRANCH   4  37
TORSDOF 16
ENDMDL