MODEL 5
REMARK VINA RESULT: -8.193823864      4.433      9.297
REMARK  19 active torsions:
REMARK  status: ('A' for Active; 'I' for Inactive)
REMARK    1  A    between atoms: C2_2  and  C3_3
REMARK    2  A    between atoms: C3_3  and  C4_4
REMARK    3  A    between atoms: C4_4  and  C5_5
REMARK    4  A    between atoms: C5_5  and  C6_6
REMARK    5  A    between atoms: C6_6  and  C7_7
REMARK    6  A    between atoms: C7_7  and  C8_8
REMARK    7  A    between atoms: C8_8  and  C9_9
REMARK    8  A    between atoms: C9_9  and  N1_10
REMARK    9  A    between atoms: N2_14  and  C13_15
REMARK   10  A    between atoms: C13_15  and  O1_16
REMARK   11  A    between atoms: C13_15  and  C14_18
REMARK   12  A    between atoms: C14_18  and  C15_19
REMARK   13  A    between atoms: C14_18  and  N7_36
REMARK   14  A    between atoms: C15_19  and  C16_20
REMARK   15  A    between atoms: C16_20  and  C17_21
REMARK   16  A    between atoms: C17_21  and  N3_22
REMARK       I    between atoms: C18_24  and  N5_26
REMARK   17  A    between atoms: N7_36  and  C27_37
REMARK   18  A    between atoms: C27_37  and  O2_38
REMARK   19  A    between atoms: C27_37  and  C28_40
REMARK       I    between atoms: N8_45  and  C33_46
ROOT
HETATM    1  C14 UNL     1      -4.473  -3.224  31.128  1.00  0.00     0.156 C
ENDROOT
BRANCH   1   2
HETATM    2  C13 UNL     1      -4.298  -4.238  32.109  1.00  0.00     0.179 C
BRANCH   2   3
HETATM    3  N2  UNL     1      -3.647  -5.494  32.026  1.00  0.00    -0.358 N
HETATM    4  C12 UNL     1      -3.517  -6.173  30.794  1.00  0.00     0.127 C
HETATM    5  C11 UNL     1      -2.257  -6.932  30.591  1.00  0.00     0.040 C
HETATM    6  C10 UNL     1      -2.174  -8.262  31.351  1.00  0.00     0.123 C
HETATM    7  N1  UNL     1      -2.109  -8.055  32.742  1.00  0.00    -0.388 N
HETATM    8  C35 UNL     1      -3.275  -7.507  33.355  1.00  0.00     0.142 C
HETATM    9  C34 UNL     1      -3.318  -6.011  33.366  1.00  0.00     0.145 C
BRANCH   7  10
HETATM   10  C9  UNL     1      -0.934  -7.873  33.447  1.00  0.00     0.085 C
BRANCH  10  11
HETATM   11  C8  UNL     1       0.222  -7.129  33.045  1.00  0.00     0.013 C
BRANCH  11  12
HETATM   12  C7  UNL     1       1.571  -7.121  33.472  1.00  0.00    -0.025 C
BRANCH  12  13
HETATM   13  C6  UNL     1       2.574  -6.217  32.788  1.00  0.00     0.027 C
BRANCH  13  14
HETATM   14  C5  UNL     1       2.291  -4.818  33.234  1.00  0.00     0.004 C
BRANCH  14  15
HETATM   15  C4  UNL     1       2.374  -4.523  34.694  1.00  0.00     0.000 C
BRANCH  15  16
HETATM   16  C3  UNL     1       3.433  -3.416  34.787  1.00  0.00    -0.000 C
BRANCH  16  17
HETATM   17  C2  UNL     1       4.787  -3.867  35.138  1.00  0.00    -0.005 C
HETATM   18  C1  UNL     1       5.714  -4.127  33.980  1.00  0.00     0.005 C
ENDBRANCH  16  17
ENDBRANCH  15  16
ENDBRANCH  14  15
ENDBRANCH  13  14
ENDBRANCH  12  13
ENDBRANCH  11  12
ENDBRANCH  10  11
ENDBRANCH   7  10
ENDBRANCH   2   3
BRANCH   2  19
HETATM   19  O1  UNL     1      -4.822  -4.016  33.284  1.00  0.00    -0.344 OA
ATOM     20  H1  UNL     1      -5.497  -4.644  33.510  1.00  0.00     0.219 HD
ENDBRANCH   2  19
ENDBRANCH   1   2
BRANCH   1  21
HETATM   21  C15 UNL     1      -3.714  -3.015  29.921  1.00  0.00     0.024 C
BRANCH  21  22
HETATM   22  C16 UNL     1      -2.477  -2.310  29.765  1.00  0.00     0.050 C
BRANCH  22  23
HETATM   23  C17 UNL     1      -1.333  -3.317  29.389  1.00  0.00     0.126 C
BRANCH  23  24
HETATM   24  N3  UNL     1      -0.238  -2.489  28.894  1.00  0.00    -0.364 N
HETATM   25  C18 UNL     1      -0.252  -2.077  27.680  1.00  0.00     0.186 C
HETATM   26  N4  UNL     1      -1.347  -2.460  26.850  1.00  0.00    -0.064 NA
HETATM   27  N5  UNL     1       0.832  -1.324  27.219  1.00  0.00    -0.352 N
HETATM   28  C19 UNL     1       0.811  -0.413  26.124  1.00  0.00     0.145 C
HETATM   29  C26 UNL     1       2.159  -1.512  27.800  1.00  0.00     0.150 C
HETATM   30  C20 UNL     1       1.828  -1.079  25.111  1.00  0.00     0.137 C
HETATM   31  N6  UNL     1       2.178  -2.367  25.570  1.00  0.00    -0.405 N
HETATM   32  C21 UNL     1       2.710  -3.236  24.595  1.00  0.00     0.117 C
HETATM   33  C25 UNL     1       2.849  -2.455  26.831  1.00  0.00     0.097 C
HETATM   34  C22 UNL     1       3.876  -4.078  25.060  1.00  0.00     0.019 C
HETATM   35  C23 UNL     1       4.894  -3.289  25.863  1.00  0.00     0.004 C
HETATM   36  C24 UNL     1       4.288  -2.190  26.732  1.00  0.00     0.026 C
ATOM     37  H3  UNL     1       0.534  -2.239  29.511  1.00  0.00     0.162 HD
ENDBRANCH  23  24
ENDBRANCH  22  23
ENDBRANCH  21  22
ENDBRANCH   1  21
BRANCH   1  38
HETATM   38  N7  UNL     1      -5.739  -2.567  31.245  1.00  0.00    -0.379 NA
BRANCH  38  39
HETATM   39  C27 UNL     1      -6.903  -1.966  31.345  1.00  0.00     0.214 C
BRANCH  39  40
HETATM   40  O2  UNL     1      -7.916  -1.959  30.515  1.00  0.00    -0.337 OA
ATOM     41  H2  UNL     1      -8.011  -1.522  29.677  1.00  0.00     0.220 HD
ENDBRANCH  39  40
BRANCH  39  42
HETATM   42  C28 UNL     1      -7.290  -1.083  32.567  1.00  0.00     0.180 C
HETATM   43  C29 UNL     1      -6.316   0.087  32.545  1.00  0.00     0.035 C
HETATM   44  C30 UNL     1      -6.317   0.825  31.229  1.00  0.00     0.008 C
HETATM   45  C31 UNL     1      -7.694   1.410  31.064  1.00  0.00     0.045 C
HETATM   46  C32 UNL     1      -8.697   0.848  31.946  1.00  0.00     0.067 C
HETATM   47  N8  UNL     1      -8.569  -0.518  32.347  1.00  0.00    -0.322 N
HETATM   48  C33 UNL     1      -9.783  -1.265  32.570  1.00  0.00     0.188 C
HETATM   49  N9  UNL     1     -10.090  -1.583  33.754  1.00  0.00    -0.373 N
HETATM   50  N10 UNL     1     -10.597  -1.600  31.478  1.00  0.00    -0.064 NA
ATOM     51  H92 UNL     1      -9.499  -1.340  34.548  1.00  0.00     0.158 HD
ATOM     52  H91 UNL     1     -10.949  -2.112  33.911  1.00  0.00     0.158 HD
ENDBRANCH  39  42
ENDBRANCH  38  39
ENDBRANCH   1  38
TORSDOF 19
ENDMDL