MODEL 2
REMARK VINA RESULT: -8.809811276      1.809      3.937
REMARK  17 active torsions:
REMARK  status: ('A' for Active; 'I' for Inactive)
REMARK    1  A    between atoms: C2_2  and  C3_3
REMARK    2  A    between atoms: C3_3  and  N1_4
REMARK    3  A    between atoms: N1_4  and  C4_6
REMARK    4  A    between atoms: C4_6  and  C5_7
REMARK    5  A    between atoms: C4_6  and  C31_47
REMARK       I    between atoms: C5_7  and  N2_9
REMARK    6  A    between atoms: N2_9  and  C6_11
REMARK    7  A    between atoms: C6_11  and  C7_12
REMARK    8  A    between atoms: C6_11  and  C15_22
REMARK    9  A    between atoms: C7_12  and  C8_13
REMARK   10  A    between atoms: C8_13  and  C9_14
REMARK       I    between atoms: C9_14  and  N3_16
REMARK   11  A    between atoms: N3_16  and  C10_17
REMARK   12  A    between atoms: N3_16  and  C12_19
REMARK   13  A    between atoms: C12_19  and  C13_20
REMARK   14  A    between atoms: C15_22  and  O3_23
REMARK   15  A    between atoms: C15_22  and  N4_25
REMARK   16  A    between atoms: N7_41  and  C26_42
REMARK   17  A    between atoms: C26_42  and  C27_43
ROOT
HETATM    1  C6  UNL     1      -2.316  -2.507  28.954  1.00  0.00     0.159 C
ENDROOT
BRANCH   1   2
HETATM    2  N2  UNL     1      -3.231  -2.153  29.994  1.00  0.00    -0.347 N
HETATM    3  C5  UNL     1      -4.371  -2.832  30.435  1.00  0.00     0.241 C
HETATM    4  O1  UNL     1      -4.703  -3.914  29.896  1.00  0.00    -0.271 OA
ATOM      5  H2  UNL     1      -3.022  -1.283  30.484  1.00  0.00     0.163 HD
BRANCH   3   6
HETATM    6  C4  UNL     1      -5.230  -2.329  31.537  1.00  0.00     0.173 C
BRANCH   6   7
HETATM    7  N1  UNL     1      -5.502  -3.333  32.512  1.00  0.00    -0.406 N
ATOM      8  H1  UNL     1      -6.421  -3.769  32.586  1.00  0.00     0.154 HD
BRANCH   7   9
HETATM    9  C3  UNL     1      -4.427  -3.701  33.379  1.00  0.00     0.141 C
BRANCH   9  10
HETATM   10  C2  UNL     1      -4.500  -5.195  33.547  1.00  0.00    -0.018 C
HETATM   11  C1  UNL     1      -4.266  -6.000  32.547  1.00  0.00     0.008 C
ENDBRANCH   9  10
ENDBRANCH   7   9
ENDBRANCH   6   7
BRANCH   6  12
HETATM   12  C31 UNL     1      -6.479  -1.639  31.091  1.00  0.00     0.017 C
HETATM   13  C32 UNL     1      -6.319  -0.170  31.387  1.00  0.00     0.007 C
HETATM   14  C33 UNL     1      -7.207   0.325  32.495  1.00  0.00     0.000 C
HETATM   15  C34 UNL     1      -8.516   0.809  31.875  1.00  0.00     0.000 C
HETATM   16  C35 UNL     1      -9.466  -0.383  31.892  1.00  0.00     0.000 C
HETATM   17  C36 UNL     1      -8.890  -1.415  30.962  1.00  0.00     0.000 C
HETATM   18  C37 UNL     1      -7.752  -2.216  31.604  1.00  0.00     0.007 C
ENDBRANCH   6  12
ENDBRANCH   3   6
ENDBRANCH   1   2
BRANCH   1  19
HETATM   19  C7  UNL     1      -1.006  -3.073  29.422  1.00  0.00     0.043 C
BRANCH  19  20
HETATM   20  C8  UNL     1      -1.133  -4.411  30.142  1.00  0.00     0.105 C
BRANCH  20  21
HETATM   21  C9  UNL     1       0.236  -4.829  30.524  1.00  0.00     0.219 C
HETATM   22  O2  UNL     1       1.215  -4.100  30.145  1.00  0.00    -0.273 OA
HETATM   23  N3  UNL     1       0.544  -5.977  31.273  1.00  0.00    -0.352 N
BRANCH  23  24
HETATM   24  C10 UNL     1       1.974  -6.263  31.499  1.00  0.00     0.121 C
HETATM   25  C11 UNL     1       2.295  -6.340  32.966  1.00  0.00     0.026 C
ENDBRANCH  23  24
BRANCH  23  26
HETATM   26  C12 UNL     1      -0.467  -6.802  31.821  1.00  0.00     0.125 C
BRANCH  26  27
HETATM   27  C13 UNL     1      -0.776  -8.091  31.175  1.00  0.00     0.015 C
HETATM   28  C14 UNL     1      -2.088  -8.234  30.479  1.00  0.00     0.006 C
ENDBRANCH  26  27
ENDBRANCH  23  26
ENDBRANCH  20  21
ENDBRANCH  19  20
ENDBRANCH   1  19
BRANCH   1  29
HETATM   29  C15 UNL     1      -2.117  -1.430  27.991  1.00  0.00     0.137 C
BRANCH  29  30
HETATM   30  O3  UNL     1      -2.283  -0.234  28.475  1.00  0.00    -0.348 OA
ATOM     31  H3  UNL     1      -1.952   0.465  27.922  1.00  0.00     0.219 HD
ENDBRANCH  29  30
BRANCH  29  32
HETATM   32  N4  UNL     1      -1.784  -1.460  26.634  1.00  0.00    -0.361 N
HETATM   33  C16 UNL     1      -1.602  -2.627  25.810  1.00  0.00     0.128 C
HETATM   34  C17 UNL     1      -1.820  -2.115  24.381  1.00  0.00     0.070 C
HETATM   35  C18 UNL     1      -1.151  -0.781  24.424  1.00  0.00     0.221 C
HETATM   36  C19 UNL     1      -1.575  -0.265  25.792  1.00  0.00     0.173 C
HETATM   37  C20 UNL     1       0.312  -0.973  24.410  1.00  0.00     0.077 A
HETATM   38  N7  UNL     1      -1.609   0.135  23.390  1.00  0.00     0.111 N
HETATM   39  N5  UNL     1       1.231  -1.089  25.425  1.00  0.00    -0.308 N
HETATM   40  C22 UNL     1       0.967  -1.086  23.207  1.00  0.00     0.041 A
HETATM   41  C21 UNL     1       2.408  -1.269  24.819  1.00  0.00     0.325 A
ATOM     42  H5  UNL     1       1.053  -1.047  26.428  1.00  0.00     0.170 HD
HETATM   43  O4  UNL     1       3.529  -1.420  25.417  1.00  0.00    -0.247 OA
HETATM   44  N6  UNL     1       2.261  -1.269  23.471  1.00  0.00    -0.310 N
ATOM     45  H6  UNL     1       3.006  -1.387  22.784  1.00  0.00     0.170 HD
HETATM   46  C23 UNL     1       0.109  -0.961  22.000  1.00  0.00     0.094 C
HETATM   47  C24 UNL     1      -0.724   0.305  22.297  1.00  0.00     0.226 C
HETATM   48  C25 UNL     1       0.282   1.414  22.552  1.00  0.00     0.043 C
BRANCH  38  49
HETATM   49  C26 UNL     1      -2.975  -0.128  23.028  1.00  0.00     0.279 C
BRANCH  49  50
HETATM   50  C27 UNL     1      -3.433   0.816  21.957  1.00  0.00     0.014 C
HETATM   51  C28 UNL     1      -4.134   0.112  20.791  1.00  0.00     0.006 C
HETATM   52  C29 UNL     1      -5.091   1.293  20.752  1.00  0.00     0.001 C
HETATM   53  C30 UNL     1      -4.804   1.449  22.253  1.00  0.00     0.006 C
ENDBRANCH  49  50
ENDBRANCH  38  49
ENDBRANCH  29  32
ENDBRANCH   1  29
TORSDOF 17
ENDMDL