MODEL 1
REMARK VINA RESULT: -9.171077222      0.000      0.000
REMARK  16 active torsions:
REMARK  status: ('A' for Active; 'I' for Inactive)
REMARK    1  A    between atoms: C2_2  and  C3_3
REMARK    2  A    between atoms: C2_2  and  N4_22
REMARK    3  A    between atoms: C3_3  and  C4_4
REMARK    4  A    between atoms: C4_4  and  C5_5
REMARK    5  A    between atoms: C5_5  and  C6_6
REMARK    6  A    between atoms: C6_6  and  N1_7
REMARK       I    between atoms: N1_7  and  C7_9
REMARK    7  A    between atoms: C7_9  and  C8_11
REMARK    8  A    between atoms: N4_22  and  C15_24
REMARK    9  A    between atoms: C15_24  and  C16_25
REMARK   10  A    between atoms: C16_25  and  C17_26
REMARK   11  A    between atoms: C20_32  and  C21_33
REMARK   12  A    between atoms: C21_33  and  C22_34
REMARK   13  A    between atoms: N6_40  and  C28_41
REMARK   14  A    between atoms: C28_41  and  C29_42
REMARK   15  A    between atoms: N7_45  and  C32_46
REMARK   16  A    between atoms: C32_46  and  C33_47
ROOT
HETATM    1  C17 UNL     1      -3.919  -5.963  31.682  1.00  0.00     0.085 C
HETATM    2  C18 UNL     1      -4.400  -6.173  33.076  1.00  0.00     0.143 C
HETATM    3  N5  UNL     1      -4.513  -5.052  33.948  1.00  0.00    -0.355 N
ATOM      4  H5  UNL     1      -4.532  -5.165  34.962  1.00  0.00     0.162 HD
HETATM    5  C19 UNL     1      -4.598  -3.757  33.336  1.00  0.00     0.258 C
HETATM    6  O3  UNL     1      -4.632  -2.764  34.050  1.00  0.00    -0.267 OA
HETATM    7  C20 UNL     1      -4.623  -3.807  31.873  1.00  0.00     0.057 C
HETATM    8  N6  UNL     1      -3.487  -4.619  31.437  1.00  0.00    -0.275 NA
ENDROOT
BRANCH   1   9
HETATM    9  C16 UNL     1      -2.939  -7.062  31.380  1.00  0.00     0.066 C
BRANCH   9  10
HETATM   10  C15 UNL     1      -1.898  -7.073  32.471  1.00  0.00     0.057 C
BRANCH  10  11
HETATM   11  N4  UNL     1      -0.699  -6.423  32.202  1.00  0.00    -0.398 N
ATOM     12  H4  UNL     1      -0.648  -5.831  31.373  1.00  0.00     0.159 HD
BRANCH  11  13
HETATM   13  C2  UNL     1       0.440  -6.535  33.001  1.00  0.00     0.076 C
HETATM   14  C1  UNL     1       0.992  -7.911  33.253  1.00  0.00     0.032 C
BRANCH  13  15
HETATM   15  C3  UNL     1       1.620  -5.709  32.485  1.00  0.00     0.024 C
BRANCH  15  16
HETATM   16  C4  UNL     1       2.793  -6.596  32.284  1.00  0.00     0.004 C
BRANCH  16  17
HETATM   17  C5  UNL     1       3.453  -6.521  30.943  1.00  0.00     0.020 C
BRANCH  17  18
HETATM   18  C6  UNL     1       2.436  -6.449  29.818  1.00  0.00     0.122 C
BRANCH  18  19
HETATM   19  N1  UNL     1       2.701  -5.365  28.911  1.00  0.00    -0.359 N
HETATM   20  C7  UNL     1       3.307  -5.556  27.637  1.00  0.00     0.251 C
HETATM   21  O1  UNL     1       3.606  -6.738  27.335  1.00  0.00    -0.271 OA
ATOM     22  H1  UNL     1       2.444  -4.419  29.192  1.00  0.00     0.162 HD
BRANCH  20  23
HETATM   23  C8  UNL     1       3.586  -4.474  26.700  1.00  0.00     0.315 C
HETATM   24  C9  UNL     1       3.313  -3.090  27.189  1.00  0.00     0.048 C
HETATM   25  C10 UNL     1       4.242  -2.188  26.371  1.00  0.00     0.040 C
HETATM   26  C11 UNL     1       4.907  -3.178  25.463  1.00  0.00     0.242 C
HETATM   27  C12 UNL     1       6.264  -2.736  24.963  1.00  0.00     0.158 C
HETATM   28  N3  UNL     1       4.998  -4.369  26.319  1.00  0.00     0.117 N
HETATM   29  N2  UNL     1       7.214  -2.663  26.065  1.00  0.00    -0.357 N
HETATM   30  C13 UNL     1       6.970  -3.283  27.302  1.00  0.00     0.246 C
ATOM     31  H2  UNL     1       8.084  -2.146  25.934  1.00  0.00     0.162 HD
HETATM   32  O2  UNL     1       7.775  -3.069  28.253  1.00  0.00    -0.272 OA
HETATM   33  C14 UNL     1       5.794  -4.164  27.478  1.00  0.00     0.376 C
ENDBRANCH  20  23
ENDBRANCH  18  19
ENDBRANCH  17  18
ENDBRANCH  16  17
ENDBRANCH  15  16
ENDBRANCH  13  15
ENDBRANCH  11  13
ENDBRANCH  10  11
ENDBRANCH   9  10
ENDBRANCH   1   9
BRANCH   8  34
HETATM   34  C28 UNL     1      -2.989  -4.347  30.159  1.00  0.00     0.102 C
BRANCH  34  35
HETATM   35  C29 UNL     1      -1.968  -3.229  30.040  1.00  0.00     0.029 C
HETATM   36  C30 UNL     1      -0.567  -3.790  30.000  1.00  0.00     0.038 C
HETATM   37  C31 UNL     1       0.161  -2.777  29.099  1.00  0.00     0.273 C
HETATM   38  N7  UNL     1      -0.805  -2.287  28.204  1.00  0.00     0.089 N
HETATM   39  C37 UNL     1      -2.103  -2.477  28.758  1.00  0.00     0.278 C
BRANCH  38  40
HETATM   40  C32 UNL     1      -0.512  -1.019  27.656  1.00  0.00     0.280 C
BRANCH  40  41
HETATM   41  C33 UNL     1      -0.297  -0.999  26.175  1.00  0.00    -0.025 C
HETATM   42  C34 UNL     1      -1.571  -0.417  25.548  1.00  0.00     0.016 C
HETATM   43  C35 UNL     1       0.802   0.030  25.862  1.00  0.00     0.016 C
HETATM   44  C36 UNL     1       0.012  -2.294  25.520  1.00  0.00     0.016 C
ENDBRANCH  40  41
ENDBRANCH  38  40
ENDBRANCH  34  35
ENDBRANCH   8  34
BRANCH   7  45
HETATM   45  C21 UNL     1      -5.076  -2.649  31.154  1.00  0.00     0.061 C
BRANCH  45  46
HETATM   46  C22 UNL     1      -6.051  -1.698  31.791  1.00  0.00    -0.009 C
HETATM   47  C23 UNL     1      -7.448  -2.330  31.599  1.00  0.00     0.005 C
HETATM   48  C24 UNL     1      -8.481  -1.716  32.483  1.00  0.00     0.000 C
HETATM   49  C25 UNL     1      -8.526  -0.236  32.136  1.00  0.00     0.000 C
HETATM   50  C26 UNL     1      -7.176   0.384  32.286  1.00  0.00     0.000 C
HETATM   51  C27 UNL     1      -6.113  -0.298  31.383  1.00  0.00     0.005 C
ENDBRANCH  45  46
ENDBRANCH   7  45
TORSDOF 16
ENDMDL