MODEL 1
REMARK VINA RESULT: -5.661218630      0.000      0.000
REMARK  18 active torsions:
REMARK  status: ('A' for Active; 'I' for Inactive)
REMARK    1  A    between atoms: C2_2  and  N1_3
REMARK    2  A    between atoms: N1_3  and  C3_6
REMARK    3  A    between atoms: C3_6  and  C4_7
REMARK    4  A    between atoms: C4_7  and  C5_8
REMARK    5  A    between atoms: C5_8  and  N2_9
REMARK    6  A    between atoms: C6_10  and  O1_11
REMARK    7  A    between atoms: C7_13  and  C8_14
REMARK    8  A    between atoms: C8_14  and  C9_15
REMARK    9  A    between atoms: C13_22  and  C14_23
REMARK   10  A    between atoms: C14_23  and  C15_24
REMARK   11  A    between atoms: C18_29  and  O3_30
REMARK   12  A    between atoms: C19_32  and  C20_33
REMARK   13  A    between atoms: C20_33  and  C22_35
REMARK   14  A    between atoms: C25_39  and  O4_40
REMARK   15  A    between atoms: C26_42  and  C27_43
REMARK   16  A    between atoms: C27_43  and  C28_44
REMARK   17  A    between atoms: C32_51  and  C33_52
REMARK   18  A    between atoms: C33_52  and  C34_53
ROOT
HETATM    1  N2  UNL     1       5.502  -3.589  24.707  1.00  0.00    -0.350 N
HETATM    2  C6  UNL     1       5.559  -3.860  23.320  1.00  0.00     0.137 C
HETATM    3  C7  UNL     1       4.514  -3.932  22.300  1.00  0.00     0.159 C
HETATM    4  N3  UNL     1       4.487  -2.760  21.406  1.00  0.00    -0.347 N
ATOM      5  H3  UNL     1       5.042  -2.794  20.550  1.00  0.00     0.163 HD
HETATM    6  C12 UNL     1       3.729  -1.581  21.669  1.00  0.00     0.241 C
HETATM    7  O2  UNL     1       4.424  -0.532  21.720  1.00  0.00    -0.271 OA
HETATM    8  C13 UNL     1       2.255  -1.556  21.881  1.00  0.00     0.176 C
HETATM    9  N4  UNL     1       1.907  -2.198  23.125  1.00  0.00    -0.356 N
ATOM     10  H4  UNL     1       2.715  -2.195  23.748  1.00  0.00     0.162 HD
HETATM   11  C18 UNL     1       0.864  -2.804  23.740  1.00  0.00     0.164 C
HETATM   12  C19 UNL     1      -0.382  -2.274  24.414  1.00  0.00     0.089 C
HETATM   13  N5  UNL     1      -0.113  -1.031  25.100  1.00  0.00    -0.327 N
HETATM   14  C24 UNL     1      -1.033   0.071  24.899  1.00  0.00     0.159 C
HETATM   15  C25 UNL     1       1.031  -0.836  25.935  1.00  0.00     0.165 C
HETATM   16  C26 UNL     1       1.803  -1.651  26.849  1.00  0.00     0.063 C
HETATM   17  N6  UNL     1       3.241  -1.720  26.589  1.00  0.00    -0.325 N
ATOM     18  H6  UNL     1       3.642  -0.811  26.358  1.00  0.00     0.169 HD
HETATM   19  C31 UNL     1       4.167  -2.714  26.584  1.00  0.00     0.245 C
HETATM   20  O5  UNL     1       5.020  -2.744  27.558  1.00  0.00    -0.271 OA
HETATM   21  C32 UNL     1       4.442  -3.869  25.632  1.00  0.00     0.178 C
ENDROOT
BRANCH   1  22
HETATM   22  C5  UNL     1       6.745  -2.920  25.186  1.00  0.00     0.127 C
BRANCH  22  23
HETATM   23  C4  UNL     1       6.932  -1.559  24.607  1.00  0.00     0.047 C
BRANCH  23  24
HETATM   24  C3  UNL     1       7.134  -0.550  25.751  1.00  0.00     0.234 C
BRANCH  24  25
HETATM   25  N1  UNL     1       7.448  -1.200  26.990  1.00  0.00    -0.075 N
ATOM     26  H12 UNL     1       7.091  -2.155  27.037  1.00  0.00     0.277 HD
ATOM     27  H11 UNL     1       6.926  -0.820  27.779  1.00  0.00     0.277 HD
BRANCH  25  28
HETATM   28  C2  UNL     1       8.883  -1.127  27.180  1.00  0.00     0.228 C
HETATM   29  C1  UNL     1       9.383  -2.499  27.553  1.00  0.00     0.034 C
ENDBRANCH  25  28
ENDBRANCH  24  25
ENDBRANCH  23  24
ENDBRANCH  22  23
ENDBRANCH   1  22
BRANCH   2  30
HETATM   30  O1  UNL     1       6.747  -4.090  22.840  1.00  0.00    -0.348 OA
ATOM     31  H1  UNL     1       6.810  -4.818  22.232  1.00  0.00     0.219 HD
ENDBRANCH   2  30
BRANCH  21  32
HETATM   32  C33 UNL     1       4.580  -5.100  26.451  1.00  0.00     0.039 C
BRANCH  32  33
HETATM   33  C34 UNL     1       3.441  -5.873  26.936  1.00  0.00    -0.020 C
HETATM   34  C35 UNL     1       3.609  -6.027  28.500  1.00  0.00     0.009 C
HETATM   35  C36 UNL     1       3.460  -7.311  26.483  1.00  0.00     0.009 C
ENDBRANCH  32  33
ENDBRANCH  21  32
BRANCH   3  36
HETATM   36  C8  UNL     1       4.889  -5.129  21.404  1.00  0.00     0.037 C
BRANCH  36  37
HETATM   37  C9  UNL     1       3.729  -6.091  21.388  1.00  0.00    -0.020 C
HETATM   38  C10 UNL     1       2.439  -5.466  20.921  1.00  0.00     0.009 C
HETATM   39  C11 UNL     1       3.592  -6.691  22.774  1.00  0.00     0.009 C
ENDBRANCH  36  37
ENDBRANCH   3  36
BRANCH  16  40
HETATM   40  C27 UNL     1       1.220  -2.862  27.465  1.00  0.00     0.065 C
BRANCH  40  41
HETATM   41  C28 UNL     1       0.429  -2.610  28.730  1.00  0.00    -0.017 C
HETATM   42  C29 UNL     1      -1.005  -2.346  28.315  1.00  0.00     0.010 C
HETATM   43  C30 UNL     1       0.430  -3.795  29.657  1.00  0.00     0.010 C
ENDBRANCH  40  41
ENDBRANCH  16  40
BRANCH   8  44
HETATM   44  C14 UNL     1       1.687  -0.194  21.813  1.00  0.00     0.038 C
BRANCH  44  45
HETATM   45  C15 UNL     1       1.354   0.429  20.523  1.00  0.00    -0.020 C
HETATM   46  C16 UNL     1       1.865   1.709  20.051  1.00  0.00     0.009 C
HETATM   47  C17 UNL     1      -0.203   0.387  20.321  1.00  0.00     0.009 C
ENDBRANCH  44  45
ENDBRANCH   8  44
BRANCH  15  48
HETATM   48  O4  UNL     1       1.478   0.384  25.836  1.00  0.00    -0.344 OA
ATOM     49  H4  UNL     1       0.769   0.994  25.670  1.00  0.00     0.219 HD
ENDBRANCH  15  48
BRANCH  11  50
HETATM   50  O3  UNL     1       0.889  -4.112  23.797  1.00  0.00    -0.345 OA
ATOM     51  H3  UNL     1       0.894  -4.505  24.662  1.00  0.00     0.219 HD
ENDBRANCH  11  50
BRANCH  12  52
HETATM   52  C20 UNL     1      -1.592  -2.511  23.643  1.00  0.00    -0.053 C
HETATM   53  C21 UNL     1      -1.447  -2.624  22.144  1.00  0.00     0.046 C
BRANCH  52  54
HETATM   54  C22 UNL     1      -2.584  -3.543  24.080  1.00  0.00     0.031 C
HETATM   55  C23 UNL     1      -2.543  -4.722  23.122  1.00  0.00     0.010 C
ENDBRANCH  52  54
ENDBRANCH  12  52
TORSDOF 18
ENDMDL