MODEL 2
REMARK VINA RESULT: -8.957589119      1.438      3.674
REMARK  16 active torsions:
REMARK  status: ('A' for Active; 'I' for Inactive)
REMARK    1  A    between atoms: C2_2  and  C3_3
REMARK    2  A    between atoms: C3_3  and  C4_4
REMARK    3  A    between atoms: C4_4  and  N1_5
REMARK    4  A    between atoms: C4_4  and  C24_32
REMARK       I    between atoms: N1_5  and  C5_7
REMARK    5  A    between atoms: C5_7  and  C6_9
REMARK       I    between atoms: N2_13  and  C10_14
REMARK    6  A    between atoms: C10_14  and  C11_16
REMARK    7  A    between atoms: C11_16  and  C12_17
REMARK    8  A    between atoms: C11_16  and  N3_20
REMARK    9  A    between atoms: C12_17  and  C13_18
REMARK       I    between atoms: N3_20  and  C15_22
REMARK   10  A    between atoms: C15_22  and  C16_24
REMARK   11  A    between atoms: C24_32  and  C25_34
REMARK       I    between atoms: C25_34  and  N4_36
REMARK   12  A    between atoms: N4_36  and  C26_38
REMARK   13  A    between atoms: C26_38  and  C27_39
REMARK       I    between atoms: N5_42  and  C30_43
REMARK   14  A    between atoms: C30_43  and  O7_45
REMARK   15  A    between atoms: O7_45  and  C31_46
REMARK   16  A    between atoms: C31_46  and  C32_47
ROOT
HETATM    1  N1  UNL     1      -9.460  -0.285  31.830  1.00  0.00    -0.347 N
ATOM      2  H1  UNL     1     -10.007   0.549  32.043  1.00  0.00     0.163 HD
HETATM    3  C5  UNL     1     -10.063  -1.533  31.975  1.00  0.00     0.241 C
HETATM    4  O1  UNL     1      -9.307  -2.548  31.693  1.00  0.00    -0.271 OA
ENDROOT
BRANCH   1   5
HETATM    5  C4  UNL     1      -8.087  -0.119  31.388  1.00  0.00     0.164 C
BRANCH   5   6
HETATM    6  C3  UNL     1      -7.869   1.105  30.558  1.00  0.00     0.033 C
BRANCH   6   7
HETATM    7  C2  UNL     1      -8.823   2.228  30.940  1.00  0.00    -0.002 C
HETATM    8  C1  UNL     1      -7.993   3.504  30.995  1.00  0.00     0.005 C
ENDBRANCH   6   7
ENDBRANCH   5   6
BRANCH   5   9
HETATM    9  C24 UNL     1      -7.098  -0.241  32.491  1.00  0.00     0.239 C
HETATM   10  O4  UNL     1      -7.118   0.481  33.491  1.00  0.00    -0.285 OA
BRANCH   9  11
HETATM   11  C25 UNL     1      -6.044  -1.273  32.395  1.00  0.00     0.293 C
HETATM   12  O5  UNL     1      -5.605  -1.465  31.243  1.00  0.00    -0.264 OA
HETATM   13  N4  UNL     1      -5.561  -1.998  33.486  1.00  0.00    -0.334 N
ATOM     14  H4  UNL     1      -5.983  -1.770  34.385  1.00  0.00     0.168 HD
BRANCH  13  15
HETATM   15  C26 UNL     1      -4.569  -3.002  33.517  1.00  0.00     0.070 C
BRANCH  15  16
HETATM   16  C27 UNL     1      -4.815  -4.367  33.033  1.00  0.00     0.044 C
HETATM   17  C28 UNL     1      -4.396  -5.535  33.834  1.00  0.00     0.031 C
HETATM   18  C29 UNL     1      -4.395  -6.664  32.773  1.00  0.00     0.129 C
HETATM   19  N5  UNL     1      -3.582  -5.971  31.776  1.00  0.00    -0.327 N
HETATM   20  C30 UNL     1      -2.552  -6.563  31.040  1.00  0.00     0.362 C
HETATM   21  C35 UNL     1      -4.021  -4.592  31.725  1.00  0.00     0.138 C
HETATM   22  O6  UNL     1      -1.863  -5.952  30.185  1.00  0.00    -0.238 OA
BRANCH  20  23
HETATM   23  O7  UNL     1      -2.219  -7.918  31.228  1.00  0.00    -0.304 OA
BRANCH  23  24
HETATM   24  C31 UNL     1      -0.990  -8.331  31.754  1.00  0.00     0.185 C
BRANCH  24  25
HETATM   25  C32 UNL     1      -0.480  -7.433  32.842  1.00  0.00     0.010 A
HETATM   26  C33 UNL     1       0.716  -6.590  32.576  1.00  0.00     0.007 A
HETATM   27  C34 UNL     1       0.904  -7.807  33.369  1.00  0.00     0.007 A
ENDBRANCH  24  25
ENDBRANCH  23  24
ENDBRANCH  20  23
ENDBRANCH  15  16
ENDBRANCH  13  15
ENDBRANCH   9  11
ENDBRANCH   5   9
ENDBRANCH   1   5
BRANCH   3  28
HETATM   28  C6  UNL     1     -11.404  -1.920  32.393  1.00  0.00     0.184 C
HETATM   29  C7  UNL     1     -11.292  -3.172  33.173  1.00  0.00     0.032 A
HETATM   30  C8  UNL     1     -12.799  -3.565  33.067  1.00  0.00     0.019 A
HETATM   31  C21 UNL     1     -12.009  -3.802  34.193  1.00  0.00    -0.036 A
HETATM   32  C9  UNL     1     -12.673  -3.722  31.579  1.00  0.00     0.132 C
HETATM   33  N2  UNL     1     -12.336  -2.270  31.346  1.00  0.00    -0.336 N
HETATM   34  C10 UNL     1     -12.957  -1.566  30.311  1.00  0.00     0.243 C
HETATM   35  O2  UNL     1     -13.733  -2.262  29.542  1.00  0.00    -0.271 OA
HETATM   36  C22 UNL     1     -12.224  -2.976  35.477  1.00  0.00     0.016 C
HETATM   37  C23 UNL     1     -11.710  -5.247  34.577  1.00  0.00     0.016 C
BRANCH  34  38
HETATM   38  C11 UNL     1     -12.879  -0.155  29.955  1.00  0.00     0.176 C
BRANCH  38  39
HETATM   39  C12 UNL     1     -14.098   0.657  30.292  1.00  0.00     0.034 C
BRANCH  39  40
HETATM   40  C13 UNL     1     -13.925   2.126  29.994  1.00  0.00    -0.002 C
HETATM   41  C14 UNL     1     -14.537   2.987  31.079  1.00  0.00     0.005 C
ENDBRANCH  39  40
ENDBRANCH  38  39
BRANCH  38  42
HETATM   42  N3  UNL     1     -12.657  -0.034  28.519  1.00  0.00    -0.347 N
HETATM   43  C15 UNL     1     -11.364  -0.163  27.993  1.00  0.00     0.222 C
HETATM   44  O3  UNL     1     -10.404  -0.380  28.779  1.00  0.00    -0.273 OA
ATOM     45  H3  UNL     1     -13.445   0.145  27.895  1.00  0.00     0.163 HD
BRANCH  43  46
HETATM   46  C16 UNL     1     -11.088  -0.053  26.523  1.00  0.00     0.078 C
HETATM   47  C17 UNL     1      -9.656   0.301  26.260  1.00  0.00     0.014 C
HETATM   48  C18 UNL     1      -9.204  -0.614  25.134  1.00  0.00     0.001 C
HETATM   49  C19 UNL     1     -10.087  -1.844  25.214  1.00  0.00     0.001 C
HETATM   50  C20 UNL     1     -11.362  -1.371  25.828  1.00  0.00     0.014 C
ENDBRANCH  43  46
ENDBRANCH  38  42
ENDBRANCH  34  38
ENDBRANCH   3  28
TORSDOF 16
ENDMDL