MODEL 3
REMARK VINA RESULT: -5.603480628      2.405      8.211
REMARK  17 active torsions:
REMARK  status: ('A' for Active; 'I' for Inactive)
REMARK    1  A    between atoms: C2_2  and  C3_3
REMARK    2  A    between atoms: C3_3  and  C4_4
REMARK    3  A    between atoms: C4_4  and  N1_5
REMARK    4  A    between atoms: C7_9  and  C8_10
REMARK    5  A    between atoms: C8_10  and  C9_11
REMARK    6  A    between atoms: C9_11  and  C10_12
REMARK    7  A    between atoms: C10_12  and  C11_13
REMARK    8  A    between atoms: C11_13  and  N2_14
REMARK    9  A    between atoms: C13_22  and  C14_23
REMARK   10  A    between atoms: C14_23  and  C15_24
REMARK   11  A    between atoms: C18_28  and  C19_29
REMARK   12  A    between atoms: C19_29  and  C21_31
REMARK   13  A    between atoms: C23_33  and  O3_34
REMARK   14  A    between atoms: C25_38  and  C26_39
REMARK   15  A    between atoms: C26_39  and  C27_40
REMARK   16  A    between atoms: C31_47  and  C32_48
REMARK   17  A    between atoms: C32_48  and  C33_49
ROOT
HETATM    1  N1  UNL     1       8.008  -4.450  27.292  1.00  0.00    -0.340 N
HETATM    2  C5  UNL     1       6.967  -4.341  28.265  1.00  0.00     0.206 C
HETATM    3  C6  UNL     1       5.574  -4.262  27.790  1.00  0.00     0.167 C
HETATM    4  O1  UNL     1       4.738  -4.947  28.390  1.00  0.00    -0.294 OA
HETATM    5  C7  UNL     1       5.032  -3.460  26.679  1.00  0.00     0.156 C
HETATM    6  N3  UNL     1       5.283  -3.957  25.359  1.00  0.00    -0.347 N
ATOM      7  H3  UNL     1       5.755  -3.286  24.753  1.00  0.00     0.163 HD
HETATM    8  C12 UNL     1       5.013  -5.165  24.742  1.00  0.00     0.254 C
HETATM    9  O2  UNL     1       5.992  -5.839  24.316  1.00  0.00    -0.270 OA
HETATM   10  C13 UNL     1       3.696  -5.833  24.478  1.00  0.00     0.255 C
HETATM   11  N4  UNL     1       3.540  -7.155  24.741  1.00  0.00    -0.433 NA
HETATM   12  C18 UNL     1       3.644  -8.353  24.904  1.00  0.00     0.133 C
HETATM   13  C23 UNL     1       4.800  -9.235  24.615  1.00  0.00     0.180 C
HETATM   14  N5  UNL     1       6.155  -9.226  24.922  1.00  0.00    -0.325 N
HETATM   15  C24 UNL     1       7.030  -9.227  23.703  1.00  0.00     0.159 C
HETATM   16  C25 UNL     1       6.881  -9.287  26.186  1.00  0.00     0.101 C
HETATM   17  C30 UNL     1       6.592  -8.316  27.198  1.00  0.00     0.272 C
HETATM   18  O4  UNL     1       5.388  -8.024  27.482  1.00  0.00    -0.266 OA
HETATM   19  N6  UNL     1       7.508  -7.551  28.014  1.00  0.00    -0.317 N
ATOM     20  H6  UNL     1       7.247  -7.435  28.993  1.00  0.00     0.169 HD
HETATM   21  C31 UNL     1       8.717  -6.946  27.619  1.00  0.00     0.100 C
HETATM   22  C36 UNL     1       8.587  -5.682  26.834  1.00  0.00     0.270 C
HETATM   23  O5  UNL     1       9.023  -5.632  25.622  1.00  0.00    -0.266 OA
ENDROOT
BRANCH   5  24
HETATM   24  C8  UNL     1       3.546  -3.132  26.913  1.00  0.00     0.033 C
BRANCH  24  25
HETATM   25  C9  UNL     1       3.139  -1.960  26.055  1.00  0.00     0.004 C
BRANCH  25  26
HETATM   26  C10 UNL     1       1.651  -1.942  25.801  1.00  0.00     0.027 C
BRANCH  26  27
HETATM   27  C11 UNL     1       1.074  -0.628  26.236  1.00  0.00     0.229 C
BRANCH  27  28
HETATM   28  N2  UNL     1       1.065   0.302  25.110  1.00  0.00    -0.079 N
ATOM     29  H23 UNL     1       1.521  -0.089  24.286  1.00  0.00     0.274 HD
ATOM     30  H22 UNL     1       0.131   0.423  24.719  1.00  0.00     0.274 HD
ATOM     31  H21 UNL     1       1.480   1.189  25.394  1.00  0.00     0.274 HD
ENDBRANCH  27  28
ENDBRANCH  26  27
ENDBRANCH  25  26
ENDBRANCH  24  25
ENDBRANCH   5  24
BRANCH   1  32
HETATM   32  C4  UNL     1       8.562  -3.247  26.667  1.00  0.00     0.126 C
BRANCH  32  33
HETATM   33  C3  UNL     1       8.415  -1.987  27.407  1.00  0.00     0.020 C
BRANCH  33  34
HETATM   34  C2  UNL     1       7.824  -0.805  26.727  1.00  0.00    -0.003 C
HETATM   35  C1  UNL     1       7.491  -1.050  25.255  1.00  0.00     0.005 C
ENDBRANCH  33  34
ENDBRANCH  32  33
ENDBRANCH   1  32
BRANCH  10  36
HETATM   36  C14 UNL     1       3.310  -5.454  23.008  1.00  0.00     0.053 C
BRANCH  36  37
HETATM   37  C15 UNL     1       2.337  -4.339  22.961  1.00  0.00    -0.019 C
HETATM   38  C16 UNL     1       1.269  -4.676  21.927  1.00  0.00     0.009 C
HETATM   39  C17 UNL     1       3.065  -3.128  22.335  1.00  0.00     0.009 C
ENDBRANCH  36  37
ENDBRANCH  10  36
BRANCH  21  40
HETATM   40  C32 UNL     1       9.873  -6.936  28.535  1.00  0.00     0.012 C
BRANCH  40  41
HETATM   41  C33 UNL     1       9.828  -6.421  29.899  1.00  0.00     0.002 C
HETATM   42  C34 UNL     1      10.550  -5.035  29.861  1.00  0.00     0.013 C
HETATM   43  C35 UNL     1      10.651  -7.190  30.903  1.00  0.00     0.013 C
ENDBRANCH  40  41
ENDBRANCH  21  40
BRANCH  12  44
HETATM   44  C19 UNL     1       2.458  -9.173  25.403  1.00  0.00     0.049 C
HETATM   45  C20 UNL     1       2.374  -9.366  26.867  1.00  0.00     0.017 C
BRANCH  44  46
HETATM   46  C21 UNL     1       1.129  -8.747  24.909  1.00  0.00     0.007 C
HETATM   47  C22 UNL     1       0.141  -9.860  25.299  1.00  0.00     0.006 C
ENDBRANCH  44  46
ENDBRANCH  12  44
BRANCH  13  48
HETATM   48  O3  UNL     1       4.380 -10.263  23.880  1.00  0.00    -0.344 OA
ATOM     49  H3  UNL     1       4.629 -11.071  24.315  1.00  0.00     0.219 HD
ENDBRANCH  13  48
BRANCH  16  50
HETATM   50  C26 UNL     1       7.066 -10.724  26.592  1.00  0.00     0.012 C
BRANCH  50  51
HETATM   51  C27 UNL     1       8.333 -11.415  26.437  1.00  0.00     0.002 C
HETATM   52  C28 UNL     1       9.490 -10.842  27.203  1.00  0.00     0.013 C
HETATM   53  C29 UNL     1       8.171 -12.863  26.965  1.00  0.00     0.013 C
ENDBRANCH  50  51
ENDBRANCH  16  50
TORSDOF 17
ENDMDL