MODEL 2
REMARK VINA RESULT: -8.383502826      4.192      8.207
REMARK  15 active torsions:
REMARK  status: ('A' for Active; 'I' for Inactive)
REMARK    1  A    between atoms: C2_2  and  C5_5
REMARK    2  A    between atoms: C5_5  and  N1_6
REMARK    3  A    between atoms: C5_5  and  N4_31
REMARK       I    between atoms: N1_6  and  C6_8
REMARK    4  A    between atoms: C6_8  and  C7_10
REMARK    5  A    between atoms: C7_10  and  C8_11
REMARK    6  A    between atoms: C8_11  and  C9_12
REMARK    7  A    between atoms: C9_12  and  C10_13
REMARK    8  A    between atoms: C10_13  and  C11_14
REMARK    9  A    between atoms: C11_14  and  C12_15
REMARK       I    between atoms: C12_15  and  N2_17
REMARK   10  A    between atoms: C18_23  and  C19_24
REMARK   11  A    between atoms: C27_37  and  C28_38
REMARK   12  A    between atoms: C28_38  and  C29_39
REMARK   13  A    between atoms: C29_39  and  C30_40
REMARK   14  A    between atoms: C30_40  and  C31_41
REMARK   15  A    between atoms: C31_41  and  N5_42
REMARK       I    between atoms: N5_42  and  C32_44
ROOT
HETATM    1  N1  UNL     1      -2.877  -5.667  32.536  1.00  0.00    -0.312 N
ATOM      2  H1  UNL     1      -3.021  -5.216  31.632  1.00  0.00     0.170 HD
HETATM    3  C6  UNL     1      -3.714  -5.248  33.661  1.00  0.00     0.242 C
HETATM    4  O1  UNL     1      -3.474  -5.846  34.721  1.00  0.00    -0.269 OA
ENDROOT
BRANCH   1   5
HETATM    5  C5  UNL     1      -1.872  -6.673  32.637  1.00  0.00     0.104 C
BRANCH   5   6
HETATM    6  C2  UNL     1      -2.381  -8.035  32.169  1.00  0.00     0.008 C
HETATM    7  C1  UNL     1      -1.369  -8.800  31.389  1.00  0.00     0.022 C
HETATM    8  C3  UNL     1      -3.667  -7.973  31.401  1.00  0.00     0.022 C
HETATM    9  C4  UNL     1      -2.695  -8.875  33.426  1.00  0.00     0.022 C
ENDBRANCH   5   6
BRANCH   5  10
HETATM   10  N4  UNL     1      -0.554  -6.362  32.213  1.00  0.00    -0.238 N
HETATM   11  C24 UNL     1      -0.407  -5.698  30.948  1.00  0.00     0.234 C
HETATM   12  O4  UNL     1      -1.395  -5.817  30.141  1.00  0.00    -0.272 OA
HETATM   13  C25 UNL     1       0.697  -4.887  30.398  1.00  0.00     0.130 C
HETATM   14  C26 UNL     1       1.984  -5.307  31.062  1.00  0.00     0.178 C
HETATM   15  O5  UNL     1       1.895  -4.901  32.396  1.00  0.00    -0.376 OA
HETATM   16  C27 UNL     1       1.863  -6.033  33.246  1.00  0.00     0.214 C
HETATM   17  C33 UNL     1       0.555  -6.738  33.058  1.00  0.00     0.261 C
HETATM   18  O7  UNL     1       0.396  -7.782  33.708  1.00  0.00    -0.270 OA
BRANCH  16  19
HETATM   19  C28 UNL     1       1.969  -5.527  34.644  1.00  0.00     0.042 C
BRANCH  19  20
HETATM   20  C29 UNL     1       2.404  -4.114  34.791  1.00  0.00     0.004 C
BRANCH  20  21
HETATM   21  C30 UNL     1       3.691  -3.964  35.581  1.00  0.00     0.020 C
BRANCH  21  22
HETATM   22  C31 UNL     1       4.798  -3.463  34.683  1.00  0.00     0.124 C
BRANCH  22  23
HETATM   23  N5  UNL     1       4.785  -4.157  33.431  1.00  0.00    -0.345 N
HETATM   24  C32 UNL     1       5.898  -4.758  32.851  1.00  0.00     0.328 C
HETATM   25  N6  UNL     1       5.821  -5.431  31.597  1.00  0.00    -0.040 NA
HETATM   26  O6  UNL     1       7.043  -4.752  33.386  1.00  0.00    -0.251 OA
ATOM     27  H5  UNL     1       3.900  -4.215  32.929  1.00  0.00     0.163 HD
ENDBRANCH  22  23
ENDBRANCH  21  22
ENDBRANCH  20  21
ENDBRANCH  19  20
ENDBRANCH  16  19
ENDBRANCH   5  10
ENDBRANCH   1   5
BRANCH   3  28
HETATM   28  C7  UNL     1      -4.717  -4.233  33.513  1.00  0.00     0.048 C
BRANCH  28  29
HETATM   29  C8  UNL     1      -4.559  -3.012  32.723  1.00  0.00     0.033 C
BRANCH  29  30
HETATM   30  C9  UNL     1      -4.690  -3.017  31.258  1.00  0.00     0.004 C
BRANCH  30  31
HETATM   31  C10 UNL     1      -4.975  -1.799  30.485  1.00  0.00     0.010 C
BRANCH  31  32
HETATM   32  C11 UNL     1      -5.144  -0.532  31.287  1.00  0.00     0.103 C
BRANCH  32  33
HETATM   33  C12 UNL     1      -6.461   0.117  31.132  1.00  0.00     0.219 C
HETATM   34  O2  UNL     1      -6.671   1.044  30.319  1.00  0.00    -0.273 OA
HETATM   35  N2  UNL     1      -7.519  -0.352  31.949  1.00  0.00    -0.352 N
HETATM   36  C13 UNL     1      -8.838   0.280  31.796  1.00  0.00     0.126 C
HETATM   37  C23 UNL     1      -7.431  -1.396  32.924  1.00  0.00     0.126 C
HETATM   38  C14 UNL     1      -9.748  -0.856  31.329  1.00  0.00     0.029 C
HETATM   39  C15 UNL     1      -9.834  -1.933  32.373  1.00  0.00    -0.037 C
HETATM   40  C16 UNL     1     -10.460  -1.490  33.654  1.00  0.00     0.010 C
HETATM   41  C21 UNL     1     -10.650  -3.064  31.774  1.00  0.00     0.010 C
HETATM   42  C22 UNL     1      -8.454  -2.474  32.605  1.00  0.00     0.029 C
HETATM   43  C17 UNL     1     -11.867  -2.051  33.859  1.00  0.00     0.014 C
HETATM   44  C18 UNL     1     -12.638  -1.781  32.588  1.00  0.00     0.075 C
HETATM   45  C20 UNL     1     -12.062  -2.595  31.460  1.00  0.00     0.014 C
BRANCH  44  46
HETATM   46  C19 UNL     1     -14.093  -2.094  32.755  1.00  0.00     0.235 C
HETATM   47  N3  UNL     1     -15.070  -1.381  32.014  1.00  0.00    -0.062 NA
HETATM   48  O3  UNL     1     -14.457  -2.991  33.551  1.00  0.00    -0.277 OA
ENDBRANCH  44  46
ENDBRANCH  32  33
ENDBRANCH  31  32
ENDBRANCH  30  31
ENDBRANCH  29  30
ENDBRANCH  28  29
ENDBRANCH   3  28
TORSDOF 15
ENDMDL