MODEL 4
REMARK VINA RESULT: -6.520188772      0.748      1.057
REMARK  2 active torsions:
REMARK  status: ('A' for Active; 'I' for Inactive)
REMARK    1  A    between atoms: N3_4  and  N4_6
REMARK    2  A    between atoms: N4_6  and  C2_8
ROOT
HETATM    1  C2  UNL     1      27.843  46.740  -3.852  1.00  0.00     0.143 C
HETATM    2  C3  UNL     1      27.534  46.527  -2.600  1.00  0.00     0.134 A
HETATM    3  N5  UNL     1      27.869  45.560  -1.614  1.00  0.00    -0.291 N
ATOM      4  H5  UNL     1      28.466  44.733  -1.602  1.00  0.00     0.187 HD
HETATM    5  N6  UNL     1      27.055  46.194  -0.659  1.00  0.00    -0.264 N
ATOM      6  H6  UNL     1      26.822  46.016   0.318  1.00  0.00     0.190 HD
HETATM    7  C4  UNL     1      26.687  47.187  -1.610  1.00  0.00     0.289 A
HETATM    8  O1  UNL     1      25.953  48.224  -1.658  1.00  0.00    -0.264 OA
ENDROOT
BRANCH   1   9
HETATM    9  N4  UNL     1      28.733  45.855  -4.519  1.00  0.00    -0.307 N
ATOM     10  H4  UNL     1      29.155  45.067  -4.026  1.00  0.00     0.186 HD
BRANCH   9  11
HETATM   11  N3  UNL     1      29.015  46.089  -5.858  1.00  0.00    -0.276 N
HETATM   12  C1  UNL     1      29.388  45.107  -6.597  1.00  0.00     0.215 C
HETATM   13  N1  UNL     1      29.493  43.825  -5.991  1.00  0.00    -0.065 NA
HETATM   14  N2  UNL     1      29.689  45.301  -7.983  1.00  0.00    -0.065 NA
ATOM     15  H3  UNL     1      28.926  47.027  -6.249  1.00  0.00     0.189 HD
ENDBRANCH   9  11
ENDBRANCH   1   9
TORSDOF 2
ENDMDL