MODEL 5
REMARK VINA RESULT: -6.358424181      2.250      3.102
REMARK  2 active torsions:
REMARK  status: ('A' for Active; 'I' for Inactive)
REMARK    1  A    between atoms: C2_2  and  C3_3
REMARK    2  A    between atoms: N3_7  and  N4_8
ROOT
HETATM    1  C1  UNL     1      27.508  46.115  -2.560  1.00  0.00     0.056 C
HETATM    2  C2  UNL     1      28.213  47.189  -1.792  1.00  0.00     0.204 C
HETATM    3  N2  UNL     1      29.362  47.612  -2.566  1.00  0.00    -0.095 NA
HETATM    4  N3  UNL     1      28.801  48.265  -3.672  1.00  0.00    -0.048 NA
HETATM    5  N5  UNL     1      27.654  48.935  -3.173  1.00  0.00    -0.254 N
ATOM      6  H5  UNL     1      27.112  49.647  -3.662  1.00  0.00     0.187 HD
HETATM    7  C4  UNL     1      27.395  48.433  -1.858  1.00  0.00     0.269 C
HETATM    8  O2  UNL     1      26.651  48.962  -1.029  1.00  0.00    -0.269 OA
ENDROOT
BRANCH   2   9
HETATM    9  C3  UNL     1      28.560  46.803  -0.417  1.00  0.00     0.266 C
HETATM   10  N1  UNL     1      27.999  45.734   0.291  1.00  0.00    -0.060 NA
HETATM   11  O1  UNL     1      29.439  47.502   0.163  1.00  0.00    -0.274 OA
ENDBRANCH   2   9
BRANCH   4  12
HETATM   12  N4  UNL     1      29.673  49.270  -4.130  1.00  0.00    -0.330 NA
ATOM     13  H42 UNL     1      30.493  48.788  -4.497  1.00  0.00     0.174 HD
ATOM     14  H41 UNL     1      29.260  49.752  -4.929  1.00  0.00     0.174 HD
ENDBRANCH   4  12
TORSDOF 2
ENDMDL