MODEL 3
REMARK VINA RESULT: -6.753018681      2.366      2.955
REMARK  1 active torsions:
REMARK  status: ('A' for Active; 'I' for Inactive)
REMARK    1  A    between atoms: N3_4  and  N4_6
ROOT
HETATM    1  N4  UNL     1      29.845  47.712  -1.206  1.00  0.00    -0.279 N
ATOM      2  H4  UNL     1      30.316  46.919  -0.771  1.00  0.00     0.189 HD
HETATM    3  C2  UNL     1      28.570  47.644  -1.351  1.00  0.00     0.193 A
HETATM    4  N5  UNL     1      27.718  48.629  -1.930  1.00  0.00    -0.289 N
ATOM      5  H5  UNL     1      28.006  49.529  -2.312  1.00  0.00     0.172 HD
HETATM    6  C3  UNL     1      26.385  48.119  -1.877  1.00  0.00     0.328 A
HETATM    7  O1  UNL     1      25.359  48.722  -2.302  1.00  0.00    -0.247 OA
HETATM    8  N6  UNL     1      26.401  46.828  -1.271  1.00  0.00    -0.272 N
ATOM      9  H6  UNL     1      25.589  46.233  -1.106  1.00  0.00     0.174 HD
HETATM   10  C4  UNL     1      27.740  46.518  -0.940  1.00  0.00     0.295 A
HETATM   11  O2  UNL     1      28.179  45.476  -0.391  1.00  0.00    -0.264 OA
ENDROOT
BRANCH   1  12
HETATM   12  N3  UNL     1      30.623  48.784  -1.600  1.00  0.00    -0.274 N
HETATM   13  C1  UNL     1      31.307  48.730  -2.696  1.00  0.00     0.215 C
HETATM   14  N1  UNL     1      31.257  47.553  -3.503  1.00  0.00    -0.065 NA
HETATM   15  N2  UNL     1      32.104  49.850  -3.081  1.00  0.00    -0.065 NA
ATOM     16  H3  UNL     1      30.658  49.623  -1.022  1.00  0.00     0.189 HD
ENDBRANCH   1  12
TORSDOF 1
ENDMDL