MODEL 1
REMARK VINA RESULT: -7.220227195      0.000      0.000
REMARK  1 active torsions:
REMARK  status: ('A' for Active; 'I' for Inactive)
REMARK       I    between atoms: N1_1  and  C1_5
REMARK       I    between atoms: C1_5  and  N2_6
REMARK       I    between atoms: C1_5  and  N3_10
REMARK    1  A    between atoms: N3_10  and  C2_12
ROOT
HETATM    1  C2  UNL     1      28.402  46.799  -2.880  1.00  0.00     0.689 A
HETATM    2  N4  UNL     1      27.931  45.998  -1.914  1.00  0.00    -0.141 N
ATOM      3  H4  UNL     1      27.245  45.278  -2.139  1.00  0.00     0.189 HD
HETATM    4  C3  UNL     1      28.368  46.146  -0.628  1.00  0.00     0.342 A
HETATM    5  O1  UNL     1      27.928  45.393   0.292  1.00  0.00    -0.246 OA
HETATM    6  N5  UNL     1      29.271  47.091  -0.315  1.00  0.00    -0.260 N
ATOM      7  H5  UNL     1      29.593  47.195   0.647  1.00  0.00     0.175 HD
HETATM    8  C4  UNL     1      29.748  47.898  -1.280  1.00  0.00     0.342 A
HETATM    9  O2  UNL     1      30.603  48.793  -0.985  1.00  0.00    -0.246 OA
HETATM   10  N6  UNL     1      29.302  47.729  -2.524  1.00  0.00    -0.141 N
ATOM     11  H6  UNL     1      29.666  48.345  -3.250  1.00  0.00     0.189 HD
ENDROOT
BRANCH   1  12
HETATM   12  N3  UNL     1      27.997  46.665  -4.083  1.00  0.00    -0.173 N
HETATM   13  C1  UNL     1      28.749  46.341  -5.243  1.00  0.00     0.494 C
HETATM   14  N1  UNL     1      29.794  47.294  -5.573  1.00  0.00    -0.032 N
HETATM   15  N2  UNL     1      29.298  44.986  -5.084  1.00  0.00    -0.032 N
ATOM     16  H13 UNL     1      30.550  47.273  -4.889  1.00  0.00     0.278 HD
ATOM     17  H12 UNL     1      30.321  47.003  -6.397  1.00  0.00     0.278 HD
ATOM     18  H11 UNL     1      29.413  48.233  -5.683  1.00  0.00     0.278 HD
ATOM     19  H23 UNL     1      29.825  44.695  -5.909  1.00  0.00     0.278 HD
ATOM     20  H22 UNL     1      30.055  44.965  -4.401  1.00  0.00     0.278 HD
ATOM     21  H21 UNL     1      28.564  44.316  -4.853  1.00  0.00     0.278 HD
ATOM     22  H3  UNL     1      26.998  46.812  -4.231  1.00  0.00     0.181 HD
ENDBRANCH   1  12
TORSDOF 1
ENDMDL