MODEL 3
REMARK VINA RESULT: -6.072881839      2.095      2.365
REMARK  2 active torsions:
REMARK  status: ('A' for Active; 'I' for Inactive)
REMARK    1  A    between atoms: N1_1  and  N2_4
REMARK    2  A    between atoms: N2_4  and  C1_6
ROOT
HETATM    1  C1  UNL     1      29.624  46.832  -4.989  1.00  0.00     0.156 C
HETATM    2  C2  UNL     1      29.457  46.951  -3.694  1.00  0.00     0.140 A
HETATM    3  N3  UNL     1      28.529  46.130  -2.985  1.00  0.00    -0.281 N
ATOM      4  H3  UNL     1      27.992  45.440  -3.509  1.00  0.00     0.188 HD
HETATM    5  N4  UNL     1      28.324  46.228  -1.605  1.00  0.00    -0.260 N
ATOM      6  H4  UNL     1      27.650  45.616  -1.146  1.00  0.00     0.190 HD
HETATM    7  C3  UNL     1      29.040  47.161  -0.855  1.00  0.00     0.328 A
HETATM    8  O1  UNL     1      28.899  47.300   0.401  1.00  0.00    -0.261 OA
HETATM    9  C4  UNL     1      30.001  48.033  -1.502  1.00  0.00     0.316 A
HETATM   10  O2  UNL     1      30.677  48.900  -0.851  1.00  0.00    -0.262 OA
HETATM   11  N5  UNL     1      30.181  47.902  -2.904  1.00  0.00    -0.303 N
ATOM     12  H5  UNL     1      30.854  48.510  -3.369  1.00  0.00     0.171 HD
ENDROOT
BRANCH   1  13
HETATM   13  N2  UNL     1      28.872  45.870  -5.695  1.00  0.00    -0.315 N
ATOM     14  H2  UNL     1      27.978  46.144  -6.105  1.00  0.00     0.185 HD
BRANCH  13  15
HETATM   15  N1  UNL     1      29.320  44.539  -5.852  1.00  0.00    -0.345 N
ATOM     16  H12 UNL     1      28.642  43.837  -6.147  1.00  0.00     0.176 HD
ATOM     17  H11 UNL     1      30.290  44.273  -5.678  1.00  0.00     0.176 HD
ENDBRANCH  13  15
ENDBRANCH   1  13
TORSDOF 2
ENDMDL