MODEL 4
REMARK VINA RESULT: -6.194757424      3.218      4.602
REMARK  3 active torsions:
REMARK  status: ('A' for Active; 'I' for Inactive)
REMARK    1  A    between atoms: N1_1  and  N2_4
REMARK       I    between atoms: C1_6  and  N4_8
REMARK    2  A    between atoms: N4_8  and  N5_10
REMARK    3  A    between atoms: N5_10  and  C2_12
ROOT
HETATM    1  N2  UNL     1      31.217  49.144  -3.271  1.00  0.00    -0.279 N
ATOM      2  H2  UNL     1      31.222  48.807  -4.233  1.00  0.00     0.189 HD
HETATM    3  C1  UNL     1      30.810  48.392  -2.326  1.00  0.00     0.221 C
HETATM    4  N3  UNL     1      30.800  48.850  -0.995  1.00  0.00    -0.061 NA
HETATM    5  N4  UNL     1      30.364  47.086  -2.623  1.00  0.00    -0.270 N
ATOM      6  H4  UNL     1      30.908  46.276  -2.326  1.00  0.00     0.189 HD
ENDROOT
BRANCH   5   7
HETATM    7  N5  UNL     1      29.166  46.912  -3.332  1.00  0.00    -0.268 N
ATOM      8  H5  UNL     1      29.126  46.213  -4.074  1.00  0.00     0.190 HD
BRANCH   7   9
HETATM    9  C2  UNL     1      28.003  47.687  -3.043  1.00  0.00     0.206 A
HETATM   10  N6  UNL     1      26.895  47.366  -2.424  1.00  0.00    -0.279 N
HETATM   11  C3  UNL     1      26.399  48.689  -2.623  1.00  0.00     0.329 A
ATOM     12  H6  UNL     1      26.534  46.519  -1.982  1.00  0.00     0.173 HD
HETATM   13  O1  UNL     1      25.320  49.281  -2.314  1.00  0.00    -0.246 OA
HETATM   14  N7  UNL     1      27.599  49.019  -3.287  1.00  0.00    -0.279 N
ATOM     15  H7  UNL     1      27.995  49.843  -3.739  1.00  0.00     0.173 HD
ENDBRANCH   7   9
ENDBRANCH   5   7
BRANCH   1  16
HETATM   16  N1  UNL     1      31.654  50.429  -2.973  1.00  0.00    -0.343 N
ATOM     17  H12 UNL     1      31.839  51.084  -3.732  1.00  0.00     0.176 HD
ATOM     18  H11 UNL     1      31.782  50.697  -1.997  1.00  0.00     0.176 HD
ENDBRANCH   1  16
TORSDOF 3
ENDMDL