MODEL 2
REMARK VINA RESULT: -5.751657588      1.900      2.310
REMARK  3 active torsions:
REMARK  status: ('A' for Active; 'I' for Inactive)
REMARK    1  A    between atoms: N1_1  and  N2_4
REMARK       I    between atoms: C1_6  and  N4_8
REMARK    2  A    between atoms: N4_8  and  S1_10
REMARK    3  A    between atoms: S1_10  and  N5_11
ROOT
HETATM    1  N2  UNL     1      28.842  46.363  -3.226  1.00  0.00    -0.280 N
ATOM      2  H2  UNL     1      28.702  45.745  -2.428  1.00  0.00     0.189 HD
HETATM    3  C1  UNL     1      28.908  47.617  -3.059  1.00  0.00     0.217 C
HETATM    4  N3  UNL     1      29.100  48.476  -4.148  1.00  0.00    -0.061 NA
HETATM    5  N4  UNL     1      28.786  48.153  -1.767  1.00  0.00    -0.240 N
ATOM      6  H4  UNL     1      29.640  48.418  -1.277  1.00  0.00     0.183 HD
ENDROOT
BRANCH   5   7
HETATM    7  S1  UNL     1      27.286  48.392  -0.960  1.00  0.00     0.319 S
HETATM    8  O1  UNL     1      27.506  48.831   0.441  1.00  0.00    -0.183 OA
HETATM    9  O2  UNL     1      26.529  47.089  -1.028  1.00  0.00    -0.183 OA
BRANCH   7  10
HETATM   10  N5  UNL     1      26.380  49.605  -1.791  1.00  0.00    -0.311 N
ATOM     11  H52 UNL     1      25.678  49.416  -2.507  1.00  0.00     0.170 HD
ATOM     12  H51 UNL     1      26.659  50.526  -1.451  1.00  0.00     0.170 HD
ENDBRANCH   7  10
ENDBRANCH   5   7
BRANCH   1  13
HETATM   13  N1  UNL     1      28.962  45.836  -4.512  1.00  0.00    -0.343 N
ATOM     14  H12 UNL     1      29.519  44.994  -4.655  1.00  0.00     0.176 HD
ATOM     15  H11 UNL     1      28.493  46.299  -5.290  1.00  0.00     0.176 HD
ENDBRANCH   1  13
TORSDOF 3
ENDMDL