MODEL 1
REMARK VINA RESULT: -6.517043744      0.000      0.000
REMARK  3 active torsions:
REMARK  status: ('A' for Active; 'I' for Inactive)
REMARK    1  A    between atoms: N1_2  and  C2_4
REMARK    2  A    between atoms: C3_9  and  N4_10
REMARK       I    between atoms: N4_10  and  C4_12
REMARK    3  A    between atoms: N7_17  and  N8_18
ROOT
HETATM    1  C2  UNL     1      27.644  47.871  -2.523  1.00  0.00     0.728 A
HETATM    2  N2  UNL     1      27.228  46.574  -2.367  1.00  0.00    -0.116 N
ATOM      3  H2  UNL     1      26.493  46.267  -1.730  1.00  0.00     0.206 HD
HETATM    4  N3  UNL     1      27.920  45.782  -3.162  1.00  0.00    -0.115 N
ATOM      5  H3  UNL     1      27.804  44.771  -3.237  1.00  0.00     0.206 HD
HETATM    6  C3  UNL     1      28.804  46.516  -3.861  1.00  0.00     0.735 A
HETATM    7  N7  UNL     1      28.618  47.785  -3.457  1.00  0.00     0.086 N
ENDROOT
BRANCH   6   8
HETATM    8  N4  UNL     1      29.643  46.080  -4.731  1.00  0.00    -0.160 N
HETATM    9  C4  UNL     1      29.391  45.236  -5.812  1.00  0.00     0.200 C
HETATM   10  N5  UNL     1      29.405  43.943  -5.778  1.00  0.00    -0.373 N
HETATM   11  N6  UNL     1      29.088  45.837  -7.086  1.00  0.00    -0.063 NA
ATOM     12  H52 UNL     1      29.620  43.518  -4.876  1.00  0.00     0.158 HD
ATOM     13  H51 UNL     1      29.221  43.325  -6.569  1.00  0.00     0.158 HD
ATOM     14  H4  UNL     1      30.609  46.388  -4.618  1.00  0.00     0.187 HD
ENDBRANCH   6   8
BRANCH   7  15
HETATM   15  N8  UNL     1      29.359  48.857  -3.961  1.00  0.00    -0.309 N
ATOM     16  H82 UNL     1      29.160  49.828  -3.720  1.00  0.00     0.178 HD
ATOM     17  H81 UNL     1      30.149  48.783  -4.602  1.00  0.00     0.178 HD
ENDBRANCH   7  15
BRANCH   1  18
HETATM   18  N1  UNL     1      27.177  48.895  -1.897  1.00  0.00    -0.227 N
HETATM   19  C1  UNL     1      25.898  49.454  -2.263  1.00  0.00     0.165 C
ATOM     20  H1  UNL     1      27.715  49.315  -1.139  1.00  0.00     0.177 HD
ENDBRANCH   1  18
TORSDOF 3
ENDMDL