MODEL 4
REMARK VINA RESULT: -6.233055940      2.038      2.449
REMARK  3 active torsions:
REMARK  status: ('A' for Active; 'I' for Inactive)
REMARK    1  A    between atoms: N1_1  and  N2_4
REMARK       I    between atoms: C1_6  and  N4_8
REMARK    2  A    between atoms: N4_8  and  C2_10
REMARK    3  A    between atoms: N6_13  and  O1_14
ROOT
HETATM    1  C2  UNL     1      29.143  47.563  -2.150  1.00  0.00     0.718 A
HETATM    2  N5  UNL     1      30.168  48.349  -1.811  1.00  0.00    -0.087 N
ATOM      3  H5  UNL     1      30.175  49.048  -1.068  1.00  0.00     0.210 HD
HETATM    4  N6  UNL     1      31.169  48.051  -2.618  1.00  0.00    -0.065 N
HETATM    5  N7  UNL     1      30.809  47.100  -3.457  1.00  0.00    -0.186 N
ATOM      6  H7  UNL     1      31.384  46.679  -4.186  1.00  0.00     0.213 HD
HETATM    7  N8  UNL     1      29.558  46.801  -3.166  1.00  0.00    -0.113 N
ATOM      8  H8  UNL     1      28.995  46.097  -3.643  1.00  0.00     0.207 HD
ENDROOT
BRANCH   1   9
HETATM    9  N4  UNL     1      27.949  47.488  -1.649  1.00  0.00    -0.159 N
HETATM   10  C1  UNL     1      27.321  48.601  -1.024  1.00  0.00     0.221 C
HETATM   11  N2  UNL     1      26.667  49.505  -1.643  1.00  0.00    -0.280 N
HETATM   12  N3  UNL     1      27.446  48.684   0.391  1.00  0.00    -0.061 NA
ATOM     13  H2  UNL     1      26.238  50.278  -1.135  1.00  0.00     0.189 HD
ATOM     14  H4  UNL     1      27.445  46.604  -1.704  1.00  0.00     0.187 HD
BRANCH  11  15
HETATM   15  N1  UNL     1      26.552  49.411  -3.035  1.00  0.00    -0.343 N
ATOM     16  H12 UNL     1      27.240  48.878  -3.566  1.00  0.00     0.176 HD
ATOM     17  H11 UNL     1      25.772  49.885  -3.492  1.00  0.00     0.176 HD
ENDBRANCH  11  15
ENDBRANCH   1   9
BRANCH   4  18
HETATM   18  O1  UNL     1      32.439  48.620  -2.630  1.00  0.00    -0.252 OA
ATOM     19  H1  UNL     1      33.103  48.529  -3.302  1.00  0.00     0.248 HD
ENDBRANCH   4  18
TORSDOF 3
ENDMDL