MODEL 5
REMARK VINA RESULT: -5.501048367      1.825      2.393
REMARK  2 active torsions:
REMARK  status: ('A' for Active; 'I' for Inactive)
REMARK       I    between atoms: C2_4  and  N3_6
REMARK    1  A    between atoms: N3_6  and  N4_8
REMARK       I    between atoms: N4_8  and  C3_10
REMARK    2  A    between atoms: C3_10  and  C4_12
ROOT
HETATM    1  C1  UNL     1      30.960  49.979  -5.379  1.00  0.00     0.148 C
HETATM    2  N1  UNL     1      30.567  48.616  -5.328  1.00  0.00    -0.368 N
ATOM      3  H1  UNL     1      31.011  48.000  -6.010  1.00  0.00     0.161 HD
HETATM    4  C2  UNL     1      29.736  48.066  -4.548  1.00  0.00     0.202 C
HETATM    5  N2  UNL     1      29.512  46.649  -4.705  1.00  0.00    -0.062 NA
HETATM    6  N3  UNL     1      28.993  48.694  -3.529  1.00  0.00    -0.271 N
ATOM      7  H3  UNL     1      28.380  49.467  -3.789  1.00  0.00     0.189 HD
ENDROOT
BRANCH   6   8
HETATM    8  N4  UNL     1      29.047  48.323  -2.188  1.00  0.00    -0.260 N
HETATM    9  C3  UNL     1      28.056  47.510  -1.567  1.00  0.00     0.325 C
HETATM   10  O1  UNL     1      27.099  47.122  -2.284  1.00  0.00    -0.261 OA
ATOM     11  H4  UNL     1      29.832  48.649  -1.624  1.00  0.00     0.190 HD
BRANCH   9  12
HETATM   12  C4  UNL     1      28.093  47.118  -0.187  1.00  0.00     0.324 C
HETATM   13  N5  UNL     1      28.203  45.759   0.170  1.00  0.00    -0.053 NA
HETATM   14  O2  UNL     1      28.029  47.992   0.704  1.00  0.00    -0.266 OA
ENDBRANCH   9  12
ENDBRANCH   6   8
TORSDOF 2
ENDMDL