MODEL 5
REMARK VINA RESULT: -4.273771585     10.139     11.292
REMARK  3 active torsions:
REMARK  status: ('A' for Active; 'I' for Inactive)
REMARK    1  A    between atoms: C4_11  and  N4_12
REMARK    2  A    between atoms: N4_12  and  S1_14
REMARK    3  A    between atoms: S1_14  and  N5_15
ROOT
HETATM    1  N1  UNL     1      12.121  13.896 117.413  1.00  0.00    -0.080 NA
HETATM    2  C1  UNL     1      11.765  12.517 117.501  1.00  0.00     0.153 A
HETATM    3  N2  UNL     1      11.802  11.862 118.674  1.00  0.00    -0.295 N
ATOM      4  H2  UNL     1      12.088  12.346 119.525  1.00  0.00     0.172 HD
HETATM    5  C2  UNL     1      11.459  10.565 118.713  1.00  0.00     0.328 A
HETATM    6  O1  UNL     1      11.493   9.936 119.827  1.00  0.00    -0.247 OA
HETATM    7  N3  UNL     1      11.081   9.929 117.587  1.00  0.00    -0.273 N
ATOM      8  H3  UNL     1      10.826   8.943 117.651  1.00  0.00     0.173 HD
HETATM    9  C3  UNL     1      11.023  10.526 116.385  1.00  0.00     0.280 A
HETATM   10  O2  UNL     1      10.660   9.877 115.361  1.00  0.00    -0.265 OA
HETATM   11  C4  UNL     1      11.374  11.856 116.340  1.00  0.00     0.153 A
ENDROOT
BRANCH  11  12
HETATM   12  N4  UNL     1      11.323  12.515 115.086  1.00  0.00    -0.260 N
ATOM     13  H4  UNL     1      12.177  12.539 114.528  1.00  0.00     0.180 HD
BRANCH  12  14
HETATM   14  S1  UNL     1       9.939  13.268 114.445  1.00  0.00     0.317 S
HETATM   15  O3  UNL     1       9.875  14.734 114.746  1.00  0.00    -0.183 OA
HETATM   16  O4  UNL     1       8.717  12.622 115.034  1.00  0.00    -0.183 OA
BRANCH  14  17
HETATM   17  N5  UNL     1       9.835  13.107 112.722  1.00  0.00    -0.311 N
ATOM     18  H52 UNL     1       9.292  13.743 112.138  1.00  0.00     0.170 HD
ATOM     19  H51 UNL     1      10.373  12.315 112.372  1.00  0.00     0.170 HD
ENDBRANCH  14  17
ENDBRANCH  12  14
ENDBRANCH  11  12
TORSDOF 3
ENDMDL