MODEL 1
REMARK VINA RESULT: -5.638676717      0.000      0.000
REMARK  2 active torsions:
REMARK  status: ('A' for Active; 'I' for Inactive)
REMARK    1  A    between atoms: C2_6  and  C3_7
REMARK    2  A    between atoms: N3_8  and  C4_10
ROOT
HETATM    1  C3  UNL     1       7.282  10.276 122.829  1.00  0.00     0.106 C
HETATM    2  N3  UNL     1       6.922  10.111 124.035  1.00  0.00    -0.352 N
ATOM      3  H3  UNL     1       7.436   9.418 124.578  1.00  0.00     0.166 HD
ENDROOT
BRANCH   2   4
HETATM    4  C4  UNL     1       5.886  10.788 124.695  1.00  0.00     0.114 A
HETATM    5  C5  UNL     1       5.741  12.147 124.514  1.00  0.00     0.123 A
HETATM    6  C6  UNL     1       4.714  12.789 125.174  1.00  0.00     0.252 A
HETATM    7  O2  UNL     1       4.539  14.028 125.041  1.00  0.00    -0.268 OA
HETATM    8  N4  UNL     1       3.862  12.131 125.981  1.00  0.00    -0.275 N
HETATM    9  C7  UNL     1       4.038  10.805 126.132  1.00  0.00     0.328 A
ATOM     10  H4  UNL     1       3.108  12.620 126.462  1.00  0.00     0.173 HD
HETATM   11  O3  UNL     1       3.249  10.184 126.883  1.00  0.00    -0.247 OA
HETATM   12  N5  UNL     1       5.039  10.158 125.493  1.00  0.00    -0.294 N
ATOM     13  H5  UNL     1       5.144   9.153 125.631  1.00  0.00     0.172 HD
ENDBRANCH   2   4
BRANCH   1  14
HETATM   14  C2  UNL     1       8.408   9.459 122.310  1.00  0.00     0.239 C
HETATM   15  N2  UNL     1       9.659   9.779 122.969  1.00  0.00    -0.106 NA
HETATM   16  N1  UNL     1      10.611   9.221 122.101  1.00  0.00    -0.253 N
HETATM   17  C1  UNL     1      10.112   9.536 120.787  1.00  0.00     0.333 C
ATOM     18  H1  UNL     1      11.460   8.711 122.345  1.00  0.00     0.187 HD
HETATM   19  O1  UNL     1      10.803   9.580 119.736  1.00  0.00    -0.246 OA
HETATM   20  N6  UNL     1       8.716   9.777 120.929  1.00  0.00    -0.318 N
ATOM     21  H6  UNL     1       8.070  10.104 120.211  1.00  0.00     0.166 HD
ENDBRANCH   1  14
TORSDOF 2
ENDMDL