MODEL 5
REMARK VINA RESULT: -4.406053462      1.205      4.153
REMARK  5 active torsions:
REMARK  status: ('A' for Active; 'I' for Inactive)
REMARK    1  A    between atoms: C1_4  and  C2_5
REMARK    2  A    between atoms: C1_4  and  N3_10
REMARK    3  A    between atoms: C2_5  and  N2_6
REMARK    4  A    between atoms: N3_10  and  C3_12
REMARK    5  A    between atoms: N6_19  and  C5_20
ROOT
HETATM    1  C3  UNL     1       6.449  10.696 123.939  1.00  0.00     0.711 A
HETATM    2  N4  UNL     1       5.627  11.684 123.550  1.00  0.00    -0.138 N
ATOM      3  H4  UNL     1       5.626  12.159 122.648  1.00  0.00     0.189 HD
HETATM    4  C4  UNL     1       4.792  11.926 124.604  1.00  0.00     0.354 A
HETATM    5  O1  UNL     1       3.876  12.772 124.655  1.00  0.00    -0.245 OA
HETATM    6  N5  UNL     1       5.155  11.071 125.580  1.00  0.00    -0.228 N
ATOM      7  H5  UNL     1       4.709  11.017 126.495  1.00  0.00     0.193 HD
HETATM    8  N6  UNL     1       6.163  10.311 125.195  1.00  0.00    -0.063 N
ENDROOT
BRANCH   1   9
HETATM    9  N3  UNL     1       7.389  10.169 123.237  1.00  0.00    -0.177 N
ATOM     10  H3  UNL     1       7.202   9.277 122.778  1.00  0.00     0.185 HD
BRANCH   9  11
HETATM   11  C1  UNL     1       8.664  10.750 123.061  1.00  0.00     0.116 C
HETATM   12  N1  UNL     1       9.102  11.599 123.908  1.00  0.00    -0.387 N
ATOM     13  H12 UNL     1      10.024  12.019 123.782  1.00  0.00     0.157 HD
ATOM     14  H11 UNL     1       8.538  11.865 124.716  1.00  0.00     0.157 HD
BRANCH  11  15
HETATM   15  C2  UNL     1       9.480  10.367 121.894  1.00  0.00     0.305 C
BRANCH  15  16
HETATM   16  N2  UNL     1       8.663   9.656 120.929  1.00  0.00    -0.073 N
ATOM     17  H23 UNL     1       8.836   8.651 120.947  1.00  0.00     0.274 HD
ATOM     18  H22 UNL     1       7.680   9.643 121.197  1.00  0.00     0.274 HD
ATOM     19  H21 UNL     1       8.801  10.051 119.998  1.00  0.00     0.274 HD
ENDBRANCH  15  16
ENDBRANCH  11  15
ENDBRANCH   9  11
ENDBRANCH   1   9
BRANCH   8  20
HETATM   20  C5  UNL     1       6.802   9.298 125.968  1.00  0.00     0.175 A
HETATM   21  C6  UNL     1       7.991   9.440 126.669  1.00  0.00     0.157 A
HETATM   22  N7  UNL     1       8.235   8.269 127.248  1.00  0.00    -0.292 N
HETATM   23  N8  UNL     1       7.280   7.401 126.959  1.00  0.00    -0.021 NA
ATOM     24  H7  UNL     1       9.046   8.067 127.834  1.00  0.00     0.183 HD
HETATM   25  N9  UNL     1       6.414   8.031 126.182  1.00  0.00    -0.266 N
ATOM     26  H9  UNL     1       5.567   7.611 125.798  1.00  0.00     0.186 HD
ENDBRANCH   8  20
TORSDOF 5
ENDMDL